MODEL 1
REMARK VINA RESULT:      -8.7      0.000      0.000
REMARK  11 active torsions:
REMARK  status: ('A' for Active; 'I' for Inactive)
REMARK    1  A    between atoms: O_2  and  C_3 
REMARK    2  A    between atoms: C_6  and  C_7 
REMARK    3  A    between atoms: C_7  and  S_8 
REMARK    4  A    between atoms: C_7  and  C_22 
REMARK    5  A    between atoms: S_8  and  C_9 
REMARK    6  A    between atoms: C_12  and  C_13 
REMARK    7  A    between atoms: C_22  and  C_23 
REMARK       I    between atoms: C_23  and  N_24 
REMARK    8  A    between atoms: N_24  and  C_25 
REMARK    9  A    between atoms: C_25  and  C_26 
REMARK   10  A    between atoms: C_26  and  C_27 
REMARK   11  A    between atoms: C_27  and  N_28 
ROOT
HETATM    1  C   UNL     1      41.293 -13.211   5.010  1.00  0.00     0.097 C 
ENDROOT
BRANCH   1   2
HETATM    2  C   UNL     1      41.152 -13.780   3.604  1.00  0.00    -0.043 A 
HETATM    3  C   UNL     1      42.006 -13.397   2.556  1.00  0.00     0.011 A 
HETATM    4  C   UNL     1      41.900 -13.995   1.299  1.00  0.00     0.037 A 
HETATM    5  C   UNL     1      40.969 -15.007   1.078  1.00  0.00     0.068 A 
HETATM    6  C   UNL     1      40.094 -15.378   2.095  1.00  0.00     0.037 A 
HETATM    7  C   UNL     1      40.186 -14.770   3.350  1.00  0.00     0.011 A 
BRANCH   5   8
HETATM    8  O   UNL     1      40.951 -15.553  -0.175  1.00  0.00    -0.356 OA
HETATM    9  C   UNL     1      41.047 -14.581  -1.216  1.00  0.00     0.210 C 
ENDBRANCH   5   8
ENDBRANCH   1   2
BRANCH   1  10
HETATM   10  S   UNL     1      42.946 -13.596   5.735  1.00  0.00    -0.080 SA
BRANCH  10  11
HETATM   11  C   UNL     1      43.020 -15.309   5.726  1.00  0.00     0.190 A 
HETATM   12  N   UNL     1      42.949 -16.113   6.754  1.00  0.00    -0.122 NA
HETATM   13  N   UNL     1      43.092 -17.393   6.284  1.00  0.00    -0.129 NA
HETATM   14  C   UNL     1      43.299 -17.345   4.976  1.00  0.00     0.162 A 
HETATM   15  N   UNL     1      43.262 -16.024   4.593  1.00  0.00    -0.317 N 
HETATM   16  H   UNL     1      43.370 -15.652   3.662  1.00  0.00     0.169 HD
BRANCH  14  17
HETATM   17  C   UNL     1      43.516 -18.490   4.091  1.00  0.00     0.012 A 
HETATM   18  C   UNL     1      44.387 -19.515   4.498  1.00  0.00     0.017 A 
HETATM   19  C   UNL     1      44.635 -20.621   3.680  1.00  0.00     0.025 A 
HETATM   20  C   UNL     1      44.017 -20.711   2.437  1.00  0.00     0.034 A 
HETATM   21 CL   UNL     1      44.325 -22.063   1.422  1.00  0.00    -0.084 Cl
HETATM   22  C   UNL     1      43.152 -19.705   2.011  1.00  0.00     0.025 A 
HETATM   23  C   UNL     1      42.901 -18.600   2.834  1.00  0.00     0.017 A 
ENDBRANCH  14  17
ENDBRANCH  10  11
ENDBRANCH   1  10
BRANCH   1  24
HETATM   24  C   UNL     1      40.047 -13.544   5.837  1.00  0.00     0.123 C 
BRANCH  24  25
HETATM   25  C   UNL     1      39.465 -12.339   6.538  1.00  0.00     0.219 C 
HETATM   26  N   UNL     1      39.812 -12.223   7.861  1.00  0.00    -0.361 N 
HETATM   27  H   UNL     1      40.622 -12.757   8.186  1.00  0.00     0.162 HD
HETATM   28  O   UNL     1      38.723 -11.526   5.985  1.00  0.00    -0.274 OA
BRANCH  26  29
HETATM   29  C   UNL     1      39.247 -11.245   8.758  1.00  0.00     0.124 C 
BRANCH  29  30
HETATM   30  C   UNL     1      40.140 -10.892   9.944  1.00  0.00     0.047 C 
BRANCH  30  31
HETATM   31  C   UNL     1      41.554 -10.399   9.633  1.00  0.00     0.236 C 
BRANCH  31  32
HETATM   32  N   UNL     1      42.625 -11.436   9.833  1.00  0.00    -0.067 N 
HETATM   33  H   UNL     1      42.148 -12.361   9.759  1.00  0.00     0.280 HD
HETATM   34  C   UNL     1      43.774 -11.394   8.844  1.00  0.00     0.261 C 
HETATM   35  C   UNL     1      44.761 -12.527   9.152  1.00  0.00     0.195 C 
HETATM   36  O   UNL     1      45.249 -12.432  10.495  1.00  0.00    -0.388 OA
HETATM   37  C   UNL     1      44.183 -12.542  11.445  1.00  0.00     0.195 C 
HETATM   38  C   UNL     1      43.167 -11.411  11.260  1.00  0.00     0.261 C 
ENDBRANCH  31  32
ENDBRANCH  30  31
ENDBRANCH  29  30
ENDBRANCH  26  29
ENDBRANCH  24  25
ENDBRANCH   1  24
TORSDOF 11
ENDMDL
MODEL 2
REMARK VINA RESULT:      -8.6      2.155      3.681
REMARK  11 active torsions:
REMARK  status: ('A' for Active; 'I' for Inactive)
REMARK    1  A    between atoms: O_2  and  C_3 
REMARK    2  A    between atoms: C_6  and  C_7 
REMARK    3  A    between atoms: C_7  and  S_8 
REMARK    4  A    between atoms: C_7  and  C_22 
REMARK    5  A    between atoms: S_8  and  C_9 
REMARK    6  A    between atoms: C_12  and  C_13 
REMARK    7  A    between atoms: C_22  and  C_23 
REMARK       I    between atoms: C_23  and  N_24 
REMARK    8  A    between atoms: N_24  and  C_25 
REMARK    9  A    between atoms: C_25  and  C_26 
REMARK   10  A    between atoms: C_26  and  C_27 
REMARK   11  A    between atoms: C_27  and  N_28 
ROOT
HETATM    1  C   UNL     1      41.871 -13.649   4.557  1.00  0.00     0.097 C 
ENDROOT
BRANCH   1   2
HETATM    2  C   UNL     1      42.357 -14.709   5.538  1.00  0.00    -0.043 A 
HETATM    3  C   UNL     1      43.594 -14.605   6.195  1.00  0.00     0.011 A 
HETATM    4  C   UNL     1      43.975 -15.554   7.146  1.00  0.00     0.037 A 
HETATM    5  C   UNL     1      43.115 -16.596   7.483  1.00  0.00     0.068 A 
HETATM    6  C   UNL     1      41.898 -16.733   6.821  1.00  0.00     0.037 A 
HETATM    7  C   UNL     1      41.521 -15.795   5.855  1.00  0.00     0.011 A 
BRANCH   5   8
HETATM    8  O   UNL     1      43.559 -17.464   8.441  1.00  0.00    -0.356 OA
HETATM    9  C   UNL     1      44.102 -18.669   7.903  1.00  0.00     0.210 C 
ENDBRANCH   5   8
ENDBRANCH   1   2
BRANCH   1  10
HETATM   10  S   UNL     1      42.873 -13.649   3.008  1.00  0.00    -0.080 SA
BRANCH  10  11
HETATM   11  C   UNL     1      42.753 -15.259   2.429  1.00  0.00     0.190 A 
HETATM   12  N   UNL     1      42.008 -15.697   1.449  1.00  0.00    -0.122 NA
HETATM   13  N   UNL     1      42.200 -17.051   1.361  1.00  0.00    -0.129 NA
HETATM   14  C   UNL     1      43.027 -17.427   2.327  1.00  0.00     0.162 A 
HETATM   15  N   UNL     1      43.392 -16.301   3.028  1.00  0.00    -0.317 N 
HETATM   16  H   UNL     1      44.022 -16.245   3.814  1.00  0.00     0.169 HD
BRANCH  14  17
HETATM   17  C   UNL     1      43.480 -18.791   2.597  1.00  0.00     0.012 A 
HETATM   18  C   UNL     1      44.105 -19.076   3.823  1.00  0.00     0.017 A 
HETATM   19  C   UNL     1      44.565 -20.362   4.119  1.00  0.00     0.025 A 
HETATM   20  C   UNL     1      44.412 -21.381   3.185  1.00  0.00     0.034 A 
HETATM   21 CL   UNL     1      44.985 -22.962   3.538  1.00  0.00    -0.084 Cl
HETATM   22  C   UNL     1      43.798 -21.122   1.960  1.00  0.00     0.025 A 
HETATM   23  C   UNL     1      43.333 -19.834   1.667  1.00  0.00     0.017 A 
ENDBRANCH  14  17
ENDBRANCH  10  11
ENDBRANCH   1  10
BRANCH   1  24
HETATM   24  C   UNL     1      41.668 -12.316   5.285  1.00  0.00     0.123 C 
BRANCH  24  25
HETATM   25  C   UNL     1      40.376 -12.261   6.065  1.00  0.00     0.219 C 
HETATM   26  N   UNL     1      40.506 -11.826   7.360  1.00  0.00    -0.361 N 
HETATM   27  H   UNL     1      41.362 -11.321   7.605  1.00  0.00     0.162 HD
HETATM   28  O   UNL     1      39.287 -12.595   5.596  1.00  0.00    -0.274 OA
BRANCH  26  29
HETATM   29  C   UNL     1      39.436 -11.847   8.328  1.00  0.00     0.124 C 
BRANCH  29  30
HETATM   30  C   UNL     1      39.466 -10.689   9.321  1.00  0.00     0.047 C 
BRANCH  30  31
HETATM   31  C   UNL     1      40.031 -10.975  10.712  1.00  0.00     0.236 C 
BRANCH  31  32
HETATM   32  N   UNL     1      41.507 -11.260  10.731  1.00  0.00    -0.067 N 
HETATM   33  H   UNL     1      41.624 -12.208  10.310  1.00  0.00     0.280 HD
HETATM   34  C   UNL     1      42.378 -10.276   9.973  1.00  0.00     0.261 C 
HETATM   35  C   UNL     1      43.844 -10.717  10.051  1.00  0.00     0.195 C 
HETATM   36  O   UNL     1      44.276 -10.825  11.412  1.00  0.00    -0.388 OA
HETATM   37  C   UNL     1      43.511 -11.804  12.125  1.00  0.00     0.195 C 
HETATM   38  C   UNL     1      42.027 -11.421  12.157  1.00  0.00     0.261 C 
ENDBRANCH  31  32
ENDBRANCH  30  31
ENDBRANCH  29  30
ENDBRANCH  26  29
ENDBRANCH  24  25
ENDBRANCH   1  24
TORSDOF 11
ENDMDL
MODEL 3
REMARK VINA RESULT:      -8.6      3.504      4.951
REMARK  11 active torsions:
REMARK  status: ('A' for Active; 'I' for Inactive)
REMARK    1  A    between atoms: O_2  and  C_3 
REMARK    2  A    between atoms: C_6  and  C_7 
REMARK    3  A    between atoms: C_7  and  S_8 
REMARK    4  A    between atoms: C_7  and  C_22 
REMARK    5  A    between atoms: S_8  and  C_9 
REMARK    6  A    between atoms: C_12  and  C_13 
REMARK    7  A    between atoms: C_22  and  C_23 
REMARK       I    between atoms: C_23  and  N_24 
REMARK    8  A    between atoms: N_24  and  C_25 
REMARK    9  A    between atoms: C_25  and  C_26 
REMARK   10  A    between atoms: C_26  and  C_27 
REMARK   11  A    between atoms: C_27  and  N_28 
ROOT
HETATM    1  C   UNL     1      41.045 -14.417  -0.247  1.00  0.00     0.097 C 
ENDROOT
BRANCH   1   2
HETATM    2  C   UNL     1      40.109 -14.555  -1.442  1.00  0.00    -0.043 A 
HETATM    3  C   UNL     1      40.455 -15.310  -2.575  1.00  0.00     0.011 A 
HETATM    4  C   UNL     1      39.544 -15.481  -3.620  1.00  0.00     0.037 A 
HETATM    5  C   UNL     1      38.266 -14.935  -3.533  1.00  0.00     0.068 A 
HETATM    6  C   UNL     1      37.916 -14.159  -2.432  1.00  0.00     0.037 A 
HETATM    7  C   UNL     1      38.831 -13.971  -1.393  1.00  0.00     0.011 A 
BRANCH   5   8
HETATM    8  O   UNL     1      37.432 -15.173  -4.590  1.00  0.00    -0.356 OA
HETATM    9  C   UNL     1      36.263 -14.354  -4.581  1.00  0.00     0.210 C 
ENDBRANCH   5   8
ENDBRANCH   1   2
BRANCH   1  10
HETATM   10  S   UNL     1      40.521 -15.497   1.154  1.00  0.00    -0.080 SA
BRANCH  10  11
HETATM   11  C   UNL     1      41.968 -16.267   1.656  1.00  0.00     0.190 A 
HETATM   12  N   UNL     1      43.194 -15.858   1.462  1.00  0.00    -0.122 NA
HETATM   13  N   UNL     1      44.031 -16.802   1.997  1.00  0.00    -0.129 NA
HETATM   14  C   UNL     1      43.299 -17.801   2.469  1.00  0.00     0.162 A 
HETATM   15  N   UNL     1      41.975 -17.487   2.259  1.00  0.00    -0.317 N 
HETATM   16  H   UNL     1      41.167 -18.033   2.516  1.00  0.00     0.169 HD
BRANCH  14  17
HETATM   17  C   UNL     1      43.801 -19.018   3.107  1.00  0.00     0.012 A 
HETATM   18  C   UNL     1      44.131 -18.989   4.473  1.00  0.00     0.017 A 
HETATM   19  C   UNL     1      44.627 -20.123   5.121  1.00  0.00     0.025 A 
HETATM   20  C   UNL     1      44.805 -21.303   4.407  1.00  0.00     0.034 A 
HETATM   21 CL   UNL     1      45.424 -22.699   5.196  1.00  0.00    -0.084 Cl
HETATM   22  C   UNL     1      44.488 -21.355   3.051  1.00  0.00     0.025 A 
HETATM   23  C   UNL     1      43.987 -20.219   2.403  1.00  0.00     0.017 A 
ENDBRANCH  14  17
ENDBRANCH  10  11
ENDBRANCH   1  10
BRANCH   1  24
HETATM   24  C   UNL     1      41.308 -12.935   0.043  1.00  0.00     0.123 C 
BRANCH  24  25
HETATM   25  C   UNL     1      41.188 -12.592   1.509  1.00  0.00     0.219 C 
HETATM   26  N   UNL     1      42.320 -12.829   2.248  1.00  0.00    -0.361 N 
HETATM   27  H   UNL     1      43.202 -12.935   1.740  1.00  0.00     0.162 HD
HETATM   28  O   UNL     1      40.157 -12.151   2.020  1.00  0.00    -0.274 OA
BRANCH  26  29
HETATM   29  C   UNL     1      42.379 -12.726   3.685  1.00  0.00     0.124 C 
BRANCH  29  30
HETATM   30  C   UNL     1      43.290 -13.754   4.351  1.00  0.00     0.047 C 
BRANCH  30  31
HETATM   31  C   UNL     1      43.391 -13.716   5.876  1.00  0.00     0.236 C 
BRANCH  31  32
HETATM   32  N   UNL     1      42.834 -14.933   6.561  1.00  0.00    -0.067 N 
HETATM   33  H   UNL     1      42.257 -14.578   7.355  1.00  0.00     0.280 HD
HETATM   34  C   UNL     1      41.977 -15.840   5.698  1.00  0.00     0.261 C 
HETATM   35  C   UNL     1      41.454 -17.010   6.540  1.00  0.00     0.195 C 
HETATM   36  O   UNL     1      42.535 -17.746   7.125  1.00  0.00    -0.388 OA
HETATM   37  C   UNL     1      43.312 -16.921   8.001  1.00  0.00     0.195 C 
HETATM   38  C   UNL     1      43.934 -15.747   7.237  1.00  0.00     0.261 C 
ENDBRANCH  31  32
ENDBRANCH  30  31
ENDBRANCH  29  30
ENDBRANCH  26  29
ENDBRANCH  24  25
ENDBRANCH   1  24
TORSDOF 11
ENDMDL
MODEL 4
REMARK VINA RESULT:      -8.4      4.129      7.846
REMARK  11 active torsions:
REMARK  status: ('A' for Active; 'I' for Inactive)
REMARK    1  A    between atoms: O_2  and  C_3 
REMARK    2  A    between atoms: C_6  and  C_7 
REMARK    3  A    between atoms: C_7  and  S_8 
REMARK    4  A    between atoms: C_7  and  C_22 
REMARK    5  A    between atoms: S_8  and  C_9 
REMARK    6  A    between atoms: C_12  and  C_13 
REMARK    7  A    between atoms: C_22  and  C_23 
REMARK       I    between atoms: C_23  and  N_24 
REMARK    8  A    between atoms: N_24  and  C_25 
REMARK    9  A    between atoms: C_25  and  C_26 
REMARK   10  A    between atoms: C_26  and  C_27 
REMARK   11  A    between atoms: C_27  and  N_28 
ROOT
HETATM    1  C   UNL     1      41.129 -14.152   2.906  1.00  0.00     0.097 C 
ENDROOT
BRANCH   1   2
HETATM    2  C   UNL     1      41.546 -14.804   4.219  1.00  0.00    -0.043 A 
HETATM    3  C   UNL     1      40.618 -15.431   5.066  1.00  0.00     0.011 A 
HETATM    4  C   UNL     1      41.043 -16.086   6.224  1.00  0.00     0.037 A 
HETATM    5  C   UNL     1      42.399 -16.159   6.533  1.00  0.00     0.068 A 
HETATM    6  C   UNL     1      43.330 -15.517   5.721  1.00  0.00     0.037 A 
HETATM    7  C   UNL     1      42.907 -14.846   4.571  1.00  0.00     0.011 A 
BRANCH   5   8
HETATM    8  O   UNL     1      42.727 -16.840   7.671  1.00  0.00    -0.356 OA
HETATM    9  C   UNL     1      43.290 -18.127   7.416  1.00  0.00     0.210 C 
ENDBRANCH   5   8
ENDBRANCH   1   2
BRANCH   1  10
HETATM   10  S   UNL     1      40.507 -15.400   1.697  1.00  0.00    -0.080 SA
BRANCH  10  11
HETATM   11  C   UNL     1      41.784 -16.538   1.572  1.00  0.00     0.190 A 
HETATM   12  N   UNL     1      42.627 -16.681   0.584  1.00  0.00    -0.122 NA
HETATM   13  N   UNL     1      43.447 -17.734   0.894  1.00  0.00    -0.129 NA
HETATM   14  C   UNL     1      43.057 -18.251   2.050  1.00  0.00     0.162 A 
HETATM   15  N   UNL     1      41.992 -17.508   2.504  1.00  0.00    -0.317 N 
HETATM   16  H   UNL     1      41.477 -17.634   3.362  1.00  0.00     0.169 HD
BRANCH  14  17
HETATM   17  C   UNL     1      43.655 -19.399   2.731  1.00  0.00     0.012 A 
HETATM   18  C   UNL     1      44.153 -19.240   4.035  1.00  0.00     0.017 A 
HETATM   19  C   UNL     1      44.744 -20.306   4.719  1.00  0.00     0.025 A 
HETATM   20  C   UNL     1      44.850 -21.548   4.101  1.00  0.00     0.034 A 
HETATM   21 CL   UNL     1      45.584 -22.860   4.933  1.00  0.00    -0.084 Cl
HETATM   22  C   UNL     1      44.366 -21.729   2.807  1.00  0.00     0.025 A 
HETATM   23  C   UNL     1      43.770 -20.661   2.125  1.00  0.00     0.017 A 
ENDBRANCH  14  17
ENDBRANCH  10  11
ENDBRANCH   1  10
BRANCH   1  24
HETATM   24  C   UNL     1      42.212 -13.173   2.440  1.00  0.00     0.123 C 
BRANCH  24  25
HETATM   25  C   UNL     1      41.788 -12.349   1.247  1.00  0.00     0.219 C 
HETATM   26  N   UNL     1      40.487 -11.913   1.286  1.00  0.00    -0.361 N 
HETATM   27  H   UNL     1      40.013 -11.921   2.193  1.00  0.00     0.162 HD
HETATM   28  O   UNL     1      42.532 -12.096   0.299  1.00  0.00    -0.274 OA
BRANCH  26  29
HETATM   29  C   UNL     1      39.827 -11.251   0.187  1.00  0.00     0.124 C 
BRANCH  29  30
HETATM   30  C   UNL     1      39.593 -12.139  -1.031  1.00  0.00     0.047 C 
BRANCH  30  31
HETATM   31  C   UNL     1      38.599 -13.291  -0.877  1.00  0.00     0.236 C 
BRANCH  31  32
HETATM   32  N   UNL     1      38.853 -14.452  -1.799  1.00  0.00    -0.067 N 
HETATM   33  H   UNL     1      38.646 -15.311  -1.244  1.00  0.00     0.280 HD
HETATM   34  C   UNL     1      38.025 -14.476  -3.069  1.00  0.00     0.261 C 
HETATM   35  C   UNL     1      38.366 -15.729  -3.884  1.00  0.00     0.195 C 
HETATM   36  O   UNL     1      39.763 -15.776  -4.194  1.00  0.00    -0.388 OA
HETATM   37  C   UNL     1      40.559 -15.827  -3.003  1.00  0.00     0.195 C 
HETATM   38  C   UNL     1      40.334 -14.579  -2.142  1.00  0.00     0.261 C 
ENDBRANCH  31  32
ENDBRANCH  30  31
ENDBRANCH  29  30
ENDBRANCH  26  29
ENDBRANCH  24  25
ENDBRANCH   1  24
TORSDOF 11
ENDMDL
MODEL 5
REMARK VINA RESULT:      -8.3      3.776      8.320
REMARK  11 active torsions:
REMARK  status: ('A' for Active; 'I' for Inactive)
REMARK    1  A    between atoms: O_2  and  C_3 
REMARK    2  A    between atoms: C_6  and  C_7 
REMARK    3  A    between atoms: C_7  and  S_8 
REMARK    4  A    between atoms: C_7  and  C_22 
REMARK    5  A    between atoms: S_8  and  C_9 
REMARK    6  A    between atoms: C_12  and  C_13 
REMARK    7  A    between atoms: C_22  and  C_23 
REMARK       I    between atoms: C_23  and  N_24 
REMARK    8  A    between atoms: N_24  and  C_25 
REMARK    9  A    between atoms: C_25  and  C_26 
REMARK   10  A    between atoms: C_26  and  C_27 
REMARK   11  A    between atoms: C_27  and  N_28 
ROOT
HETATM    1  C   UNL     1      43.441 -16.867   5.323  1.00  0.00     0.097 C 
ENDROOT
BRANCH   1   2
HETATM    2  C   UNL     1      43.764 -18.131   4.536  1.00  0.00    -0.043 A 
HETATM    3  C   UNL     1      43.371 -18.295   3.198  1.00  0.00     0.011 A 
HETATM    4  C   UNL     1      43.750 -19.433   2.481  1.00  0.00     0.037 A 
HETATM    5  C   UNL     1      44.555 -20.401   3.074  1.00  0.00     0.068 A 
HETATM    6  C   UNL     1      44.928 -20.271   4.409  1.00  0.00     0.037 A 
HETATM    7  C   UNL     1      44.536 -19.142   5.134  1.00  0.00     0.011 A 
BRANCH   5   8
HETATM    8  O   UNL     1      44.897 -21.469   2.292  1.00  0.00    -0.356 OA
HETATM    9  C   UNL     1      43.835 -21.916   1.451  1.00  0.00     0.210 C 
ENDBRANCH   5   8
ENDBRANCH   1   2
BRANCH   1  10
HETATM   10  S   UNL     1      44.476 -16.733   6.845  1.00  0.00    -0.080 SA
BRANCH  10  11
HETATM   11  C   UNL     1      44.629 -15.044   7.102  1.00  0.00     0.190 A 
HETATM   12  N   UNL     1      45.279 -14.184   6.362  1.00  0.00    -0.122 NA
HETATM   13  N   UNL     1      45.165 -12.958   6.964  1.00  0.00    -0.129 NA
HETATM   14  C   UNL     1      44.486 -13.100   8.093  1.00  0.00     0.162 A 
HETATM   15  N   UNL     1      44.135 -14.425   8.208  1.00  0.00    -0.317 N 
HETATM   16  H   UNL     1      43.601 -14.857   8.948  1.00  0.00     0.169 HD
BRANCH  14  17
HETATM   17  C   UNL     1      44.157 -12.039   9.045  1.00  0.00     0.012 A 
HETATM   18  C   UNL     1      44.942 -11.886  10.200  1.00  0.00     0.017 A 
HETATM   19  C   UNL     1      44.656 -10.895  11.143  1.00  0.00     0.025 A 
HETATM   20  C   UNL     1      43.574 -10.044  10.943  1.00  0.00     0.034 A 
HETATM   21 CL   UNL     1      43.212  -8.830  12.104  1.00  0.00    -0.084 Cl
HETATM   22  C   UNL     1      42.780 -10.178   9.806  1.00  0.00     0.025 A 
HETATM   23  C   UNL     1      43.069 -11.169   8.860  1.00  0.00     0.017 A 
ENDBRANCH  14  17
ENDBRANCH  10  11
ENDBRANCH   1  10
BRANCH   1  24
HETATM   24  C   UNL     1      41.923 -16.713   5.467  1.00  0.00     0.123 C 
BRANCH  24  25
HETATM   25  C   UNL     1      41.456 -15.287   5.296  1.00  0.00     0.219 C 
HETATM   26  N   UNL     1      42.370 -14.452   4.704  1.00  0.00    -0.361 N 
HETATM   27  H   UNL     1      43.138 -14.885   4.184  1.00  0.00     0.162 HD
HETATM   28  O   UNL     1      40.354 -14.885   5.671  1.00  0.00    -0.274 OA
BRANCH  26  29
HETATM   29  C   UNL     1      42.200 -13.024   4.588  1.00  0.00     0.124 C 
BRANCH  29  30
HETATM   30  C   UNL     1      41.591 -12.571   3.264  1.00  0.00     0.047 C 
BRANCH  30  31
HETATM   31  C   UNL     1      42.325 -12.970   1.983  1.00  0.00     0.236 C 
BRANCH  31  32
HETATM   32  N   UNL     1      41.591 -13.978   1.142  1.00  0.00    -0.067 N 
HETATM   33  H   UNL     1      40.633 -14.051   1.549  1.00  0.00     0.280 HD
HETATM   34  C   UNL     1      41.473 -13.644  -0.333  1.00  0.00     0.261 C 
HETATM   35  C   UNL     1      40.673 -14.739  -1.048  1.00  0.00     0.195 C 
HETATM   36  O   UNL     1      41.286 -16.021  -0.871  1.00  0.00    -0.388 OA
HETATM   37  C   UNL     1      41.339 -16.385   0.514  1.00  0.00     0.195 C 
HETATM   38  C   UNL     1      42.175 -15.378   1.312  1.00  0.00     0.261 C 
ENDBRANCH  31  32
ENDBRANCH  30  31
ENDBRANCH  29  30
ENDBRANCH  26  29
ENDBRANCH  24  25
ENDBRANCH   1  24
TORSDOF 11
ENDMDL
MODEL 6
REMARK VINA RESULT:      -8.3      3.979      9.235
REMARK  11 active torsions:
REMARK  status: ('A' for Active; 'I' for Inactive)
REMARK    1  A    between atoms: O_2  and  C_3 
REMARK    2  A    between atoms: C_6  and  C_7 
REMARK    3  A    between atoms: C_7  and  S_8 
REMARK    4  A    between atoms: C_7  and  C_22 
REMARK    5  A    between atoms: S_8  and  C_9 
REMARK    6  A    between atoms: C_12  and  C_13 
REMARK    7  A    between atoms: C_22  and  C_23 
REMARK       I    between atoms: C_23  and  N_24 
REMARK    8  A    between atoms: N_24  and  C_25 
REMARK    9  A    between atoms: C_25  and  C_26 
REMARK   10  A    between atoms: C_26  and  C_27 
REMARK   11  A    between atoms: C_27  and  N_28 
ROOT
HETATM    1  C   UNL     1      41.026 -13.283   4.762  1.00  0.00     0.097 C 
ENDROOT
BRANCH   1   2
HETATM    2  C   UNL     1      41.527 -14.535   5.472  1.00  0.00    -0.043 A 
HETATM    3  C   UNL     1      42.840 -14.639   5.960  1.00  0.00     0.011 A 
HETATM    4  C   UNL     1      43.245 -15.769   6.674  1.00  0.00     0.037 A 
HETATM    5  C   UNL     1      42.338 -16.792   6.945  1.00  0.00     0.068 A 
HETATM    6  C   UNL     1      41.042 -16.720   6.443  1.00  0.00     0.037 A 
HETATM    7  C   UNL     1      40.639 -15.598   5.713  1.00  0.00     0.011 A 
BRANCH   5   8
HETATM    8  O   UNL     1      42.813 -17.848   7.671  1.00  0.00    -0.356 OA
HETATM    9  C   UNL     1      44.200 -18.106   7.451  1.00  0.00     0.210 C 
ENDBRANCH   5   8
ENDBRANCH   1   2
BRANCH   1  10
HETATM   10  S   UNL     1      39.769 -12.387   5.773  1.00  0.00    -0.080 SA
BRANCH  10  11
HETATM   11  C   UNL     1      40.689 -11.279   6.703  1.00  0.00     0.190 A 
HETATM   12  N   UNL     1      41.362 -10.246   6.270  1.00  0.00    -0.122 NA
HETATM   13  N   UNL     1      41.973  -9.671   7.354  1.00  0.00    -0.129 NA
HETATM   14  C   UNL     1      41.700 -10.397   8.430  1.00  0.00     0.162 A 
HETATM   15  N   UNL     1      40.885 -11.434   8.041  1.00  0.00    -0.317 N 
HETATM   16  H   UNL     1      40.489 -12.156   8.625  1.00  0.00     0.169 HD
BRANCH  14  17
HETATM   17  C   UNL     1      42.172 -10.139   9.791  1.00  0.00     0.012 A 
HETATM   18  C   UNL     1      41.501  -9.190  10.580  1.00  0.00     0.017 A 
HETATM   19  C   UNL     1      41.924  -8.902  11.881  1.00  0.00     0.025 A 
HETATM   20  C   UNL     1      43.031  -9.559  12.407  1.00  0.00     0.034 A 
HETATM   21 CL   UNL     1      43.563  -9.202  14.002  1.00  0.00    -0.084 Cl
HETATM   22  C   UNL     1      43.715 -10.502  11.641  1.00  0.00     0.025 A 
HETATM   23  C   UNL     1      43.287 -10.792  10.340  1.00  0.00     0.017 A 
ENDBRANCH  14  17
ENDBRANCH  10  11
ENDBRANCH   1  10
BRANCH   1  24
HETATM   24  C   UNL     1      40.681 -13.611   3.305  1.00  0.00     0.123 C 
BRANCH  24  25
HETATM   25  C   UNL     1      41.874 -14.083   2.509  1.00  0.00     0.219 C 
HETATM   26  N   UNL     1      41.764 -15.358   2.014  1.00  0.00    -0.361 N 
HETATM   27  H   UNL     1      40.827 -15.768   1.966  1.00  0.00     0.162 HD
HETATM   28  O   UNL     1      42.881 -13.398   2.326  1.00  0.00    -0.274 OA
BRANCH  26  29
HETATM   29  C   UNL     1      42.841 -16.066   1.365  1.00  0.00     0.124 C 
BRANCH  29  30
HETATM   30  C   UNL     1      43.731 -16.861   2.316  1.00  0.00     0.047 C 
BRANCH  30  31
HETATM   31  C   UNL     1      43.035 -17.699   3.389  1.00  0.00     0.236 C 
BRANCH  31  32
HETATM   32  N   UNL     1      43.295 -19.176   3.283  1.00  0.00    -0.067 N 
HETATM   33  H   UNL     1      42.506 -19.644   3.782  1.00  0.00     0.280 HD
HETATM   34  C   UNL     1      43.382 -19.730   1.874  1.00  0.00     0.261 C 
HETATM   35  C   UNL     1      43.612 -21.245   1.928  1.00  0.00     0.195 C 
HETATM   36  O   UNL     1      44.798 -21.559   2.666  1.00  0.00    -0.388 OA
HETATM   37  C   UNL     1      44.702 -21.106   4.022  1.00  0.00     0.195 C 
HETATM   38  C   UNL     1      44.531 -19.584   4.079  1.00  0.00     0.261 C 
ENDBRANCH  31  32
ENDBRANCH  30  31
ENDBRANCH  29  30
ENDBRANCH  26  29
ENDBRANCH  24  25
ENDBRANCH   1  24
TORSDOF 11
ENDMDL
MODEL 7
REMARK VINA RESULT:      -8.3      2.914      8.294
REMARK  11 active torsions:
REMARK  status: ('A' for Active; 'I' for Inactive)
REMARK    1  A    between atoms: O_2  and  C_3 
REMARK    2  A    between atoms: C_6  and  C_7 
REMARK    3  A    between atoms: C_7  and  S_8 
REMARK    4  A    between atoms: C_7  and  C_22 
REMARK    5  A    between atoms: S_8  and  C_9 
REMARK    6  A    between atoms: C_12  and  C_13 
REMARK    7  A    between atoms: C_22  and  C_23 
REMARK       I    between atoms: C_23  and  N_24 
REMARK    8  A    between atoms: N_24  and  C_25 
REMARK    9  A    between atoms: C_25  and  C_26 
REMARK   10  A    between atoms: C_26  and  C_27 
REMARK   11  A    between atoms: C_27  and  N_28 
ROOT
HETATM    1  C   UNL     1      43.237 -11.105  10.391  1.00  0.00     0.097 C 
ENDROOT
BRANCH   1   2
HETATM    2  C   UNL     1      42.783 -10.681  11.782  1.00  0.00    -0.043 A 
HETATM    3  C   UNL     1      41.574 -11.129  12.340  1.00  0.00     0.011 A 
HETATM    4  C   UNL     1      41.224 -10.783  13.647  1.00  0.00     0.037 A 
HETATM    5  C   UNL     1      42.088 -10.020  14.428  1.00  0.00     0.068 A 
HETATM    6  C   UNL     1      43.276  -9.541  13.882  1.00  0.00     0.037 A 
HETATM    7  C   UNL     1      43.622  -9.871  12.568  1.00  0.00     0.011 A 
BRANCH   5   8
HETATM    8  O   UNL     1      41.677  -9.750  15.703  1.00  0.00    -0.356 OA
HETATM    9  C   UNL     1      40.837  -8.599  15.793  1.00  0.00     0.210 C 
ENDBRANCH   5   8
ENDBRANCH   1   2
BRANCH   1  10
HETATM   10  S   UNL     1      45.057 -11.400  10.332  1.00  0.00    -0.080 SA
BRANCH  10  11
HETATM   11  C   UNL     1      45.281 -12.376   8.941  1.00  0.00     0.190 A 
HETATM   12  N   UNL     1      46.268 -12.325   8.085  1.00  0.00    -0.122 NA
HETATM   13  N   UNL     1      46.017 -13.259   7.114  1.00  0.00    -0.129 NA
HETATM   14  C   UNL     1      44.851 -13.833   7.368  1.00  0.00     0.162 A 
HETATM   15  N   UNL     1      44.356 -13.284   8.528  1.00  0.00    -0.317 N 
HETATM   16  H   UNL     1      43.494 -13.516   8.998  1.00  0.00     0.169 HD
BRANCH  14  17
HETATM   17  C   UNL     1      44.205 -14.874   6.567  1.00  0.00     0.012 A 
HETATM   18  C   UNL     1      44.257 -16.208   7.004  1.00  0.00     0.017 A 
HETATM   19  C   UNL     1      43.666 -17.236   6.265  1.00  0.00     0.025 A 
HETATM   20  C   UNL     1      43.017 -16.940   5.071  1.00  0.00     0.034 A 
HETATM   21 CL   UNL     1      42.296 -18.201   4.151  1.00  0.00    -0.084 Cl
HETATM   22  C   UNL     1      42.954 -15.624   4.615  1.00  0.00     0.025 A 
HETATM   23  C   UNL     1      43.544 -14.595   5.359  1.00  0.00     0.017 A 
ENDBRANCH  14  17
ENDBRANCH  10  11
ENDBRANCH   1  10
BRANCH   1  24
HETATM   24  C   UNL     1      42.621 -10.182   9.334  1.00  0.00     0.123 C 
BRANCH  24  25
HETATM   25  C   UNL     1      41.517 -10.845   8.544  1.00  0.00     0.219 C 
HETATM   26  N   UNL     1      41.913 -11.381   7.345  1.00  0.00    -0.361 N 
HETATM   27  H   UNL     1      42.914 -11.548   7.210  1.00  0.00     0.162 HD
HETATM   28  O   UNL     1      40.346 -10.891   8.924  1.00  0.00    -0.274 OA
BRANCH  26  29
HETATM   29  C   UNL     1      41.003 -11.917   6.363  1.00  0.00     0.124 C 
BRANCH  29  30
HETATM   30  C   UNL     1      41.404 -11.637   4.917  1.00  0.00     0.047 C 
BRANCH  30  31
HETATM   31  C   UNL     1      40.286 -11.606   3.874  1.00  0.00     0.236 C 
BRANCH  31  32
HETATM   32  N   UNL     1      40.389 -12.684   2.830  1.00  0.00    -0.067 N 
HETATM   33  H   UNL     1      39.766 -12.386   2.047  1.00  0.00     0.280 HD
HETATM   34  C   UNL     1      41.779 -12.940   2.282  1.00  0.00     0.261 C 
HETATM   35  C   UNL     1      41.718 -14.031   1.207  1.00  0.00     0.195 C 
HETATM   36  O   UNL     1      41.154 -15.238   1.732  1.00  0.00    -0.388 OA
HETATM   37  C   UNL     1      39.812 -15.030   2.189  1.00  0.00     0.195 C 
HETATM   38  C   UNL     1      39.773 -13.993   3.315  1.00  0.00     0.261 C 
ENDBRANCH  31  32
ENDBRANCH  30  31
ENDBRANCH  29  30
ENDBRANCH  26  29
ENDBRANCH  24  25
ENDBRANCH   1  24
TORSDOF 11
ENDMDL
MODEL 8
REMARK VINA RESULT:      -8.1      3.560      5.444
REMARK  11 active torsions:
REMARK  status: ('A' for Active; 'I' for Inactive)
REMARK    1  A    between atoms: O_2  and  C_3 
REMARK    2  A    between atoms: C_6  and  C_7 
REMARK    3  A    between atoms: C_7  and  S_8 
REMARK    4  A    between atoms: C_7  and  C_22 
REMARK    5  A    between atoms: S_8  and  C_9 
REMARK    6  A    between atoms: C_12  and  C_13 
REMARK    7  A    between atoms: C_22  and  C_23 
REMARK       I    between atoms: C_23  and  N_24 
REMARK    8  A    between atoms: N_24  and  C_25 
REMARK    9  A    between atoms: C_25  and  C_26 
REMARK   10  A    between atoms: C_26  and  C_27 
REMARK   11  A    between atoms: C_27  and  N_28 
ROOT
HETATM    1  C   UNL     1      41.665 -13.270  -0.708  1.00  0.00     0.097 C 
ENDROOT
BRANCH   1   2
HETATM    2  C   UNL     1      42.021 -12.297  -1.825  1.00  0.00    -0.043 A 
HETATM    3  C   UNL     1      41.682 -12.546  -3.165  1.00  0.00     0.011 A 
HETATM    4  C   UNL     1      41.954 -11.598  -4.155  1.00  0.00     0.037 A 
HETATM    5  C   UNL     1      42.532 -10.377  -3.818  1.00  0.00     0.068 A 
HETATM    6  C   UNL     1      42.903 -10.125  -2.500  1.00  0.00     0.037 A 
HETATM    7  C   UNL     1      42.648 -11.078  -1.510  1.00  0.00     0.011 A 
BRANCH   5   8
HETATM    8  O   UNL     1      42.740  -9.500  -4.845  1.00  0.00    -0.356 OA
HETATM    9  C   UNL     1      41.956  -9.790  -6.002  1.00  0.00     0.210 C 
ENDBRANCH   5   8
ENDBRANCH   1   2
BRANCH   1  10
HETATM   10  S   UNL     1      41.265 -14.945  -1.369  1.00  0.00    -0.080 SA
BRANCH  10  11
HETATM   11  C   UNL     1      41.245 -15.952   0.019  1.00  0.00     0.190 A 
HETATM   12  N   UNL     1      40.312 -16.028   0.932  1.00  0.00    -0.122 NA
HETATM   13  N   UNL     1      40.732 -16.931   1.872  1.00  0.00    -0.129 NA
HETATM   14  C   UNL     1      41.942 -17.358   1.542  1.00  0.00     0.162 A 
HETATM   15  N   UNL     1      42.297 -16.744   0.363  1.00  0.00    -0.317 N 
HETATM   16  H   UNL     1      43.151 -16.866  -0.160  1.00  0.00     0.169 HD
BRANCH  14  17
HETATM   17  C   UNL     1      42.756 -18.318   2.289  1.00  0.00     0.012 A 
HETATM   18  C   UNL     1      42.999 -18.095   3.654  1.00  0.00     0.017 A 
HETATM   19  C   UNL     1      43.781 -18.978   4.404  1.00  0.00     0.025 A 
HETATM   20  C   UNL     1      44.337 -20.096   3.791  1.00  0.00     0.034 A 
HETATM   21 CL   UNL     1      45.308 -21.181   4.705  1.00  0.00    -0.084 Cl
HETATM   22  C   UNL     1      44.112 -20.337   2.437  1.00  0.00     0.025 A 
HETATM   23  C   UNL     1      43.325 -19.453   1.689  1.00  0.00     0.017 A 
ENDBRANCH  14  17
ENDBRANCH  10  11
ENDBRANCH   1  10
BRANCH   1  24
HETATM   24  C   UNL     1      40.668 -12.618   0.257  1.00  0.00     0.123 C 
BRANCH  24  25
HETATM   25  C   UNL     1      41.063 -12.773   1.706  1.00  0.00     0.219 C 
HETATM   26  N   UNL     1      40.112 -13.363   2.500  1.00  0.00    -0.361 N 
HETATM   27  H   UNL     1      39.370 -13.892   2.034  1.00  0.00     0.162 HD
HETATM   28  O   UNL     1      42.142 -12.387   2.159  1.00  0.00    -0.274 OA
BRANCH  26  29
HETATM   29  C   UNL     1      40.211 -13.465   3.935  1.00  0.00     0.124 C 
BRANCH  29  30
HETATM   30  C   UNL     1      41.003 -14.674   4.425  1.00  0.00     0.047 C 
BRANCH  30  31
HETATM   31  C   UNL     1      40.673 -15.208   5.819  1.00  0.00     0.236 C 
BRANCH  31  32
HETATM   32  N   UNL     1      41.878 -15.592   6.633  1.00  0.00    -0.067 N 
HETATM   33  H   UNL     1      41.837 -15.012   7.500  1.00  0.00     0.280 HD
HETATM   34  C   UNL     1      41.969 -17.054   7.025  1.00  0.00     0.261 C 
HETATM   35  C   UNL     1      43.223 -17.283   7.878  1.00  0.00     0.195 C 
HETATM   36  O   UNL     1      44.402 -16.876   7.176  1.00  0.00    -0.388 OA
HETATM   37  C   UNL     1      44.365 -15.479   6.861  1.00  0.00     0.195 C 
HETATM   38  C   UNL     1      43.173 -15.155   5.955  1.00  0.00     0.261 C 
ENDBRANCH  31  32
ENDBRANCH  30  31
ENDBRANCH  29  30
ENDBRANCH  26  29
ENDBRANCH  24  25
ENDBRANCH   1  24
TORSDOF 11
ENDMDL
MODEL 9
REMARK VINA RESULT:      -8.1      2.560      4.140
REMARK  11 active torsions:
REMARK  status: ('A' for Active; 'I' for Inactive)
REMARK    1  A    between atoms: O_2  and  C_3 
REMARK    2  A    between atoms: C_6  and  C_7 
REMARK    3  A    between atoms: C_7  and  S_8 
REMARK    4  A    between atoms: C_7  and  C_22 
REMARK    5  A    between atoms: S_8  and  C_9 
REMARK    6  A    between atoms: C_12  and  C_13 
REMARK    7  A    between atoms: C_22  and  C_23 
REMARK       I    between atoms: C_23  and  N_24 
REMARK    8  A    between atoms: N_24  and  C_25 
REMARK    9  A    between atoms: C_25  and  C_26 
REMARK   10  A    between atoms: C_26  and  C_27 
REMARK   11  A    between atoms: C_27  and  N_28 
ROOT
HETATM    1  C   UNL     1      42.449 -13.216   4.635  1.00  0.00     0.097 C 
ENDROOT
BRANCH   1   2
HETATM    2  C   UNL     1      41.224 -12.320   4.773  1.00  0.00    -0.043 A 
HETATM    3  C   UNL     1      41.256 -11.122   5.506  1.00  0.00     0.011 A 
HETATM    4  C   UNL     1      40.139 -10.286   5.548  1.00  0.00     0.037 A 
HETATM    5  C   UNL     1      38.989 -10.612   4.832  1.00  0.00     0.068 A 
HETATM    6  C   UNL     1      38.928 -11.809   4.126  1.00  0.00     0.037 A 
HETATM    7  C   UNL     1      40.039 -12.658   4.095  1.00  0.00     0.011 A 
BRANCH   5   8
HETATM    8  O   UNL     1      37.953  -9.724   4.911  1.00  0.00    -0.356 OA
HETATM    9  C   UNL     1      37.440  -9.340   3.636  1.00  0.00     0.210 C 
ENDBRANCH   5   8
ENDBRANCH   1   2
BRANCH   1  10
HETATM   10  S   UNL     1      42.772 -13.656   2.872  1.00  0.00    -0.080 SA
BRANCH  10  11
HETATM   11  C   UNL     1      42.609 -15.363   2.828  1.00  0.00     0.190 A 
HETATM   12  N   UNL     1      41.646 -16.055   2.279  1.00  0.00    -0.122 NA
HETATM   13  N   UNL     1      41.905 -17.379   2.519  1.00  0.00    -0.129 NA
HETATM   14  C   UNL     1      43.002 -17.471   3.257  1.00  0.00     0.162 A 
HETATM   15  N   UNL     1      43.470 -16.196   3.473  1.00  0.00    -0.317 N 
HETATM   16  H   UNL     1      44.296 -15.924   3.986  1.00  0.00     0.169 HD
BRANCH  14  17
HETATM   17  C   UNL     1      43.614 -18.706   3.747  1.00  0.00     0.012 A 
HETATM   18  C   UNL     1      43.982 -19.702   2.826  1.00  0.00     0.017 A 
HETATM   19  C   UNL     1      44.558 -20.902   3.250  1.00  0.00     0.025 A 
HETATM   20  C   UNL     1      44.769 -21.124   4.607  1.00  0.00     0.034 A 
HETATM   21 CL   UNL     1      45.468 -22.603   5.136  1.00  0.00    -0.084 Cl
HETATM   22  C   UNL     1      44.410 -20.152   5.539  1.00  0.00     0.025 A 
HETATM   23  C   UNL     1      43.836 -18.948   5.112  1.00  0.00     0.017 A 
ENDBRANCH  14  17
ENDBRANCH  10  11
ENDBRANCH   1  10
BRANCH   1  24
HETATM   24  C   UNL     1      42.387 -14.351   5.663  1.00  0.00     0.123 C 
BRANCH  24  25
HETATM   25  C   UNL     1      43.633 -14.448   6.510  1.00  0.00     0.219 C 
HETATM   26  N   UNL     1      43.861 -13.364   7.320  1.00  0.00    -0.361 N 
HETATM   27  H   UNL     1      43.072 -12.737   7.505  1.00  0.00     0.162 HD
HETATM   28  O   UNL     1      44.404 -15.407   6.475  1.00  0.00    -0.274 OA
BRANCH  26  29
HETATM   29  C   UNL     1      45.066 -13.172   8.090  1.00  0.00     0.124 C 
BRANCH  29  30
HETATM   30  C   UNL     1      45.037 -11.954   9.009  1.00  0.00     0.047 C 
BRANCH  30  31
HETATM   31  C   UNL     1      44.697 -12.196  10.480  1.00  0.00     0.236 C 
BRANCH  31  32
HETATM   32  N   UNL     1      43.262 -11.918  10.834  1.00  0.00    -0.067 N 
HETATM   33  H   UNL     1      42.731 -12.781  10.586  1.00  0.00     0.280 HD
HETATM   34  C   UNL     1      42.997 -11.580  12.289  1.00  0.00     0.261 C 
HETATM   35  C   UNL     1      41.494 -11.360  12.502  1.00  0.00     0.195 C 
HETATM   36  O   UNL     1      41.001 -10.323  11.647  1.00  0.00    -0.388 OA
HETATM   37  C   UNL     1      41.178 -10.659  10.266  1.00  0.00     0.195 C 
HETATM   38  C   UNL     1      42.663 -10.841   9.934  1.00  0.00     0.261 C 
ENDBRANCH  31  32
ENDBRANCH  30  31
ENDBRANCH  29  30
ENDBRANCH  26  29
ENDBRANCH  24  25
ENDBRANCH   1  24
TORSDOF 11
ENDMDL
MODEL 10
REMARK VINA RESULT:      -8.0      2.546      3.831
REMARK  11 active torsions:
REMARK  status: ('A' for Active; 'I' for Inactive)
REMARK    1  A    between atoms: O_2  and  C_3 
REMARK    2  A    between atoms: C_6  and  C_7 
REMARK    3  A    between atoms: C_7  and  S_8 
REMARK    4  A    between atoms: C_7  and  C_22 
REMARK    5  A    between atoms: S_8  and  C_9 
REMARK    6  A    between atoms: C_12  and  C_13 
REMARK    7  A    between atoms: C_22  and  C_23 
REMARK       I    between atoms: C_23  and  N_24 
REMARK    8  A    between atoms: N_24  and  C_25 
REMARK    9  A    between atoms: C_25  and  C_26 
REMARK   10  A    between atoms: C_26  and  C_27 
REMARK   11  A    between atoms: C_27  and  N_28 
ROOT
HETATM    1  C   UNL     1      39.952 -13.987   3.881  1.00  0.00     0.097 C 
ENDROOT
BRANCH   1   2
HETATM    2  C   UNL     1      40.963 -14.589   4.849  1.00  0.00    -0.043 A 
HETATM    3  C   UNL     1      40.657 -15.704   5.646  1.00  0.00     0.011 A 
HETATM    4  C   UNL     1      41.631 -16.280   6.466  1.00  0.00     0.037 A 
HETATM    5  C   UNL     1      42.929 -15.776   6.474  1.00  0.00     0.068 A 
HETATM    6  C   UNL     1      43.243 -14.653   5.715  1.00  0.00     0.037 A 
HETATM    7  C   UNL     1      42.266 -14.064   4.906  1.00  0.00     0.011 A 
BRANCH   5   8
HETATM    8  O   UNL     1      43.823 -16.415   7.287  1.00  0.00    -0.356 OA
HETATM    9  C   UNL     1      43.268 -17.548   7.955  1.00  0.00     0.210 C 
ENDBRANCH   5   8
ENDBRANCH   1   2
BRANCH   1  10
HETATM   10  S   UNL     1      39.782 -15.009   2.355  1.00  0.00    -0.080 SA
BRANCH  10  11
HETATM   11  C   UNL     1      41.264 -15.866   2.254  1.00  0.00     0.190 A 
HETATM   12  N   UNL     1      42.385 -15.453   1.723  1.00  0.00    -0.122 NA
HETATM   13  N   UNL     1      43.291 -16.476   1.832  1.00  0.00    -0.129 NA
HETATM   14  C   UNL     1      42.690 -17.519   2.387  1.00  0.00     0.162 A 
HETATM   15  N   UNL     1      41.391 -17.157   2.663  1.00  0.00    -0.317 N 
HETATM   16  H   UNL     1      40.677 -17.721   3.099  1.00  0.00     0.169 HD
BRANCH  14  17
HETATM   17  C   UNL     1      43.297 -18.820   2.667  1.00  0.00     0.012 A 
HETATM   18  C   UNL     1      43.097 -19.879   1.765  1.00  0.00     0.017 A 
HETATM   19  C   UNL     1      43.647 -21.142   1.999  1.00  0.00     0.025 A 
HETATM   20  C   UNL     1      44.402 -21.364   3.146  1.00  0.00     0.034 A 
HETATM   21 CL   UNL     1      45.072 -22.918   3.444  1.00  0.00    -0.084 Cl
HETATM   22  C   UNL     1      44.611 -20.330   4.057  1.00  0.00     0.025 A 
HETATM   23  C   UNL     1      44.063 -19.064   3.819  1.00  0.00     0.017 A 
ENDBRANCH  14  17
ENDBRANCH  10  11
ENDBRANCH   1  10
BRANCH   1  24
HETATM   24  C   UNL     1      40.213 -12.485   3.718  1.00  0.00     0.123 C 
BRANCH  24  25
HETATM   25  C   UNL     1      39.522 -11.649   4.769  1.00  0.00     0.219 C 
HETATM   26  N   UNL     1      40.367 -11.008   5.639  1.00  0.00    -0.361 N 
HETATM   27  H   UNL     1      41.346 -10.905   5.358  1.00  0.00     0.162 HD
HETATM   28  O   UNL     1      38.297 -11.556   4.863  1.00  0.00    -0.274 OA
BRANCH  26  29
HETATM   29  C   UNL     1      39.925 -10.291   6.810  1.00  0.00     0.124 C 
BRANCH  29  30
HETATM   30  C   UNL     1      40.222 -10.999   8.129  1.00  0.00     0.047 C 
BRANCH  30  31
HETATM   31  C   UNL     1      41.274 -10.367   9.041  1.00  0.00     0.236 C 
BRANCH  31  32
HETATM   32  N   UNL     1      41.415 -11.040  10.378  1.00  0.00    -0.067 N 
HETATM   33  H   UNL     1      41.354 -12.066  10.192  1.00  0.00     0.280 HD
HETATM   34  C   UNL     1      42.702 -10.753  11.127  1.00  0.00     0.261 C 
HETATM   35  C   UNL     1      42.716 -11.534  12.447  1.00  0.00     0.195 C 
HETATM   36  O   UNL     1      41.580 -11.202  13.252  1.00  0.00    -0.388 OA
HETATM   37  C   UNL     1      40.356 -11.535  12.588  1.00  0.00     0.195 C 
HETATM   38  C   UNL     1      40.215 -10.754  11.277  1.00  0.00     0.261 C 
ENDBRANCH  31  32
ENDBRANCH  30  31
ENDBRANCH  29  30
ENDBRANCH  26  29
ENDBRANCH  24  25
ENDBRANCH   1  24
TORSDOF 11
ENDMDL
