MODEL 1
REMARK VINA RESULT:      -7.6      0.000      0.000
REMARK  7 active torsions:
REMARK  status: ('A' for Active; 'I' for Inactive)
REMARK    1  A    between atoms: C_5  and  C_6 
REMARK    2  A    between atoms: C_6  and  C_7 
REMARK    3  A    between atoms: C_7  and  N_8 
REMARK       I    between atoms: N_8  and  C_9 
REMARK       I    between atoms: C_9  and  N_10 
REMARK    4  A    between atoms: N_10  and  N_11 
REMARK       I    between atoms: N_11  and  C_12 
REMARK    5  A    between atoms: C_12  and  C_13 
REMARK    6  A    between atoms: C_13  and  O_14 
REMARK    7  A    between atoms: O_14  and  C_15 
ROOT
HETATM    1  N   UNL     1      40.955 -11.449   7.384  1.00  0.00    -0.341 N 
HETATM    2  C   UNL     1      39.639 -11.774   7.562  1.00  0.00     0.334 C 
HETATM    3  N   UNL     1      39.245 -12.972   7.011  1.00  0.00    -0.249 N 
HETATM    4  O   UNL     1      38.830 -11.069   8.156  1.00  0.00    -0.246 OA
HETATM    5  H   UNL     1      41.297 -11.811   6.498  1.00  0.00     0.164 HD
HETATM    6  H   UNL     1      38.274 -13.213   7.181  1.00  0.00     0.192 HD
ENDROOT
BRANCH   3   7
HETATM    7  N   UNL     1      40.126 -14.024   6.676  1.00  0.00    -0.264 N 
HETATM    8  C   UNL     1      40.186 -14.500   5.374  1.00  0.00     0.260 C 
HETATM    9  O   UNL     1      39.729 -13.895   4.404  1.00  0.00    -0.269 OA
HETATM   10  H   UNL     1      40.370 -14.655   7.435  1.00  0.00     0.190 HD
BRANCH   8  11
HETATM   11  C   UNL     1      40.965 -15.798   5.233  1.00  0.00     0.280 C 
BRANCH  11  12
HETATM   12  O   UNL     1      41.472 -15.873   3.903  1.00  0.00    -0.342 OA
BRANCH  12  13
HETATM   13  C   UNL     1      42.169 -17.026   3.654  1.00  0.00     0.069 A 
HETATM   14  C   UNL     1      42.942 -17.683   4.614  1.00  0.00     0.038 A 
HETATM   15  C   UNL     1      43.617 -18.860   4.277  1.00  0.00     0.022 A 
HETATM   16  C   UNL     1      43.507 -19.378   2.988  1.00  0.00     0.011 A 
HETATM   17 BR   UNL     1      44.428 -20.965   2.533  1.00  0.00    -0.051 Br
HETATM   18  C   UNL     1      42.718 -18.737   2.034  1.00  0.00     0.022 A 
HETATM   19  C   UNL     1      42.041 -17.564   2.373  1.00  0.00     0.038 A 
ENDBRANCH  12  13
ENDBRANCH  11  12
ENDBRANCH   8  11
ENDBRANCH   3   7
BRANCH   1  20
HETATM   20  C   UNL     1      41.448 -10.124   7.719  1.00  0.00     0.130 C 
BRANCH  20  21
HETATM   21  C   UNL     1      41.740  -9.930   9.207  1.00  0.00     0.079 C 
BRANCH  21  22
HETATM   22  C   UNL     1      42.867 -10.805   9.653  1.00  0.00     0.043 A 
HETATM   23  C   UNL     1      43.046 -11.339  10.915  1.00  0.00     0.078 A 
HETATM   24  S   UNL     1      44.489 -12.260  10.965  1.00  0.00    -0.085 SA
HETATM   25  C   UNL     1      44.778 -11.875   9.316  1.00  0.00     0.071 A 
HETATM   26  C   UNL     1      45.986 -12.398   8.622  1.00  0.00     0.078 C 
HETATM   27  N   UNL     1      43.867 -11.117   8.744  1.00  0.00    -0.251 NA
ENDBRANCH  21  22
ENDBRANCH  20  21
ENDBRANCH   1  20
TORSDOF 7
ENDMDL
MODEL 2
REMARK VINA RESULT:      -7.6      2.905      3.924
REMARK  7 active torsions:
REMARK  status: ('A' for Active; 'I' for Inactive)
REMARK    1  A    between atoms: C_5  and  C_6 
REMARK    2  A    between atoms: C_6  and  C_7 
REMARK    3  A    between atoms: C_7  and  N_8 
REMARK       I    between atoms: N_8  and  C_9 
REMARK       I    between atoms: C_9  and  N_10 
REMARK    4  A    between atoms: N_10  and  N_11 
REMARK       I    between atoms: N_11  and  C_12 
REMARK    5  A    between atoms: C_12  and  C_13 
REMARK    6  A    between atoms: C_13  and  O_14 
REMARK    7  A    between atoms: O_14  and  C_15 
ROOT
HETATM    1  N   UNL     1      43.854 -12.425   8.372  1.00  0.00    -0.341 N 
HETATM    2  C   UNL     1      45.103 -12.898   8.082  1.00  0.00     0.334 C 
HETATM    3  N   UNL     1      45.141 -14.036   7.309  1.00  0.00    -0.249 N 
HETATM    4  O   UNL     1      46.144 -12.380   8.473  1.00  0.00    -0.246 OA
HETATM    5  H   UNL     1      43.189 -13.190   8.447  1.00  0.00     0.164 HD
HETATM    6  H   UNL     1      46.075 -14.355   7.076  1.00  0.00     0.192 HD
ENDROOT
BRANCH   3   7
HETATM    7  N   UNL     1      44.081 -14.477   6.486  1.00  0.00    -0.264 N 
HETATM    8  C   UNL     1      43.525 -15.734   6.672  1.00  0.00     0.260 C 
HETATM    9  O   UNL     1      43.691 -16.411   7.686  1.00  0.00    -0.269 OA
HETATM   10  H   UNL     1      44.038 -14.060   5.559  1.00  0.00     0.190 HD
BRANCH   8  11
HETATM   11  C   UNL     1      42.597 -16.166   5.547  1.00  0.00     0.280 C 
BRANCH  11  12
HETATM   12  O   UNL     1      43.342 -16.177   4.331  1.00  0.00    -0.342 OA
BRANCH  12  13
HETATM   13  C   UNL     1      43.540 -17.437   3.830  1.00  0.00     0.069 A 
HETATM   14  C   UNL     1      44.119 -18.476   4.561  1.00  0.00     0.038 A 
HETATM   15  C   UNL     1      44.278 -19.735   3.974  1.00  0.00     0.022 A 
HETATM   16  C   UNL     1      43.848 -19.949   2.665  1.00  0.00     0.011 A 
HETATM   17 BR   UNL     1      44.073 -21.650   1.872  1.00  0.00    -0.051 Br
HETATM   18  C   UNL     1      43.250 -18.921   1.941  1.00  0.00     0.022 A 
HETATM   19  C   UNL     1      43.087 -17.665   2.530  1.00  0.00     0.038 A 
ENDBRANCH  12  13
ENDBRANCH  11  12
ENDBRANCH   8  11
ENDBRANCH   3   7
BRANCH   1  20
HETATM   20  C   UNL     1      43.666 -11.369   9.351  1.00  0.00     0.130 C 
BRANCH  20  21
HETATM   21  C   UNL     1      43.801 -11.836  10.800  1.00  0.00     0.079 C 
BRANCH  21  22
HETATM   22  C   UNL     1      42.702 -11.284  11.650  1.00  0.00     0.043 A 
HETATM   23  C   UNL     1      41.399 -11.045  11.258  1.00  0.00     0.078 A 
HETATM   24  S   UNL     1      40.503 -10.390  12.563  1.00  0.00    -0.085 SA
HETATM   25  C   UNL     1      41.908 -10.461  13.548  1.00  0.00     0.071 A 
HETATM   26  C   UNL     1      41.859 -10.005  14.963  1.00  0.00     0.078 C 
HETATM   27  N   UNL     1      42.984 -10.944  12.964  1.00  0.00    -0.251 NA
ENDBRANCH  21  22
ENDBRANCH  20  21
ENDBRANCH   1  20
TORSDOF 7
ENDMDL
MODEL 3
REMARK VINA RESULT:      -7.6      1.246      1.509
REMARK  7 active torsions:
REMARK  status: ('A' for Active; 'I' for Inactive)
REMARK    1  A    between atoms: C_5  and  C_6 
REMARK    2  A    between atoms: C_6  and  C_7 
REMARK    3  A    between atoms: C_7  and  N_8 
REMARK       I    between atoms: N_8  and  C_9 
REMARK       I    between atoms: C_9  and  N_10 
REMARK    4  A    between atoms: N_10  and  N_11 
REMARK       I    between atoms: N_11  and  C_12 
REMARK    5  A    between atoms: C_12  and  C_13 
REMARK    6  A    between atoms: C_13  and  O_14 
REMARK    7  A    between atoms: O_14  and  C_15 
ROOT
HETATM    1  N   UNL     1      41.207 -12.097   6.930  1.00  0.00    -0.341 N 
HETATM    2  C   UNL     1      39.980 -12.633   6.652  1.00  0.00     0.334 C 
HETATM    3  N   UNL     1      39.991 -13.930   6.193  1.00  0.00    -0.249 N 
HETATM    4  O   UNL     1      38.920 -12.029   6.778  1.00  0.00    -0.246 OA
HETATM    5  H   UNL     1      41.914 -12.477   6.308  1.00  0.00     0.164 HD
HETATM    6  H   UNL     1      39.071 -14.324   6.024  1.00  0.00     0.192 HD
ENDROOT
BRANCH   3   7
HETATM    7  N   UNL     1      41.058 -14.835   6.386  1.00  0.00    -0.264 N 
HETATM    8  C   UNL     1      41.415 -15.722   5.381  1.00  0.00     0.260 C 
HETATM    9  O   UNL     1      41.056 -15.607   4.209  1.00  0.00    -0.269 OA
HETATM   10  H   UNL     1      41.251 -15.092   7.351  1.00  0.00     0.190 HD
BRANCH   8  11
HETATM   11  C   UNL     1      42.384 -16.803   5.834  1.00  0.00     0.280 C 
BRANCH  11  12
HETATM   12  O   UNL     1      43.529 -16.763   4.986  1.00  0.00    -0.342 OA
BRANCH  12  13
HETATM   13  C   UNL     1      43.751 -17.940   4.321  1.00  0.00     0.069 A 
HETATM   14  C   UNL     1      44.478 -19.005   4.858  1.00  0.00     0.038 A 
HETATM   15  C   UNL     1      44.652 -20.175   4.112  1.00  0.00     0.022 A 
HETATM   16  C   UNL     1      44.089 -20.277   2.841  1.00  0.00     0.011 A 
HETATM   17 BR   UNL     1      44.333 -21.857   1.832  1.00  0.00    -0.051 Br
HETATM   18  C   UNL     1      43.344 -19.225   2.312  1.00  0.00     0.022 A 
HETATM   19  C   UNL     1      43.167 -18.059   3.060  1.00  0.00     0.038 A 
ENDBRANCH  12  13
ENDBRANCH  11  12
ENDBRANCH   8  11
ENDBRANCH   3   7
BRANCH   1  20
HETATM   20  C   UNL     1      41.354 -10.679   7.209  1.00  0.00     0.130 C 
BRANCH  20  21
HETATM   21  C   UNL     1      41.010 -10.291   8.646  1.00  0.00     0.079 C 
BRANCH  21  22
HETATM   22  C   UNL     1      42.197 -10.436   9.543  1.00  0.00     0.043 A 
HETATM   23  C   UNL     1      42.220 -10.264  10.914  1.00  0.00     0.078 A 
HETATM   24  S   UNL     1      43.805 -10.515  11.512  1.00  0.00    -0.085 SA
HETATM   25  C   UNL     1      44.347 -10.824   9.912  1.00  0.00     0.071 A 
HETATM   26  C   UNL     1      45.775 -11.152   9.651  1.00  0.00     0.078 C 
HETATM   27  N   UNL     1      43.422 -10.756   8.978  1.00  0.00    -0.251 NA
ENDBRANCH  21  22
ENDBRANCH  20  21
ENDBRANCH   1  20
TORSDOF 7
ENDMDL
MODEL 4
REMARK VINA RESULT:      -7.4      3.933      5.484
REMARK  7 active torsions:
REMARK  status: ('A' for Active; 'I' for Inactive)
REMARK    1  A    between atoms: C_5  and  C_6 
REMARK    2  A    between atoms: C_6  and  C_7 
REMARK    3  A    between atoms: C_7  and  N_8 
REMARK       I    between atoms: N_8  and  C_9 
REMARK       I    between atoms: C_9  and  N_10 
REMARK    4  A    between atoms: N_10  and  N_11 
REMARK       I    between atoms: N_11  and  C_12 
REMARK    5  A    between atoms: C_12  and  C_13 
REMARK    6  A    between atoms: C_13  and  O_14 
REMARK    7  A    between atoms: O_14  and  C_15 
ROOT
HETATM    1  N   UNL     1      40.072 -12.753   4.663  1.00  0.00    -0.341 N 
HETATM    2  C   UNL     1      39.620 -13.120   5.900  1.00  0.00     0.334 C 
HETATM    3  N   UNL     1      40.233 -14.222   6.452  1.00  0.00    -0.249 N 
HETATM    4  O   UNL     1      38.725 -12.540   6.506  1.00  0.00    -0.246 OA
HETATM    5  H   UNL     1      40.368 -13.568   4.133  1.00  0.00     0.164 HD
HETATM    6  H   UNL     1      39.909 -14.460   7.383  1.00  0.00     0.192 HD
ENDROOT
BRANCH   3   7
HETATM    7  N   UNL     1      41.499 -14.710   6.060  1.00  0.00    -0.264 N 
HETATM    8  C   UNL     1      41.695 -16.068   5.861  1.00  0.00     0.260 C 
HETATM    9  O   UNL     1      40.779 -16.879   5.726  1.00  0.00    -0.269 OA
HETATM   10  H   UNL     1      42.296 -14.139   6.332  1.00  0.00     0.190 HD
BRANCH   8  11
HETATM   11  C   UNL     1      43.158 -16.461   5.717  1.00  0.00     0.280 C 
BRANCH  11  12
HETATM   12  O   UNL     1      43.515 -16.362   4.340  1.00  0.00    -0.342 OA
BRANCH  12  13
HETATM   13  C   UNL     1      43.686 -17.580   3.738  1.00  0.00     0.069 A 
HETATM   14  C   UNL     1      43.513 -17.796   2.369  1.00  0.00     0.038 A 
HETATM   15  C   UNL     1      43.714 -19.072   1.834  1.00  0.00     0.022 A 
HETATM   16  C   UNL     1      44.096 -20.121   2.668  1.00  0.00     0.011 A 
HETATM   17 BR   UNL     1      44.359 -21.847   1.944  1.00  0.00    -0.051 Br
HETATM   18  C   UNL     1      44.291 -19.905   4.031  1.00  0.00     0.022 A 
HETATM   19  C   UNL     1      44.095 -18.628   4.563  1.00  0.00     0.038 A 
ENDBRANCH  12  13
ENDBRANCH  11  12
ENDBRANCH   8  11
ENDBRANCH   3   7
BRANCH   1  20
HETATM   20  C   UNL     1      39.369 -11.751   3.880  1.00  0.00     0.130 C 
BRANCH  20  21
HETATM   21  C   UNL     1      38.867 -12.261   2.530  1.00  0.00     0.079 C 
BRANCH  21  22
HETATM   22  C   UNL     1      39.694 -13.408   2.044  1.00  0.00     0.043 A 
HETATM   23  C   UNL     1      40.767 -13.340   1.177  1.00  0.00     0.078 A 
HETATM   24  S   UNL     1      41.392 -14.909   0.891  1.00  0.00    -0.085 SA
HETATM   25  C   UNL     1      40.189 -15.564   1.927  1.00  0.00     0.071 A 
HETATM   26  C   UNL     1      40.127 -17.030   2.175  1.00  0.00     0.078 C 
HETATM   27  N   UNL     1      39.370 -14.688   2.468  1.00  0.00    -0.251 NA
ENDBRANCH  21  22
ENDBRANCH  20  21
ENDBRANCH   1  20
TORSDOF 7
ENDMDL
MODEL 5
REMARK VINA RESULT:      -7.4      4.550      6.978
REMARK  7 active torsions:
REMARK  status: ('A' for Active; 'I' for Inactive)
REMARK    1  A    between atoms: C_5  and  C_6 
REMARK    2  A    between atoms: C_6  and  C_7 
REMARK    3  A    between atoms: C_7  and  N_8 
REMARK       I    between atoms: N_8  and  C_9 
REMARK       I    between atoms: C_9  and  N_10 
REMARK    4  A    between atoms: N_10  and  N_11 
REMARK       I    between atoms: N_11  and  C_12 
REMARK    5  A    between atoms: C_12  and  C_13 
REMARK    6  A    between atoms: C_13  and  O_14 
REMARK    7  A    between atoms: O_14  and  C_15 
ROOT
HETATM    1  N   UNL     1      40.063 -15.124   3.964  1.00  0.00    -0.341 N 
HETATM    2  C   UNL     1      39.995 -14.202   4.971  1.00  0.00     0.334 C 
HETATM    3  N   UNL     1      40.276 -14.680   6.231  1.00  0.00    -0.249 N 
HETATM    4  O   UNL     1      39.698 -13.023   4.807  1.00  0.00    -0.246 OA
HETATM    5  H   UNL     1      39.791 -16.043   4.300  1.00  0.00     0.164 HD
HETATM    6  H   UNL     1      40.254 -13.976   6.961  1.00  0.00     0.192 HD
ENDROOT
BRANCH   3   7
HETATM    7  N   UNL     1      41.001 -15.864   6.491  1.00  0.00    -0.264 N 
HETATM    8  C   UNL     1      42.384 -15.876   6.386  1.00  0.00     0.260 C 
HETATM    9  O   UNL     1      43.076 -14.858   6.351  1.00  0.00    -0.269 OA
HETATM   10  H   UNL     1      40.495 -16.734   6.342  1.00  0.00     0.190 HD
BRANCH   8  11
HETATM   11  C   UNL     1      42.989 -17.271   6.423  1.00  0.00     0.280 C 
BRANCH  11  12
HETATM   12  O   UNL     1      44.142 -17.282   5.586  1.00  0.00    -0.342 OA
BRANCH  12  13
HETATM   13  C   UNL     1      44.125 -18.287   4.655  1.00  0.00     0.069 A 
HETATM   14  C   UNL     1      43.586 -18.144   3.375  1.00  0.00     0.038 A 
HETATM   15  C   UNL     1      43.615 -19.220   2.483  1.00  0.00     0.022 A 
HETATM   16  C   UNL     1      44.192 -20.428   2.872  1.00  0.00     0.011 A 
HETATM   17 BR   UNL     1      44.222 -21.883   1.667  1.00  0.00    -0.051 Br
HETATM   18  C   UNL     1      44.751 -20.567   4.141  1.00  0.00     0.022 A 
HETATM   19  C   UNL     1      44.725 -19.489   5.030  1.00  0.00     0.038 A 
ENDBRANCH  12  13
ENDBRANCH  11  12
ENDBRANCH   8  11
ENDBRANCH   3   7
BRANCH   1  20
HETATM   20  C   UNL     1      39.580 -14.807   2.631  1.00  0.00     0.130 C 
BRANCH  20  21
HETATM   21  C   UNL     1      40.324 -15.537   1.513  1.00  0.00     0.079 C 
BRANCH  21  22
HETATM   22  C   UNL     1      40.165 -14.828   0.206  1.00  0.00     0.043 A 
HETATM   23  C   UNL     1      39.221 -13.867  -0.100  1.00  0.00     0.078 A 
HETATM   24  S   UNL     1      39.409 -13.352  -1.723  1.00  0.00    -0.085 SA
HETATM   25  C   UNL     1      40.721 -14.446  -1.904  1.00  0.00     0.071 A 
HETATM   26  C   UNL     1      41.446 -14.543  -3.200  1.00  0.00     0.078 C 
HETATM   27  N   UNL     1      41.020 -15.153  -0.836  1.00  0.00    -0.251 NA
ENDBRANCH  21  22
ENDBRANCH  20  21
ENDBRANCH   1  20
TORSDOF 7
ENDMDL
MODEL 6
REMARK VINA RESULT:      -7.3      7.160      9.419
REMARK  7 active torsions:
REMARK  status: ('A' for Active; 'I' for Inactive)
REMARK    1  A    between atoms: C_5  and  C_6 
REMARK    2  A    between atoms: C_6  and  C_7 
REMARK    3  A    between atoms: C_7  and  N_8 
REMARK       I    between atoms: N_8  and  C_9 
REMARK       I    between atoms: C_9  and  N_10 
REMARK    4  A    between atoms: N_10  and  N_11 
REMARK       I    between atoms: N_11  and  C_12 
REMARK    5  A    between atoms: C_12  and  C_13 
REMARK    6  A    between atoms: C_13  and  O_14 
REMARK    7  A    between atoms: O_14  and  C_15 
ROOT
HETATM    1  N   UNL     1      39.875 -16.053  -2.842  1.00  0.00    -0.341 N 
HETATM    2  C   UNL     1      40.984 -15.254  -2.828  1.00  0.00     0.334 C 
HETATM    3  N   UNL     1      41.670 -15.212  -1.635  1.00  0.00    -0.249 N 
HETATM    4  O   UNL     1      41.370 -14.594  -3.788  1.00  0.00    -0.246 OA
HETATM    5  H   UNL     1      39.433 -16.068  -1.927  1.00  0.00     0.164 HD
HETATM    6  H   UNL     1      42.508 -14.641  -1.652  1.00  0.00     0.192 HD
ENDROOT
BRANCH   3   7
HETATM    7  N   UNL     1      41.575 -16.196  -0.626  1.00  0.00    -0.264 N 
HETATM    8  C   UNL     1      41.971 -15.909   0.672  1.00  0.00     0.260 C 
HETATM    9  O   UNL     1      42.147 -14.767   1.096  1.00  0.00    -0.269 OA
HETATM   10  H   UNL     1      41.618 -17.161  -0.944  1.00  0.00     0.190 HD
BRANCH   8  11
HETATM   11  C   UNL     1      42.069 -17.135   1.567  1.00  0.00     0.280 C 
BRANCH  11  12
HETATM   12  O   UNL     1      43.260 -17.028   2.343  1.00  0.00    -0.342 OA
BRANCH  12  13
HETATM   13  C   UNL     1      43.662 -18.222   2.882  1.00  0.00     0.069 A 
HETATM   14  C   UNL     1      43.838 -19.387   2.134  1.00  0.00     0.038 A 
HETATM   15  C   UNL     1      44.257 -20.563   2.764  1.00  0.00     0.022 A 
HETATM   16  C   UNL     1      44.509 -20.563   4.135  1.00  0.00     0.011 A 
HETATM   17 BR   UNL     1      45.067 -22.156   4.985  1.00  0.00    -0.051 Br
HETATM   18  C   UNL     1      44.356 -19.396   4.881  1.00  0.00     0.022 A 
HETATM   19  C   UNL     1      43.941 -18.221   4.249  1.00  0.00     0.038 A 
ENDBRANCH  12  13
ENDBRANCH  11  12
ENDBRANCH   8  11
ENDBRANCH   3   7
BRANCH   1  20
HETATM   20  C   UNL     1      38.945 -16.017  -3.957  1.00  0.00     0.130 C 
BRANCH  20  21
HETATM   21  C   UNL     1      37.638 -15.286  -3.651  1.00  0.00     0.079 C 
BRANCH  21  22
HETATM   22  C   UNL     1      37.893 -14.013  -2.909  1.00  0.00     0.043 A 
HETATM   23  C   UNL     1      38.155 -12.775  -3.463  1.00  0.00     0.078 A 
HETATM   24  S   UNL     1      38.402 -11.617  -2.225  1.00  0.00    -0.085 SA
HETATM   25  C   UNL     1      38.154 -12.841  -1.047  1.00  0.00     0.071 A 
HETATM   26  C   UNL     1      38.225 -12.515   0.403  1.00  0.00     0.078 C 
HETATM   27  N   UNL     1      37.896 -14.041  -1.523  1.00  0.00    -0.251 NA
ENDBRANCH  21  22
ENDBRANCH  20  21
ENDBRANCH   1  20
TORSDOF 7
ENDMDL
MODEL 7
REMARK VINA RESULT:      -7.3      5.050      9.515
REMARK  7 active torsions:
REMARK  status: ('A' for Active; 'I' for Inactive)
REMARK    1  A    between atoms: C_5  and  C_6 
REMARK    2  A    between atoms: C_6  and  C_7 
REMARK    3  A    between atoms: C_7  and  N_8 
REMARK       I    between atoms: N_8  and  C_9 
REMARK       I    between atoms: C_9  and  N_10 
REMARK    4  A    between atoms: N_10  and  N_11 
REMARK       I    between atoms: N_11  and  C_12 
REMARK    5  A    between atoms: C_12  and  C_13 
REMARK    6  A    between atoms: C_13  and  O_14 
REMARK    7  A    between atoms: O_14  and  C_15 
ROOT
HETATM    1  N   UNL     1      42.549 -13.112   6.625  1.00  0.00    -0.341 N 
HETATM    2  C   UNL     1      43.810 -13.626   6.503  1.00  0.00     0.334 C 
HETATM    3  N   UNL     1      44.688 -13.288   7.507  1.00  0.00    -0.249 N 
HETATM    4  O   UNL     1      44.177 -14.335   5.572  1.00  0.00    -0.246 OA
HETATM    5  H   UNL     1      42.575 -12.204   7.080  1.00  0.00     0.164 HD
HETATM    6  H   UNL     1      45.608 -13.704   7.418  1.00  0.00     0.192 HD
ENDROOT
BRANCH   3   7
HETATM    7  N   UNL     1      44.298 -12.840   8.789  1.00  0.00    -0.264 N 
HETATM    8  C   UNL     1      45.005 -11.828   9.423  1.00  0.00     0.260 C 
HETATM    9  O   UNL     1      45.792 -11.079   8.845  1.00  0.00    -0.269 OA
HETATM   10  H   UNL     1      43.804 -13.519   9.363  1.00  0.00     0.190 HD
BRANCH   8  11
HETATM   11  C   UNL     1      44.641 -11.654  10.889  1.00  0.00     0.280 C 
BRANCH  11  12
HETATM   12  O   UNL     1      43.229 -11.479  10.983  1.00  0.00    -0.342 OA
BRANCH  12  13
HETATM   13  C   UNL     1      42.834 -10.888  12.154  1.00  0.00     0.069 A 
HETATM   14  C   UNL     1      41.660 -11.222  12.830  1.00  0.00     0.038 A 
HETATM   15  C   UNL     1      41.334 -10.572  14.024  1.00  0.00     0.022 A 
HETATM   16  C   UNL     1      42.190  -9.600  14.540  1.00  0.00     0.011 A 
HETATM   17 BR   UNL     1      41.744  -8.716  16.150  1.00  0.00    -0.051 Br
HETATM   18  C   UNL     1      43.375  -9.280  13.879  1.00  0.00     0.022 A 
HETATM   19  C   UNL     1      43.701  -9.933  12.688  1.00  0.00     0.038 A 
ENDBRANCH  12  13
ENDBRANCH  11  12
ENDBRANCH   8  11
ENDBRANCH   3   7
BRANCH   1  20
HETATM   20  C   UNL     1      41.596 -13.208   5.533  1.00  0.00     0.130 C 
BRANCH  20  21
HETATM   21  C   UNL     1      40.522 -14.275   5.741  1.00  0.00     0.079 C 
BRANCH  21  22
HETATM   22  C   UNL     1      40.964 -15.598   5.202  1.00  0.00     0.043 A 
HETATM   23  C   UNL     1      41.370 -16.694   5.938  1.00  0.00     0.078 A 
HETATM   24  S   UNL     1      41.803 -17.979   4.892  1.00  0.00    -0.085 SA
HETATM   25  C   UNL     1      41.432 -16.987   3.540  1.00  0.00     0.071 A 
HETATM   26  C   UNL     1      41.588 -17.511   2.156  1.00  0.00     0.078 C 
HETATM   27  N   UNL     1      41.004 -15.776   3.827  1.00  0.00    -0.251 NA
ENDBRANCH  21  22
ENDBRANCH  20  21
ENDBRANCH   1  20
TORSDOF 7
ENDMDL
MODEL 8
REMARK VINA RESULT:      -7.2      1.580      2.334
REMARK  7 active torsions:
REMARK  status: ('A' for Active; 'I' for Inactive)
REMARK    1  A    between atoms: C_5  and  C_6 
REMARK    2  A    between atoms: C_6  and  C_7 
REMARK    3  A    between atoms: C_7  and  N_8 
REMARK       I    between atoms: N_8  and  C_9 
REMARK       I    between atoms: C_9  and  N_10 
REMARK    4  A    between atoms: N_10  and  N_11 
REMARK       I    between atoms: N_11  and  C_12 
REMARK    5  A    between atoms: C_12  and  C_13 
REMARK    6  A    between atoms: C_13  and  O_14 
REMARK    7  A    between atoms: O_14  and  C_15 
ROOT
HETATM    1  N   UNL     1      41.159 -11.834   7.393  1.00  0.00    -0.341 N 
HETATM    2  C   UNL     1      39.802 -11.997   7.342  1.00  0.00     0.334 C 
HETATM    3  N   UNL     1      39.366 -13.146   6.722  1.00  0.00    -0.249 N 
HETATM    4  O   UNL     1      38.994 -11.193   7.795  1.00  0.00    -0.246 OA
HETATM    5  H   UNL     1      41.600 -12.246   6.576  1.00  0.00     0.164 HD
HETATM    6  H   UNL     1      38.359 -13.267   6.723  1.00  0.00     0.192 HD
ENDROOT
BRANCH   3   7
HETATM    7  N   UNL     1      40.159 -14.300   6.534  1.00  0.00    -0.264 N 
HETATM    8  C   UNL     1      40.311 -14.846   5.268  1.00  0.00     0.260 C 
HETATM    9  O   UNL     1      40.035 -14.249   4.228  1.00  0.00    -0.269 OA
HETATM   10  H   UNL     1      40.246 -14.913   7.341  1.00  0.00     0.190 HD
BRANCH   8  11
HETATM   11  C   UNL     1      40.954 -16.225   5.270  1.00  0.00     0.280 C 
BRANCH  11  12
HETATM   12  O   UNL     1      42.247 -16.117   4.679  1.00  0.00    -0.342 OA
BRANCH  12  13
HETATM   13  C   UNL     1      42.644 -17.258   4.035  1.00  0.00     0.069 A 
HETATM   14  C   UNL     1      42.233 -17.600   2.745  1.00  0.00     0.038 A 
HETATM   15  C   UNL     1      42.691 -18.783   2.158  1.00  0.00     0.022 A 
HETATM   16  C   UNL     1      43.566 -19.611   2.859  1.00  0.00     0.011 A 
HETATM   17 BR   UNL     1      44.178 -21.214   2.067  1.00  0.00    -0.051 Br
HETATM   18  C   UNL     1      43.997 -19.262   4.137  1.00  0.00     0.022 A 
HETATM   19  C   UNL     1      43.542 -18.077   4.721  1.00  0.00     0.038 A 
ENDBRANCH  12  13
ENDBRANCH  11  12
ENDBRANCH   8  11
ENDBRANCH   3   7
BRANCH   1  20
HETATM   20  C   UNL     1      41.742 -10.574   7.818  1.00  0.00     0.130 C 
BRANCH  20  21
HETATM   21  C   UNL     1      42.803 -10.719   8.909  1.00  0.00     0.079 C 
BRANCH  21  22
HETATM   22  C   UNL     1      42.352 -10.087  10.187  1.00  0.00     0.043 A 
HETATM   23  C   UNL     1      41.167  -9.409  10.397  1.00  0.00     0.078 A 
HETATM   24  S   UNL     1      41.092  -8.842  12.012  1.00  0.00    -0.085 SA
HETATM   25  C   UNL     1      42.638  -9.526  12.311  1.00  0.00     0.071 A 
HETATM   26  C   UNL     1      43.266  -9.408  13.655  1.00  0.00     0.078 C 
HETATM   27  N   UNL     1      43.189 -10.147  11.291  1.00  0.00    -0.251 NA
ENDBRANCH  21  22
ENDBRANCH  20  21
ENDBRANCH   1  20
TORSDOF 7
ENDMDL
MODEL 9
REMARK VINA RESULT:      -7.1      5.450      7.216
REMARK  7 active torsions:
REMARK  status: ('A' for Active; 'I' for Inactive)
REMARK    1  A    between atoms: C_5  and  C_6 
REMARK    2  A    between atoms: C_6  and  C_7 
REMARK    3  A    between atoms: C_7  and  N_8 
REMARK       I    between atoms: N_8  and  C_9 
REMARK       I    between atoms: C_9  and  N_10 
REMARK    4  A    between atoms: N_10  and  N_11 
REMARK       I    between atoms: N_11  and  C_12 
REMARK    5  A    between atoms: C_12  and  C_13 
REMARK    6  A    between atoms: C_13  and  O_14 
REMARK    7  A    between atoms: O_14  and  C_15 
ROOT
HETATM    1  N   UNL     1      42.185 -14.080  -1.463  1.00  0.00    -0.341 N 
HETATM    2  C   UNL     1      41.047 -14.794  -1.714  1.00  0.00     0.334 C 
HETATM    3  N   UNL     1      40.980 -16.031  -1.115  1.00  0.00    -0.249 N 
HETATM    4  O   UNL     1      40.130 -14.400  -2.427  1.00  0.00    -0.246 OA
HETATM    5  H   UNL     1      42.980 -14.702  -1.344  1.00  0.00     0.164 HD
HETATM    6  H   UNL     1      40.115 -16.533  -1.285  1.00  0.00     0.192 HD
ENDROOT
BRANCH   3   7
HETATM    7  N   UNL     1      41.744 -16.416   0.009  1.00  0.00    -0.264 N 
HETATM    8  C   UNL     1      41.239 -16.248   1.290  1.00  0.00     0.260 C 
HETATM    9  O   UNL     1      40.050 -16.043   1.535  1.00  0.00    -0.269 OA
HETATM   10  H   UNL     1      42.753 -16.409  -0.120  1.00  0.00     0.190 HD
BRANCH   8  11
HETATM   11  C   UNL     1      42.274 -16.446   2.386  1.00  0.00     0.280 C 
BRANCH  11  12
HETATM   12  O   UNL     1      43.398 -17.120   1.825  1.00  0.00    -0.342 OA
BRANCH  12  13
HETATM   13  C   UNL     1      43.741 -18.259   2.505  1.00  0.00     0.069 A 
HETATM   14  C   UNL     1      43.894 -19.506   1.895  1.00  0.00     0.038 A 
HETATM   15  C   UNL     1      44.251 -20.617   2.663  1.00  0.00     0.022 A 
HETATM   16  C   UNL     1      44.465 -20.474   4.033  1.00  0.00     0.011 A 
HETATM   17 BR   UNL     1      44.940 -21.980   5.071  1.00  0.00    -0.051 Br
HETATM   18  C   UNL     1      44.336 -19.227   4.641  1.00  0.00     0.022 A 
HETATM   19  C   UNL     1      43.982 -18.116   3.872  1.00  0.00     0.038 A 
ENDBRANCH  12  13
ENDBRANCH  11  12
ENDBRANCH   8  11
ENDBRANCH   3   7
BRANCH   1  20
HETATM   20  C   UNL     1      42.480 -12.864  -2.201  1.00  0.00     0.130 C 
BRANCH  20  21
HETATM   21  C   UNL     1      42.351 -11.588  -1.371  1.00  0.00     0.079 C 
BRANCH  21  22
HETATM   22  C   UNL     1      41.717 -11.868  -0.046  1.00  0.00     0.043 A 
HETATM   23  C   UNL     1      40.389 -11.682   0.288  1.00  0.00     0.078 A 
HETATM   24  S   UNL     1      40.126 -12.121   1.923  1.00  0.00    -0.085 SA
HETATM   25  C   UNL     1      41.791 -12.514   2.072  1.00  0.00     0.071 A 
HETATM   26  C   UNL     1      42.332 -13.020   3.363  1.00  0.00     0.078 C 
HETATM   27  N   UNL     1      42.513 -12.344   0.985  1.00  0.00    -0.251 NA
ENDBRANCH  21  22
ENDBRANCH  20  21
ENDBRANCH   1  20
TORSDOF 7
ENDMDL
MODEL 10
REMARK VINA RESULT:      -7.1      3.902      4.984
REMARK  7 active torsions:
REMARK  status: ('A' for Active; 'I' for Inactive)
REMARK    1  A    between atoms: C_5  and  C_6 
REMARK    2  A    between atoms: C_6  and  C_7 
REMARK    3  A    between atoms: C_7  and  N_8 
REMARK       I    between atoms: N_8  and  C_9 
REMARK       I    between atoms: C_9  and  N_10 
REMARK    4  A    between atoms: N_10  and  N_11 
REMARK       I    between atoms: N_11  and  C_12 
REMARK    5  A    between atoms: C_12  and  C_13 
REMARK    6  A    between atoms: C_13  and  O_14 
REMARK    7  A    between atoms: O_14  and  C_15 
ROOT
HETATM    1  N   UNL     1      39.550 -13.797   2.943  1.00  0.00    -0.341 N 
HETATM    2  C   UNL     1      38.925 -13.870   1.730  1.00  0.00     0.334 C 
HETATM    3  N   UNL     1      39.303 -14.925   0.931  1.00  0.00    -0.249 N 
HETATM    4  O   UNL     1      38.087 -13.065   1.338  1.00  0.00    -0.246 OA
HETATM    5  H   UNL     1      40.499 -14.155   2.880  1.00  0.00     0.164 HD
HETATM    6  H   UNL     1      38.806 -14.983   0.049  1.00  0.00     0.192 HD
ENDROOT
BRANCH   3   7
HETATM    7  N   UNL     1      39.924 -16.102   1.405  1.00  0.00    -0.264 N 
HETATM    8  C   UNL     1      41.235 -16.392   1.056  1.00  0.00     0.260 C 
HETATM    9  O   UNL     1      42.015 -15.566   0.583  1.00  0.00    -0.269 OA
HETATM   10  H   UNL     1      39.298 -16.873   1.626  1.00  0.00     0.190 HD
BRANCH   8  11
HETATM   11  C   UNL     1      41.663 -17.808   1.409  1.00  0.00     0.280 C 
BRANCH  11  12
HETATM   12  O   UNL     1      43.086 -17.839   1.490  1.00  0.00    -0.342 OA
BRANCH  12  13
HETATM   13  C   UNL     1      43.557 -18.800   2.344  1.00  0.00     0.069 A 
HETATM   14  C   UNL     1      43.865 -18.559   3.685  1.00  0.00     0.038 A 
HETATM   15  C   UNL     1      44.337 -19.600   4.489  1.00  0.00     0.022 A 
HETATM   16  C   UNL     1      44.487 -20.878   3.952  1.00  0.00     0.011 A 
HETATM   17 BR   UNL     1      45.133 -22.282   5.041  1.00  0.00    -0.051 Br
HETATM   18  C   UNL     1      44.159 -21.127   2.622  1.00  0.00     0.022 A 
HETATM   19  C   UNL     1      43.684 -20.087   1.820  1.00  0.00     0.038 A 
ENDBRANCH  12  13
ENDBRANCH  11  12
ENDBRANCH   8  11
ENDBRANCH   3   7
BRANCH   1  20
HETATM   20  C   UNL     1      39.408 -12.623   3.786  1.00  0.00     0.130 C 
BRANCH  20  21
HETATM   21  C   UNL     1      40.645 -12.309   4.627  1.00  0.00     0.079 C 
BRANCH  21  22
HETATM   22  C   UNL     1      41.304 -13.564   5.104  1.00  0.00     0.043 A 
HETATM   23  C   UNL     1      42.661 -13.823   5.128  1.00  0.00     0.078 A 
HETATM   24  S   UNL     1      42.949 -15.398   5.737  1.00  0.00    -0.085 SA
HETATM   25  C   UNL     1      41.256 -15.625   5.914  1.00  0.00     0.071 A 
HETATM   26  C   UNL     1      40.721 -16.905   6.452  1.00  0.00     0.078 C 
HETATM   27  N   UNL     1      40.507 -14.605   5.555  1.00  0.00    -0.251 NA
ENDBRANCH  21  22
ENDBRANCH  20  21
ENDBRANCH   1  20
TORSDOF 7
ENDMDL
