MODEL 1
REMARK VINA RESULT:      -9.1      0.000      0.000
REMARK  5 active torsions:
REMARK  status: ('A' for Active; 'I' for Inactive)
REMARK    1  A    between atoms: C_3  and  C_4 
REMARK    2  A    between atoms: C_4  and  N_5 
REMARK    3  A    between atoms: C_9  and  C_10 
REMARK    4  A    between atoms: C_13  and  C_14 
REMARK    5  A    between atoms: C_14  and  N_15 
ROOT
HETATM    1  N   UNL     1      43.398 -17.736   3.064  1.00  0.00    -0.067 N 
HETATM    2  H   UNL     1      44.144 -17.752   3.771  1.00  0.00     0.280 HD
HETATM    3  C   UNL     1      43.659 -16.555   2.160  1.00  0.00     0.236 C 
HETATM    4  C   UNL     1      43.463 -15.241   2.908  1.00  0.00     0.040 C 
HETATM    5  C   UNL     1      42.090 -15.128   3.579  1.00  0.00     0.060 C 
HETATM    6  C   UNL     1      41.864 -16.349   4.479  1.00  0.00     0.040 C 
HETATM    7  C   UNL     1      42.066 -17.683   3.768  1.00  0.00     0.236 C 
ENDROOT
BRANCH   5   8
HETATM    8  C   UNL     1      40.997 -14.978   2.555  1.00  0.00     0.134 A 
HETATM    9  N   UNL     1      40.988 -14.115   1.481  1.00  0.00    -0.323 N 
HETATM   10  C   UNL     1      42.024 -13.180   1.115  1.00  0.00     0.159 C 
HETATM   11  C   UNL     1      39.794 -14.334   0.835  1.00  0.00     0.155 A 
HETATM   12  N   UNL     1      39.142 -15.293   1.461  1.00  0.00    -0.133 NA
HETATM   13  N   UNL     1      39.887 -15.685   2.531  1.00  0.00    -0.134 NA
BRANCH  11  14
HETATM   14  C   UNL     1      39.284 -13.633  -0.379  1.00  0.00     0.315 C 
BRANCH  14  15
HETATM   15  N   UNL     1      39.088 -14.607  -1.528  1.00  0.00    -0.064 N 
HETATM   16  H   UNL     1      38.728 -15.464  -1.075  1.00  0.00     0.280 HD
HETATM   17  C   UNL     1      38.012 -14.160  -2.491  1.00  0.00     0.235 C 
HETATM   18  C   UNL     1      37.732 -15.274  -3.488  1.00  0.00     0.028 C 
HETATM   19  C   UNL     1      38.999 -15.702  -4.220  1.00  0.00     0.003 C 
HETATM   20  C   UNL     1      40.104 -16.077  -3.238  1.00  0.00     0.028 C 
HETATM   21  C   UNL     1      40.370 -14.966  -2.231  1.00  0.00     0.235 C 
ENDBRANCH  14  15
ENDBRANCH  11  14
ENDBRANCH   5   8
BRANCH   1  22
HETATM   22  C   UNL     1      43.517 -19.058   2.310  1.00  0.00     0.273 C 
BRANCH  22  23
HETATM   23  C   UNL     1      44.036 -20.198   3.145  1.00  0.00    -0.027 A 
HETATM   24  C   UNL     1      44.201 -21.507   2.645  1.00  0.00    -0.054 A 
HETATM   25  C   UNL     1      43.915 -21.910   1.223  1.00  0.00     0.049 C 
HETATM   26  C   UNL     1      44.643 -22.518   3.517  1.00  0.00     0.007 A 
HETATM   27  C   UNL     1      44.938 -22.243   4.851  1.00  0.00     0.001 A 
HETATM   28  C   UNL     1      44.796 -20.953   5.341  1.00  0.00     0.001 A 
HETATM   29  C   UNL     1      44.349 -19.939   4.497  1.00  0.00     0.009 A 
ENDBRANCH  22  23
ENDBRANCH   1  22
TORSDOF 5
ENDMDL
MODEL 2
REMARK VINA RESULT:      -9.0      0.969      1.980
REMARK  5 active torsions:
REMARK  status: ('A' for Active; 'I' for Inactive)
REMARK    1  A    between atoms: C_3  and  C_4 
REMARK    2  A    between atoms: C_4  and  N_5 
REMARK    3  A    between atoms: C_9  and  C_10 
REMARK    4  A    between atoms: C_13  and  C_14 
REMARK    5  A    between atoms: C_14  and  N_15 
ROOT
HETATM    1  N   UNL     1      43.052 -17.367   3.163  1.00  0.00    -0.067 N 
HETATM    2  H   UNL     1      43.028 -17.789   4.100  1.00  0.00     0.280 HD
HETATM    3  C   UNL     1      43.427 -15.913   3.333  1.00  0.00     0.236 C 
HETATM    4  C   UNL     1      42.316 -15.143   4.037  1.00  0.00     0.040 C 
HETATM    5  C   UNL     1      40.954 -15.284   3.350  1.00  0.00     0.060 C 
HETATM    6  C   UNL     1      40.618 -16.772   3.191  1.00  0.00     0.040 C 
HETATM    7  C   UNL     1      41.714 -17.579   2.504  1.00  0.00     0.236 C 
ENDROOT
BRANCH   5   8
HETATM    8  C   UNL     1      40.936 -14.563   2.029  1.00  0.00     0.134 A 
HETATM    9  N   UNL     1      39.839 -14.345   1.225  1.00  0.00    -0.323 N 
HETATM   10  C   UNL     1      38.481 -14.760   1.484  1.00  0.00     0.159 C 
HETATM   11  C   UNL     1      40.306 -13.649   0.135  1.00  0.00     0.155 A 
HETATM   12  N   UNL     1      41.596 -13.433   0.290  1.00  0.00    -0.133 NA
HETATM   13  N   UNL     1      41.986 -14.006   1.462  1.00  0.00    -0.134 NA
BRANCH  11  14
HETATM   14  C   UNL     1      39.519 -13.190  -1.047  1.00  0.00     0.315 C 
BRANCH  14  15
HETATM   15  N   UNL     1      39.162 -14.359  -1.950  1.00  0.00    -0.064 N 
HETATM   16  H   UNL     1      38.814 -15.084  -1.300  1.00  0.00     0.280 HD
HETATM   17  C   UNL     1      38.012 -14.044  -2.879  1.00  0.00     0.235 C 
HETATM   18  C   UNL     1      37.581 -15.313  -3.598  1.00  0.00     0.028 C 
HETATM   19  C   UNL     1      38.746 -15.958  -4.341  1.00  0.00     0.003 C 
HETATM   20  C   UNL     1      39.929 -16.200  -3.411  1.00  0.00     0.028 C 
HETATM   21  C   UNL     1      40.347 -14.931  -2.680  1.00  0.00     0.235 C 
ENDBRANCH  14  15
ENDBRANCH  11  14
ENDBRANCH   5   8
BRANCH   1  22
HETATM   22  C   UNL     1      44.122 -18.137   2.392  1.00  0.00     0.273 C 
BRANCH  22  23
HETATM   23  C   UNL     1      44.219 -19.593   2.763  1.00  0.00    -0.027 A 
HETATM   24  C   UNL     1      44.645 -20.037   4.032  1.00  0.00    -0.054 A 
HETATM   25  C   UNL     1      45.015 -19.120   5.168  1.00  0.00     0.049 C 
HETATM   26  C   UNL     1      44.753 -21.419   4.268  1.00  0.00     0.007 A 
HETATM   27  C   UNL     1      44.429 -22.348   3.282  1.00  0.00     0.001 A 
HETATM   28  C   UNL     1      43.992 -21.915   2.038  1.00  0.00     0.001 A 
HETATM   29  C   UNL     1      43.887 -20.550   1.780  1.00  0.00     0.009 A 
ENDBRANCH  22  23
ENDBRANCH   1  22
TORSDOF 5
ENDMDL
MODEL 3
REMARK VINA RESULT:      -8.8      1.376      2.129
REMARK  5 active torsions:
REMARK  status: ('A' for Active; 'I' for Inactive)
REMARK    1  A    between atoms: C_3  and  C_4 
REMARK    2  A    between atoms: C_4  and  N_5 
REMARK    3  A    between atoms: C_9  and  C_10 
REMARK    4  A    between atoms: C_13  and  C_14 
REMARK    5  A    between atoms: C_14  and  N_15 
ROOT
HETATM    1  N   UNL     1      43.474 -17.896   5.339  1.00  0.00    -0.067 N 
HETATM    2  H   UNL     1      43.422 -17.821   6.363  1.00  0.00     0.280 HD
HETATM    3  C   UNL     1      43.735 -16.509   4.799  1.00  0.00     0.236 C 
HETATM    4  C   UNL     1      42.532 -15.601   5.025  1.00  0.00     0.040 C 
HETATM    5  C   UNL     1      41.228 -16.175   4.462  1.00  0.00     0.060 C 
HETATM    6  C   UNL     1      41.007 -17.582   5.029  1.00  0.00     0.040 C 
HETATM    7  C   UNL     1      42.197 -18.517   4.836  1.00  0.00     0.236 C 
ENDROOT
BRANCH   5   8
HETATM    8  C   UNL     1      41.240 -16.174   2.957  1.00  0.00     0.134 A 
HETATM    9  N   UNL     1      41.460 -15.090   2.136  1.00  0.00    -0.323 N 
HETATM   10  C   UNL     1      41.727 -13.733   2.548  1.00  0.00     0.159 C 
HETATM   11  C   UNL     1      41.377 -15.571   0.850  1.00  0.00     0.155 A 
HETATM   12  N   UNL     1      41.155 -16.869   0.896  1.00  0.00    -0.133 NA
HETATM   13  N   UNL     1      41.064 -17.239   2.203  1.00  0.00    -0.134 NA
BRANCH  11  14
HETATM   14  C   UNL     1      41.515 -14.792  -0.415  1.00  0.00     0.315 C 
BRANCH  14  15
HETATM   15  N   UNL     1      40.387 -15.118  -1.380  1.00  0.00    -0.064 N 
HETATM   16  H   UNL     1      39.872 -15.885  -0.917  1.00  0.00     0.280 HD
HETATM   17  C   UNL     1      39.403 -13.980  -1.526  1.00  0.00     0.235 C 
HETATM   18  C   UNL     1      38.205 -14.451  -2.338  1.00  0.00     0.028 C 
HETATM   19  C   UNL     1      38.630 -15.006  -3.692  1.00  0.00     0.003 C 
HETATM   20  C   UNL     1      39.681 -16.099  -3.537  1.00  0.00     0.028 C 
HETATM   21  C   UNL     1      40.871 -15.630  -2.710  1.00  0.00     0.235 C 
ENDBRANCH  14  15
ENDBRANCH  11  14
ENDBRANCH   5   8
BRANCH   1  22
HETATM   22  C   UNL     1      44.641 -18.839   5.053  1.00  0.00     0.273 C 
BRANCH  22  23
HETATM   23  C   UNL     1      44.382 -19.816   3.937  1.00  0.00    -0.027 A 
HETATM   24  C   UNL     1      44.534 -21.210   4.083  1.00  0.00    -0.054 A 
HETATM   25  C   UNL     1      44.936 -21.886   5.367  1.00  0.00     0.049 C 
HETATM   26  C   UNL     1      44.319 -22.038   2.967  1.00  0.00     0.007 A 
HETATM   27  C   UNL     1      43.941 -21.508   1.735  1.00  0.00     0.001 A 
HETATM   28  C   UNL     1      43.771 -20.138   1.593  1.00  0.00     0.001 A 
HETATM   29  C   UNL     1      43.989 -19.298   2.683  1.00  0.00     0.009 A 
ENDBRANCH  22  23
ENDBRANCH   1  22
TORSDOF 5
ENDMDL
MODEL 4
REMARK VINA RESULT:      -8.8      2.287      3.324
REMARK  5 active torsions:
REMARK  status: ('A' for Active; 'I' for Inactive)
REMARK    1  A    between atoms: C_3  and  C_4 
REMARK    2  A    between atoms: C_4  and  N_5 
REMARK    3  A    between atoms: C_9  and  C_10 
REMARK    4  A    between atoms: C_13  and  C_14 
REMARK    5  A    between atoms: C_14  and  N_15 
ROOT
HETATM    1  N   UNL     1      42.555 -17.943   2.881  1.00  0.00    -0.067 N 
HETATM    2  H   UNL     1      42.040 -18.748   3.260  1.00  0.00     0.280 HD
HETATM    3  C   UNL     1      42.583 -16.880   3.954  1.00  0.00     0.236 C 
HETATM    4  C   UNL     1      41.187 -16.319   4.201  1.00  0.00     0.040 C 
HETATM    5  C   UNL     1      40.511 -15.800   2.928  1.00  0.00     0.060 C 
HETATM    6  C   UNL     1      40.513 -16.906   1.866  1.00  0.00     0.040 C 
HETATM    7  C   UNL     1      41.890 -17.503   1.602  1.00  0.00     0.236 C 
ENDROOT
BRANCH   5   8
HETATM    8  C   UNL     1      41.180 -14.547   2.431  1.00  0.00     0.134 A 
HETATM    9  N   UNL     1      40.592 -13.528   1.714  1.00  0.00    -0.323 N 
HETATM   10  C   UNL     1      39.214 -13.450   1.295  1.00  0.00     0.159 C 
HETATM   11  C   UNL     1      41.587 -12.606   1.488  1.00  0.00     0.155 A 
HETATM   12  N   UNL     1      42.695 -13.028   2.063  1.00  0.00    -0.133 NA
HETATM   13  N   UNL     1      42.442 -14.234   2.640  1.00  0.00    -0.134 NA
BRANCH  11  14
HETATM   14  C   UNL     1      41.474 -11.325   0.731  1.00  0.00     0.315 C 
BRANCH  14  15
HETATM   15  N   UNL     1      42.132 -11.442  -0.634  1.00  0.00    -0.064 N 
HETATM   16  H   UNL     1      43.143 -11.480  -0.426  1.00  0.00     0.280 HD
HETATM   17  C   UNL     1      41.797 -12.741  -1.330  1.00  0.00     0.235 C 
HETATM   18  C   UNL     1      42.646 -12.875  -2.585  1.00  0.00     0.028 C 
HETATM   19  C   UNL     1      42.468 -11.678  -3.512  1.00  0.00     0.003 C 
HETATM   20  C   UNL     1      42.731 -10.367  -2.779  1.00  0.00     0.028 C 
HETATM   21  C   UNL     1      41.892 -10.244  -1.514  1.00  0.00     0.235 C 
ENDBRANCH  14  15
ENDBRANCH  11  14
ENDBRANCH   5   8
BRANCH   1  22
HETATM   22  C   UNL     1      43.957 -18.462   2.568  1.00  0.00     0.273 C 
BRANCH  22  23
HETATM   23  C   UNL     1      44.195 -19.887   2.995  1.00  0.00    -0.027 A 
HETATM   24  C   UNL     1      44.645 -20.240   4.284  1.00  0.00    -0.054 A 
HETATM   25  C   UNL     1      44.906 -19.250   5.388  1.00  0.00     0.049 C 
HETATM   26  C   UNL     1      44.888 -21.595   4.572  1.00  0.00     0.007 A 
HETATM   27  C   UNL     1      44.672 -22.587   3.618  1.00  0.00     0.001 A 
HETATM   28  C   UNL     1      44.211 -22.245   2.355  1.00  0.00     0.001 A 
HETATM   29  C   UNL     1      43.973 -20.907   2.044  1.00  0.00     0.009 A 
ENDBRANCH  22  23
ENDBRANCH   1  22
TORSDOF 5
ENDMDL
MODEL 5
REMARK VINA RESULT:      -8.5      2.761      5.373
REMARK  5 active torsions:
REMARK  status: ('A' for Active; 'I' for Inactive)
REMARK    1  A    between atoms: C_3  and  C_4 
REMARK    2  A    between atoms: C_4  and  N_5 
REMARK    3  A    between atoms: C_9  and  C_10 
REMARK    4  A    between atoms: C_13  and  C_14 
REMARK    5  A    between atoms: C_14  and  N_15 
ROOT
HETATM    1  N   UNL     1      42.590 -17.836   2.183  1.00  0.00    -0.067 N 
HETATM    2  H   UNL     1      42.166 -18.736   1.922  1.00  0.00     0.280 HD
HETATM    3  C   UNL     1      41.648 -17.157   3.150  1.00  0.00     0.236 C 
HETATM    4  C   UNL     1      40.355 -16.748   2.454  1.00  0.00     0.040 C 
HETATM    5  C   UNL     1      40.585 -15.884   1.211  1.00  0.00     0.060 C 
HETATM    6  C   UNL     1      41.551 -16.606   0.263  1.00  0.00     0.040 C 
HETATM    7  C   UNL     1      42.851 -17.045   0.927  1.00  0.00     0.236 C 
ENDROOT
BRANCH   5   8
HETATM    8  C   UNL     1      41.089 -14.517   1.586  1.00  0.00     0.134 A 
HETATM    9  N   UNL     1      40.323 -13.409   1.880  1.00  0.00    -0.323 N 
HETATM   10  C   UNL     1      38.883 -13.333   1.892  1.00  0.00     0.159 C 
HETATM   11  C   UNL     1      41.215 -12.402   2.164  1.00  0.00     0.155 A 
HETATM   12  N   UNL     1      42.439 -12.882   2.078  1.00  0.00    -0.133 NA
HETATM   13  N   UNL     1      42.358 -14.191   1.714  1.00  0.00    -0.134 NA
BRANCH  11  14
HETATM   14  C   UNL     1      40.896 -10.988   2.519  1.00  0.00     0.315 C 
BRANCH  14  15
HETATM   15  N   UNL     1      41.314 -10.679   3.947  1.00  0.00    -0.064 N 
HETATM   16  H   UNL     1      42.343 -10.773   3.936  1.00  0.00     0.280 HD
HETATM   17  C   UNL     1      41.028  -9.247   4.338  1.00  0.00     0.235 C 
HETATM   18  C   UNL     1      41.654  -8.959   5.694  1.00  0.00     0.028 C 
HETATM   19  C   UNL     1      41.168  -9.940   6.755  1.00  0.00     0.003 C 
HETATM   20  C   UNL     1      41.390 -11.384   6.316  1.00  0.00     0.028 C 
HETATM   21  C   UNL     1      40.776 -11.664   4.951  1.00  0.00     0.235 C 
ENDBRANCH  14  15
ENDBRANCH  11  14
ENDBRANCH   5   8
BRANCH   1  22
HETATM   22  C   UNL     1      43.921 -18.184   2.846  1.00  0.00     0.273 C 
BRANCH  22  23
HETATM   23  C   UNL     1      44.127 -19.659   3.073  1.00  0.00    -0.027 A 
HETATM   24  C   UNL     1      44.591 -20.192   4.293  1.00  0.00    -0.054 A 
HETATM   25  C   UNL     1      44.899 -19.365   5.514  1.00  0.00     0.049 C 
HETATM   26  C   UNL     1      44.803 -21.579   4.393  1.00  0.00     0.007 A 
HETATM   27  C   UNL     1      44.543 -22.428   3.320  1.00  0.00     0.001 A 
HETATM   28  C   UNL     1      44.068 -21.909   2.124  1.00  0.00     0.001 A 
HETATM   29  C   UNL     1      43.862 -20.537   2.000  1.00  0.00     0.009 A 
ENDBRANCH  22  23
ENDBRANCH   1  22
TORSDOF 5
ENDMDL
MODEL 6
REMARK VINA RESULT:      -8.5      2.163      2.792
REMARK  5 active torsions:
REMARK  status: ('A' for Active; 'I' for Inactive)
REMARK    1  A    between atoms: C_3  and  C_4 
REMARK    2  A    between atoms: C_4  and  N_5 
REMARK    3  A    between atoms: C_9  and  C_10 
REMARK    4  A    between atoms: C_13  and  C_14 
REMARK    5  A    between atoms: C_14  and  N_15 
ROOT
HETATM    1  N   UNL     1      42.648 -18.386   2.746  1.00  0.00    -0.067 N 
HETATM    2  H   UNL     1      42.090 -19.205   3.019  1.00  0.00     0.280 HD
HETATM    3  C   UNL     1      42.527 -17.367   3.855  1.00  0.00     0.236 C 
HETATM    4  C   UNL     1      41.108 -16.815   3.933  1.00  0.00     0.040 C 
HETATM    5  C   UNL     1      40.608 -16.243   2.603  1.00  0.00     0.060 C 
HETATM    6  C   UNL     1      40.757 -17.306   1.508  1.00  0.00     0.040 C 
HETATM    7  C   UNL     1      42.160 -17.894   1.408  1.00  0.00     0.236 C 
ENDROOT
BRANCH   5   8
HETATM    8  C   UNL     1      41.333 -14.972   2.252  1.00  0.00     0.134 A 
HETATM    9  N   UNL     1      40.849 -13.933   1.488  1.00  0.00    -0.323 N 
HETATM   10  C   UNL     1      39.548 -13.846   0.870  1.00  0.00     0.159 C 
HETATM   11  C   UNL     1      41.859 -13.000   1.443  1.00  0.00     0.155 A 
HETATM   12  N   UNL     1      42.872 -13.436   2.163  1.00  0.00    -0.133 NA
HETATM   13  N   UNL     1      42.546 -14.662   2.657  1.00  0.00    -0.134 NA
BRANCH  11  14
HETATM   14  C   UNL     1      41.849 -11.695   0.719  1.00  0.00     0.315 C 
BRANCH  14  15
HETATM   15  N   UNL     1      41.685 -11.905  -0.777  1.00  0.00    -0.064 N 
HETATM   16  H   UNL     1      40.882 -12.552  -0.855  1.00  0.00     0.280 HD
HETATM   17  C   UNL     1      41.277 -10.641  -1.499  1.00  0.00     0.235 C 
HETATM   18  C   UNL     1      40.934 -10.973  -2.943  1.00  0.00     0.028 C 
HETATM   19  C   UNL     1      42.090 -11.675  -3.646  1.00  0.00     0.003 C 
HETATM   20  C   UNL     1      42.546 -12.905  -2.869  1.00  0.00     0.028 C 
HETATM   21  C   UNL     1      42.873 -12.572  -1.419  1.00  0.00     0.235 C 
ENDBRANCH  14  15
ENDBRANCH  11  14
ENDBRANCH   5   8
BRANCH   1  22
HETATM   22  C   UNL     1      44.081 -18.894   2.604  1.00  0.00     0.273 C 
BRANCH  22  23
HETATM   23  C   UNL     1      44.354 -20.179   3.341  1.00  0.00    -0.027 A 
HETATM   24  C   UNL     1      44.296 -21.446   2.725  1.00  0.00    -0.054 A 
HETATM   25  C   UNL     1      43.993 -21.664   1.266  1.00  0.00     0.049 C 
HETATM   26  C   UNL     1      44.516 -22.594   3.508  1.00  0.00     0.007 A 
HETATM   27  C   UNL     1      44.807 -22.496   4.867  1.00  0.00     0.001 A 
HETATM   28  C   UNL     1      44.884 -21.250   5.472  1.00  0.00     0.001 A 
HETATM   29  C   UNL     1      44.660 -20.101   4.717  1.00  0.00     0.009 A 
ENDBRANCH  22  23
ENDBRANCH   1  22
TORSDOF 5
ENDMDL
MODEL 7
REMARK VINA RESULT:      -8.2      1.866      2.999
REMARK  5 active torsions:
REMARK  status: ('A' for Active; 'I' for Inactive)
REMARK    1  A    between atoms: C_3  and  C_4 
REMARK    2  A    between atoms: C_4  and  N_5 
REMARK    3  A    between atoms: C_9  and  C_10 
REMARK    4  A    between atoms: C_13  and  C_14 
REMARK    5  A    between atoms: C_14  and  N_15 
ROOT
HETATM    1  N   UNL     1      41.861 -15.500   6.242  1.00  0.00    -0.067 N 
HETATM    2  H   UNL     1      41.908 -14.898   7.074  1.00  0.00     0.280 HD
HETATM    3  C   UNL     1      42.839 -14.949   5.231  1.00  0.00     0.236 C 
HETATM    4  C   UNL     1      42.376 -13.593   4.710  1.00  0.00     0.040 C 
HETATM    5  C   UNL     1      40.953 -13.617   4.144  1.00  0.00     0.060 C 
HETATM    6  C   UNL     1      39.998 -14.190   5.198  1.00  0.00     0.040 C 
HETATM    7  C   UNL     1      40.436 -15.540   5.755  1.00  0.00     0.236 C 
ENDROOT
BRANCH   5   8
HETATM    8  C   UNL     1      40.895 -14.393   2.856  1.00  0.00     0.134 A 
HETATM    9  N   UNL     1      41.413 -14.009   1.639  1.00  0.00    -0.323 N 
HETATM   10  C   UNL     1      42.121 -12.785   1.348  1.00  0.00     0.159 C 
HETATM   11  C   UNL     1      41.121 -15.031   0.767  1.00  0.00     0.155 A 
HETATM   12  N   UNL     1      40.495 -15.985   1.426  1.00  0.00    -0.133 NA
HETATM   13  N   UNL     1      40.351 -15.584   2.719  1.00  0.00    -0.134 NA
BRANCH  11  14
HETATM   14  C   UNL     1      41.443 -15.095  -0.689  1.00  0.00     0.315 C 
BRANCH  14  15
HETATM   15  N   UNL     1      40.175 -15.123  -1.525  1.00  0.00    -0.064 N 
HETATM   16  H   UNL     1      39.607 -15.874  -1.099  1.00  0.00     0.280 HD
HETATM   17  C   UNL     1      39.363 -13.855  -1.391  1.00  0.00     0.235 C 
HETATM   18  C   UNL     1      38.023 -14.038  -2.086  1.00  0.00     0.028 C 
HETATM   19  C   UNL     1      38.199 -14.442  -3.546  1.00  0.00     0.003 C 
HETATM   20  C   UNL     1      39.084 -15.676  -3.675  1.00  0.00     0.028 C 
HETATM   21  C   UNL     1      40.419 -15.496  -2.964  1.00  0.00     0.235 C 
ENDBRANCH  14  15
ENDBRANCH  11  14
ENDBRANCH   5   8
BRANCH   1  22
HETATM   22  C   UNL     1      42.271 -16.892   6.718  1.00  0.00     0.273 C 
BRANCH  22  23
HETATM   23  C   UNL     1      42.923 -17.738   5.656  1.00  0.00    -0.027 A 
HETATM   24  C   UNL     1      44.252 -18.201   5.748  1.00  0.00    -0.054 A 
HETATM   25  C   UNL     1      45.158 -17.939   6.921  1.00  0.00     0.049 C 
HETATM   26  C   UNL     1      44.789 -18.942   4.680  1.00  0.00     0.007 A 
HETATM   27  C   UNL     1      44.028 -19.240   3.552  1.00  0.00     0.001 A 
HETATM   28  C   UNL     1      42.714 -18.802   3.466  1.00  0.00     0.001 A 
HETATM   29  C   UNL     1      42.165 -18.058   4.508  1.00  0.00     0.009 A 
ENDBRANCH  22  23
ENDBRANCH   1  22
TORSDOF 5
ENDMDL
MODEL 8
REMARK VINA RESULT:      -8.1      4.657      7.581
REMARK  5 active torsions:
REMARK  status: ('A' for Active; 'I' for Inactive)
REMARK    1  A    between atoms: C_3  and  C_4 
REMARK    2  A    between atoms: C_4  and  N_5 
REMARK    3  A    between atoms: C_9  and  C_10 
REMARK    4  A    between atoms: C_13  and  C_14 
REMARK    5  A    between atoms: C_14  and  N_15 
ROOT
HETATM    1  N   UNL     1      42.266 -16.117   3.926  1.00  0.00    -0.067 N 
HETATM    2  H   UNL     1      42.726 -16.307   3.027  1.00  0.00     0.280 HD
HETATM    3  C   UNL     1      40.833 -15.742   3.630  1.00  0.00     0.236 C 
HETATM    4  C   UNL     1      40.760 -14.401   2.907  1.00  0.00     0.040 C 
HETATM    5  C   UNL     1      41.481 -13.274   3.652  1.00  0.00     0.060 C 
HETATM    6  C   UNL     1      42.926 -13.700   3.939  1.00  0.00     0.040 C 
HETATM    7  C   UNL     1      43.041 -15.045   4.648  1.00  0.00     0.236 C 
ENDROOT
BRANCH   5   8
HETATM    8  C   UNL     1      40.748 -12.900   4.912  1.00  0.00     0.134 A 
HETATM    9  N   UNL     1      40.783 -11.681   5.554  1.00  0.00    -0.323 N 
HETATM   10  C   UNL     1      41.526 -10.512   5.149  1.00  0.00     0.159 C 
HETATM   11  C   UNL     1      39.962 -11.811   6.649  1.00  0.00     0.155 A 
HETATM   12  N   UNL     1      39.440 -13.021   6.647  1.00  0.00    -0.133 NA
HETATM   13  N   UNL     1      39.934 -13.696   5.573  1.00  0.00    -0.134 NA
BRANCH  11  14
HETATM   14  C   UNL     1      39.676 -10.780   7.689  1.00  0.00     0.315 C 
BRANCH  14  15
HETATM   15  N   UNL     1      40.519 -11.012   8.932  1.00  0.00    -0.064 N 
HETATM   16  H   UNL     1      40.691 -12.032   8.934  1.00  0.00     0.280 HD
HETATM   17  C   UNL     1      41.878 -10.358   8.841  1.00  0.00     0.235 C 
HETATM   18  C   UNL     1      42.732 -10.802  10.019  1.00  0.00     0.028 C 
HETATM   19  C   UNL     1      42.050 -10.503  11.349  1.00  0.00     0.003 C 
HETATM   20  C   UNL     1      40.649 -11.101  11.399  1.00  0.00     0.028 C 
HETATM   21  C   UNL     1      39.802 -10.667  10.210  1.00  0.00     0.235 C 
ENDBRANCH  14  15
ENDBRANCH  11  14
ENDBRANCH   5   8
BRANCH   1  22
HETATM   22  C   UNL     1      42.353 -17.421   4.716  1.00  0.00     0.273 C 
BRANCH  22  23
HETATM   23  C   UNL     1      43.095 -18.523   4.006  1.00  0.00    -0.027 A 
HETATM   24  C   UNL     1      44.145 -19.251   4.601  1.00  0.00    -0.054 A 
HETATM   25  C   UNL     1      44.623 -19.044   6.013  1.00  0.00     0.049 C 
HETATM   26  C   UNL     1      44.813 -20.227   3.839  1.00  0.00     0.007 A 
HETATM   27  C   UNL     1      44.441 -20.496   2.523  1.00  0.00     0.001 A 
HETATM   28  C   UNL     1      43.395 -19.794   1.941  1.00  0.00     0.001 A 
HETATM   29  C   UNL     1      42.727 -18.816   2.675  1.00  0.00     0.009 A 
ENDBRANCH  22  23
ENDBRANCH   1  22
TORSDOF 5
ENDMDL
MODEL 9
REMARK VINA RESULT:      -8.0      1.308      7.968
REMARK  5 active torsions:
REMARK  status: ('A' for Active; 'I' for Inactive)
REMARK    1  A    between atoms: C_3  and  C_4 
REMARK    2  A    between atoms: C_4  and  N_5 
REMARK    3  A    between atoms: C_9  and  C_10 
REMARK    4  A    between atoms: C_13  and  C_14 
REMARK    5  A    between atoms: C_14  and  N_15 
ROOT
HETATM    1  N   UNL     1      40.227 -13.871   0.613  1.00  0.00    -0.067 N 
HETATM    2  H   UNL     1      39.304 -13.420   0.638  1.00  0.00     0.280 HD
HETATM    3  C   UNL     1      40.015 -15.348   0.852  1.00  0.00     0.236 C 
HETATM    4  C   UNL     1      39.536 -15.605   2.276  1.00  0.00     0.040 C 
HETATM    5  C   UNL     1      40.457 -15.002   3.341  1.00  0.00     0.060 C 
HETATM    6  C   UNL     1      40.652 -13.507   3.055  1.00  0.00     0.040 C 
HETATM    7  C   UNL     1      41.116 -13.209   1.634  1.00  0.00     0.236 C 
ENDROOT
BRANCH   5   8
HETATM    8  C   UNL     1      41.770 -15.735   3.401  1.00  0.00     0.134 A 
HETATM    9  N   UNL     1      42.082 -16.799   4.218  1.00  0.00    -0.323 N 
HETATM   10  C   UNL     1      41.214 -17.432   5.182  1.00  0.00     0.159 C 
HETATM   11  C   UNL     1      43.382 -17.132   3.920  1.00  0.00     0.155 A 
HETATM   12  N   UNL     1      43.814 -16.339   2.960  1.00  0.00    -0.133 NA
HETATM   13  N   UNL     1      42.815 -15.470   2.645  1.00  0.00    -0.134 NA
BRANCH  11  14
HETATM   14  C   UNL     1      44.205 -18.207   4.548  1.00  0.00     0.315 C 
BRANCH  14  15
HETATM   15  N   UNL     1      43.974 -19.541   3.860  1.00  0.00    -0.064 N 
HETATM   16  H   UNL     1      43.037 -19.835   4.185  1.00  0.00     0.280 HD
HETATM   17  C   UNL     1      43.873 -19.409   2.357  1.00  0.00     0.235 C 
HETATM   18  C   UNL     1      43.439 -20.740   1.761  1.00  0.00     0.028 C 
HETATM   19  C   UNL     1      44.382 -21.868   2.165  1.00  0.00     0.003 C 
HETATM   20  C   UNL     1      44.538 -21.942   3.680  1.00  0.00     0.028 C 
HETATM   21  C   UNL     1      44.956 -20.604   4.275  1.00  0.00     0.235 C 
ENDBRANCH  14  15
ENDBRANCH  11  14
ENDBRANCH   5   8
BRANCH   1  22
HETATM   22  C   UNL     1      40.779 -13.603  -0.786  1.00  0.00     0.273 C 
BRANCH  22  23
HETATM   23  C   UNL     1      40.056 -14.339  -1.884  1.00  0.00    -0.027 A 
HETATM   24  C   UNL     1      38.738 -14.030  -2.278  1.00  0.00    -0.054 A 
HETATM   25  C   UNL     1      37.916 -12.918  -1.682  1.00  0.00     0.049 C 
HETATM   26  C   UNL     1      38.127 -14.808  -3.279  1.00  0.00     0.007 A 
HETATM   27  C   UNL     1      38.807 -15.856  -3.894  1.00  0.00     0.001 A 
HETATM   28  C   UNL     1      40.111 -16.151  -3.522  1.00  0.00     0.001 A 
HETATM   29  C   UNL     1      40.731 -15.399  -2.525  1.00  0.00     0.009 A 
ENDBRANCH  22  23
ENDBRANCH   1  22
TORSDOF 5
ENDMDL
MODEL 10
REMARK VINA RESULT:      -7.9      3.331      6.132
REMARK  5 active torsions:
REMARK  status: ('A' for Active; 'I' for Inactive)
REMARK    1  A    between atoms: C_3  and  C_4 
REMARK    2  A    between atoms: C_4  and  N_5 
REMARK    3  A    between atoms: C_9  and  C_10 
REMARK    4  A    between atoms: C_13  and  C_14 
REMARK    5  A    between atoms: C_14  and  N_15 
ROOT
HETATM    1  N   UNL     1      43.058 -17.959   3.209  1.00  0.00    -0.067 N 
HETATM    2  H   UNL     1      42.738 -18.715   2.591  1.00  0.00     0.280 HD
HETATM    3  C   UNL     1      41.858 -17.475   3.989  1.00  0.00     0.236 C 
HETATM    4  C   UNL     1      40.857 -16.781   3.071  1.00  0.00     0.040 C 
HETATM    5  C   UNL     1      41.476 -15.644   2.253  1.00  0.00     0.060 C 
HETATM    6  C   UNL     1      42.693 -16.177   1.486  1.00  0.00     0.040 C 
HETATM    7  C   UNL     1      43.710 -16.891   2.368  1.00  0.00     0.236 C 
ENDROOT
BRANCH   5   8
HETATM    8  C   UNL     1      41.835 -14.477   3.131  1.00  0.00     0.134 A 
HETATM    9  N   UNL     1      41.050 -13.377   3.402  1.00  0.00    -0.323 N 
HETATM   10  C   UNL     1      39.720 -13.121   2.903  1.00  0.00     0.159 C 
HETATM   11  C   UNL     1      41.792 -12.586   4.246  1.00  0.00     0.155 A 
HETATM   12  N   UNL     1      42.938 -13.186   4.494  1.00  0.00    -0.133 NA
HETATM   13  N   UNL     1      42.965 -14.355   3.796  1.00  0.00    -0.134 NA
BRANCH  11  14
HETATM   14  C   UNL     1      41.402 -11.262   4.816  1.00  0.00     0.315 C 
BRANCH  14  15
HETATM   15  N   UNL     1      41.060 -11.385   6.292  1.00  0.00    -0.064 N 
HETATM   16  H   UNL     1      41.484 -12.284   6.576  1.00  0.00     0.280 HD
HETATM   17  C   UNL     1      41.729 -10.322   7.133  1.00  0.00     0.235 C 
HETATM   18  C   UNL     1      41.508 -10.631   8.606  1.00  0.00     0.028 C 
HETATM   19  C   UNL     1      40.025 -10.760   8.935  1.00  0.00     0.003 C 
HETATM   20  C   UNL     1      39.344 -11.778   8.028  1.00  0.00     0.028 C 
HETATM   21  C   UNL     1      39.580 -11.475   6.554  1.00  0.00     0.235 C 
ENDBRANCH  14  15
ENDBRANCH  11  14
ENDBRANCH   5   8
BRANCH   1  22
HETATM   22  C   UNL     1      44.105 -18.590   4.125  1.00  0.00     0.273 C 
BRANCH  22  23
HETATM   23  C   UNL     1      44.301 -20.067   3.908  1.00  0.00    -0.027 A 
HETATM   24  C   UNL     1      44.395 -20.995   4.966  1.00  0.00    -0.054 A 
HETATM   25  C   UNL     1      44.277 -20.630   6.423  1.00  0.00     0.049 C 
HETATM   26  C   UNL     1      44.631 -22.348   4.666  1.00  0.00     0.007 A 
HETATM   27  C   UNL     1      44.751 -22.785   3.348  1.00  0.00     0.001 A 
HETATM   28  C   UNL     1      44.639 -21.879   2.304  1.00  0.00     0.001 A 
HETATM   29  C   UNL     1      44.416 -20.531   2.580  1.00  0.00     0.009 A 
ENDBRANCH  22  23
ENDBRANCH   1  22
TORSDOF 5
ENDMDL
