MODEL 1
REMARK VINA RESULT:      -8.5      0.000      0.000
REMARK  10 active torsions:
REMARK  status: ('A' for Active; 'I' for Inactive)
REMARK    1  A    between atoms: C_6  and  C_7 
REMARK    2  A    between atoms: C_7  and  N_8 
REMARK    3  A    between atoms: N_8  and  C_10 
REMARK    4  A    between atoms: N_8  and  C_20 
REMARK    5  A    between atoms: C_10  and  C_11 
REMARK    6  A    between atoms: N_12  and  C_13 
REMARK    7  A    between atoms: C_20  and  C_21 
REMARK    8  A    between atoms: C_21  and  C_22 
REMARK    9  A    between atoms: C_22  and  N_23 
REMARK   10  A    between atoms: C_30  and  O_31 
ROOT
HETATM    1  N   UNL     1      40.261 -14.944   1.864  1.00  0.00    -0.060 N 
HETATM    2  H   UNL     1      40.331 -14.967   2.892  1.00  0.00     0.280 HD
ENDROOT
BRANCH   1   3
HETATM    3  C   UNL     1      40.574 -16.389   1.447  1.00  0.00     0.278 C 
BRANCH   3   4
HETATM    4  C   UNL     1      41.402 -17.220   2.372  1.00  0.00     0.021 A 
HETATM    5  C   UNL     1      42.352 -18.125   1.894  1.00  0.00     0.027 A 
HETATM    6  C   UNL     1      43.157 -18.853   2.787  1.00  0.00    -0.006 A 
HETATM    7  C   UNL     1      42.980 -18.651   4.176  1.00  0.00     0.075 A 
HETATM    8  C   UNL     1      44.129 -19.749   2.314  1.00  0.00     0.014 A 
HETATM    9  C   UNL     1      43.791 -19.373   5.061  1.00  0.00    -0.032 A 
HETATM   10  N   UNL     1      42.057 -17.779   4.632  1.00  0.00    -0.223 NA
HETATM   11  C   UNL     1      43.696 -19.171   6.551  1.00  0.00     0.050 C 
HETATM   12  C   UNL     1      44.767 -20.258   4.574  1.00  0.00     0.009 A 
HETATM   13  C   UNL     1      44.932 -20.447   3.207  1.00  0.00     0.002 A 
HETATM   14  C   UNL     1      41.329 -17.100   3.744  1.00  0.00     0.170 A 
BRANCH  14  15
HETATM   15  O   UNL     1      40.471 -16.237   4.339  1.00  0.00    -0.344 OA
HETATM   16  H   UNL     1      39.640 -16.551   3.919  1.00  0.00     0.219 HD
ENDBRANCH  14  15
ENDBRANCH   3   4
ENDBRANCH   1   3
BRANCH   1  17
HETATM   17  C   UNL     1      41.412 -13.969   1.495  1.00  0.00     0.316 C 
BRANCH  17  18
HETATM   18  C   UNL     1      42.244 -13.678   2.684  1.00  0.00     0.163 A 
HETATM   19  N   UNL     1      41.989 -12.834   3.742  1.00  0.00    -0.253 N 
HETATM   20  N   UNL     1      43.074 -12.848   4.545  1.00  0.00    -0.002 NA
HETATM   21  N   UNL     1      43.915 -13.727   4.031  1.00  0.00     0.018 NA
HETATM   22  N   UNL     1      43.411 -14.263   2.887  1.00  0.00    -0.145 NA
BRANCH  19  23
HETATM   23  C   UNL     1      40.848 -11.990   4.130  1.00  0.00     0.042 C 
HETATM   24  C   UNL     1      40.258 -11.163   2.973  1.00  0.00     0.039 C 
HETATM   25  C   UNL     1      39.707 -12.884   4.671  1.00  0.00     0.039 C 
HETATM   26  C   UNL     1      41.292 -11.014   5.236  1.00  0.00     0.039 C 
ENDBRANCH  19  23
ENDBRANCH  17  18
ENDBRANCH   1  17
BRANCH   1  27
HETATM   27  C   UNL     1      38.918 -14.400   1.449  1.00  0.00     0.237 C 
BRANCH  27  28
HETATM   28  C   UNL     1      38.954 -13.370   0.305  1.00  0.00     0.055 C 
BRANCH  28  29
HETATM   29  C   UNL     1      38.048 -13.694  -0.884  1.00  0.00     0.236 C 
BRANCH  29  30
HETATM   30  N   UNL     1      38.696 -14.724  -1.790  1.00  0.00    -0.067 N 
HETATM   31  H   UNL     1      38.604 -15.662  -1.373  1.00  0.00     0.280 HD
HETATM   32  C   UNL     1      37.988 -14.805  -3.158  1.00  0.00     0.261 C 
HETATM   33  C   UNL     1      38.657 -15.877  -4.025  1.00  0.00     0.195 C 
HETATM   34  O   UNL     1      40.045 -15.587  -4.201  1.00  0.00    -0.388 OA
HETATM   35  C   UNL     1      40.752 -15.577  -2.959  1.00  0.00     0.195 C 
HETATM   36  C   UNL     1      40.198 -14.490  -2.030  1.00  0.00     0.261 C 
ENDBRANCH  29  30
ENDBRANCH  28  29
ENDBRANCH  27  28
ENDBRANCH   1  27
TORSDOF 10
ENDMDL
MODEL 2
REMARK VINA RESULT:      -8.4      1.981      2.833
REMARK  10 active torsions:
REMARK  status: ('A' for Active; 'I' for Inactive)
REMARK    1  A    between atoms: C_6  and  C_7 
REMARK    2  A    between atoms: C_7  and  N_8 
REMARK    3  A    between atoms: N_8  and  C_10 
REMARK    4  A    between atoms: N_8  and  C_20 
REMARK    5  A    between atoms: C_10  and  C_11 
REMARK    6  A    between atoms: N_12  and  C_13 
REMARK    7  A    between atoms: C_20  and  C_21 
REMARK    8  A    between atoms: C_21  and  C_22 
REMARK    9  A    between atoms: C_22  and  N_23 
REMARK   10  A    between atoms: C_30  and  O_31 
ROOT
HETATM    1  N   UNL     1      40.238 -15.487   3.141  1.00  0.00    -0.060 N 
HETATM    2  H   UNL     1      40.004 -16.452   3.412  1.00  0.00     0.280 HD
ENDROOT
BRANCH   1   3
HETATM    3  C   UNL     1      41.678 -15.596   2.616  1.00  0.00     0.278 C 
BRANCH   3   4
HETATM    4  C   UNL     1      42.310 -16.950   2.587  1.00  0.00     0.021 A 
HETATM    5  C   UNL     1      43.228 -17.351   3.561  1.00  0.00     0.027 A 
HETATM    6  C   UNL     1      43.764 -18.650   3.542  1.00  0.00    -0.006 A 
HETATM    7  C   UNL     1      43.358 -19.536   2.517  1.00  0.00     0.075 A 
HETATM    8  C   UNL     1      44.671 -19.068   4.530  1.00  0.00     0.014 A 
HETATM    9  C   UNL     1      43.890 -20.832   2.510  1.00  0.00    -0.032 A 
HETATM   10  N   UNL     1      42.475 -19.141   1.577  1.00  0.00    -0.223 NA
HETATM   11  C   UNL     1      43.464 -21.847   1.481  1.00  0.00     0.050 C 
HETATM   12  C   UNL     1      44.788 -21.241   3.510  1.00  0.00     0.009 A 
HETATM   13  C   UNL     1      45.179 -20.362   4.513  1.00  0.00     0.002 A 
HETATM   14  C   UNL     1      41.982 -17.903   1.647  1.00  0.00     0.170 A 
BRANCH  14  15
HETATM   15  O   UNL     1      41.083 -17.655   0.665  1.00  0.00    -0.344 OA
HETATM   16  H   UNL     1      41.707 -17.622  -0.094  1.00  0.00     0.219 HD
ENDBRANCH  14  15
ENDBRANCH   3   4
ENDBRANCH   1   3
BRANCH   1  17
HETATM   17  C   UNL     1      40.172 -14.755   4.509  1.00  0.00     0.316 C 
BRANCH  17  18
HETATM   18  C   UNL     1      41.009 -15.454   5.510  1.00  0.00     0.163 A 
HETATM   19  N   UNL     1      42.227 -15.087   6.039  1.00  0.00    -0.253 N 
HETATM   20  N   UNL     1      42.629 -16.079   6.861  1.00  0.00    -0.002 NA
HETATM   21  N   UNL     1      41.654 -16.969   6.888  1.00  0.00     0.018 NA
HETATM   22  N   UNL     1      40.635 -16.591   6.071  1.00  0.00    -0.145 NA
BRANCH  19  23
HETATM   23  C   UNL     1      43.100 -13.912   5.887  1.00  0.00     0.042 C 
HETATM   24  C   UNL     1      43.714 -13.765   4.482  1.00  0.00     0.039 C 
HETATM   25  C   UNL     1      42.283 -12.626   6.156  1.00  0.00     0.039 C 
HETATM   26  C   UNL     1      44.253 -14.002   6.905  1.00  0.00     0.039 C 
ENDBRANCH  19  23
ENDBRANCH  17  18
ENDBRANCH   1  17
BRANCH   1  27
HETATM   27  C   UNL     1      39.209 -14.955   2.177  1.00  0.00     0.237 C 
BRANCH  27  28
HETATM   28  C   UNL     1      39.770 -14.097   1.028  1.00  0.00     0.055 C 
BRANCH  28  29
HETATM   29  C   UNL     1      38.805 -13.865  -0.136  1.00  0.00     0.236 C 
BRANCH  29  30
HETATM   30  N   UNL     1      39.178 -14.727  -1.327  1.00  0.00    -0.067 N 
HETATM   31  H   UNL     1      38.849 -15.691  -1.176  1.00  0.00     0.280 HD
HETATM   32  C   UNL     1      38.485 -14.246  -2.617  1.00  0.00     0.261 C 
HETATM   33  C   UNL     1      38.869 -15.162  -3.784  1.00  0.00     0.195 C 
HETATM   34  O   UNL     1      40.287 -15.184  -3.961  1.00  0.00    -0.388 OA
HETATM   35  C   UNL     1      40.963 -15.696  -2.810  1.00  0.00     0.195 C 
HETATM   36  C   UNL     1      40.694 -14.811  -1.587  1.00  0.00     0.261 C 
ENDBRANCH  29  30
ENDBRANCH  28  29
ENDBRANCH  27  28
ENDBRANCH   1  27
TORSDOF 10
ENDMDL
MODEL 3
REMARK VINA RESULT:      -8.4      1.914      2.920
REMARK  10 active torsions:
REMARK  status: ('A' for Active; 'I' for Inactive)
REMARK    1  A    between atoms: C_6  and  C_7 
REMARK    2  A    between atoms: C_7  and  N_8 
REMARK    3  A    between atoms: N_8  and  C_10 
REMARK    4  A    between atoms: N_8  and  C_20 
REMARK    5  A    between atoms: C_10  and  C_11 
REMARK    6  A    between atoms: N_12  and  C_13 
REMARK    7  A    between atoms: C_20  and  C_21 
REMARK    8  A    between atoms: C_21  and  C_22 
REMARK    9  A    between atoms: C_22  and  N_23 
REMARK   10  A    between atoms: C_30  and  O_31 
ROOT
HETATM    1  N   UNL     1      42.407 -15.484   4.444  1.00  0.00    -0.060 N 
HETATM    2  H   UNL     1      42.673 -15.925   5.337  1.00  0.00     0.280 HD
ENDROOT
BRANCH   1   3
HETATM    3  C   UNL     1      43.356 -16.130   3.424  1.00  0.00     0.278 C 
BRANCH   3   4
HETATM    4  C   UNL     1      43.647 -17.589   3.565  1.00  0.00     0.021 A 
HETATM    5  C   UNL     1      43.522 -18.469   2.487  1.00  0.00     0.027 A 
HETATM    6  C   UNL     1      43.856 -19.826   2.633  1.00  0.00    -0.006 A 
HETATM    7  C   UNL     1      44.316 -20.279   3.891  1.00  0.00     0.075 A 
HETATM    8  C   UNL     1      43.753 -20.713   1.549  1.00  0.00     0.014 A 
HETATM    9  C   UNL     1      44.656 -21.631   4.027  1.00  0.00    -0.032 A 
HETATM   10  N   UNL     1      44.431 -19.425   4.929  1.00  0.00    -0.223 NA
HETATM   11  C   UNL     1      45.204 -22.174   5.321  1.00  0.00     0.050 C 
HETATM   12  C   UNL     1      44.559 -22.505   2.931  1.00  0.00     0.009 A 
HETATM   13  C   UNL     1      44.106 -22.048   1.700  1.00  0.00     0.002 A 
HETATM   14  C   UNL     1      44.116 -18.143   4.736  1.00  0.00     0.170 A 
BRANCH  14  15
HETATM   15  O   UNL     1      44.312 -17.396   5.849  1.00  0.00    -0.344 OA
HETATM   16  H   UNL     1      43.470 -17.605   6.311  1.00  0.00     0.219 HD
ENDBRANCH  14  15
ENDBRANCH   3   4
ENDBRANCH   1   3
BRANCH   1  17
HETATM   17  C   UNL     1      42.765 -13.997   4.712  1.00  0.00     0.316 C 
BRANCH  17  18
HETATM   18  C   UNL     1      42.310 -13.145   3.591  1.00  0.00     0.163 A 
HETATM   19  N   UNL     1      41.315 -12.193   3.566  1.00  0.00    -0.253 N 
HETATM   20  N   UNL     1      41.223 -11.733   2.300  1.00  0.00    -0.002 NA
HETATM   21  N   UNL     1      42.180 -12.327   1.610  1.00  0.00     0.018 NA
HETATM   22  N   UNL     1      42.874 -13.193   2.396  1.00  0.00    -0.145 NA
BRANCH  19  23
HETATM   23  C   UNL     1      40.409 -11.629   4.578  1.00  0.00     0.042 C 
HETATM   24  C   UNL     1      39.502 -12.673   5.257  1.00  0.00     0.039 C 
HETATM   25  C   UNL     1      41.240 -10.960   5.698  1.00  0.00     0.039 C 
HETATM   26  C   UNL     1      39.506 -10.571   3.917  1.00  0.00     0.039 C 
ENDBRANCH  19  23
ENDBRANCH  17  18
ENDBRANCH   1  17
BRANCH   1  27
HETATM   27  C   UNL     1      40.930 -15.664   4.198  1.00  0.00     0.237 C 
BRANCH  27  28
HETATM   28  C   UNL     1      40.548 -16.021   2.749  1.00  0.00     0.055 C 
BRANCH  28  29
HETATM   29  C   UNL     1      39.501 -15.104   2.114  1.00  0.00     0.236 C 
BRANCH  29  30
HETATM   30  N   UNL     1      40.086 -14.357   0.930  1.00  0.00    -0.067 N 
HETATM   31  H   UNL     1      40.735 -13.630   1.263  1.00  0.00     0.280 HD
HETATM   32  C   UNL     1      40.925 -15.285   0.029  1.00  0.00     0.261 C 
HETATM   33  C   UNL     1      41.517 -14.482  -1.134  1.00  0.00     0.195 C 
HETATM   34  O   UNL     1      40.480 -13.857  -1.893  1.00  0.00    -0.388 OA
HETATM   35  C   UNL     1      39.725 -12.931  -1.109  1.00  0.00     0.195 C 
HETATM   36  C   UNL     1      39.034 -13.647   0.058  1.00  0.00     0.261 C 
ENDBRANCH  29  30
ENDBRANCH  28  29
ENDBRANCH  27  28
ENDBRANCH   1  27
TORSDOF 10
ENDMDL
MODEL 4
REMARK VINA RESULT:      -8.4      1.623      2.017
REMARK  10 active torsions:
REMARK  status: ('A' for Active; 'I' for Inactive)
REMARK    1  A    between atoms: C_6  and  C_7 
REMARK    2  A    between atoms: C_7  and  N_8 
REMARK    3  A    between atoms: N_8  and  C_10 
REMARK    4  A    between atoms: N_8  and  C_20 
REMARK    5  A    between atoms: C_10  and  C_11 
REMARK    6  A    between atoms: N_12  and  C_13 
REMARK    7  A    between atoms: C_20  and  C_21 
REMARK    8  A    between atoms: C_21  and  C_22 
REMARK    9  A    between atoms: C_22  and  N_23 
REMARK   10  A    between atoms: C_30  and  O_31 
ROOT
HETATM    1  N   UNL     1      42.172 -15.659   1.746  1.00  0.00    -0.060 N 
HETATM    2  H   UNL     1      41.782 -15.984   2.643  1.00  0.00     0.280 HD
ENDROOT
BRANCH   1   3
HETATM    3  C   UNL     1      43.534 -16.367   1.666  1.00  0.00     0.278 C 
BRANCH   3   4
HETATM    4  C   UNL     1      43.698 -17.653   2.408  1.00  0.00     0.021 A 
HETATM    5  C   UNL     1      43.877 -18.867   1.741  1.00  0.00     0.027 A 
HETATM    6  C   UNL     1      44.087 -20.054   2.464  1.00  0.00    -0.006 A 
HETATM    7  C   UNL     1      44.108 -19.991   3.877  1.00  0.00     0.075 A 
HETATM    8  C   UNL     1      44.289 -21.275   1.800  1.00  0.00     0.014 A 
HETATM    9  C   UNL     1      44.326 -21.176   4.591  1.00  0.00    -0.032 A 
HETATM   10  N   UNL     1      43.930 -18.816   4.515  1.00  0.00    -0.223 NA
HETATM   11  C   UNL     1      44.415 -21.178   6.095  1.00  0.00     0.050 C 
HETATM   12  C   UNL     1      44.538 -22.389   3.914  1.00  0.00     0.009 A 
HETATM   13  C   UNL     1      44.515 -22.438   2.526  1.00  0.00     0.002 A 
HETATM   14  C   UNL     1      43.750 -17.715   3.784  1.00  0.00     0.170 A 
BRANCH  14  15
HETATM   15  O   UNL     1      43.622 -16.607   4.552  1.00  0.00    -0.344 OA
HETATM   16  H   UNL     1      43.681 -17.038   5.434  1.00  0.00     0.219 HD
ENDBRANCH  14  15
ENDBRANCH   3   4
ENDBRANCH   1   3
BRANCH   1  17
HETATM   17  C   UNL     1      42.323 -14.136   2.005  1.00  0.00     0.316 C 
BRANCH  17  18
HETATM   18  C   UNL     1      42.812 -13.891   3.380  1.00  0.00     0.163 A 
HETATM   19  N   UNL     1      42.099 -13.771   4.553  1.00  0.00    -0.253 N 
HETATM   20  N   UNL     1      42.978 -13.481   5.536  1.00  0.00    -0.002 NA
HETATM   21  N   UNL     1      44.180 -13.506   4.990  1.00  0.00     0.018 NA
HETATM   22  N   UNL     1      44.099 -13.775   3.659  1.00  0.00    -0.145 NA
BRANCH  19  23
HETATM   23  C   UNL     1      40.676 -13.890   4.905  1.00  0.00     0.042 C 
HETATM   24  C   UNL     1      39.715 -13.593   3.738  1.00  0.00     0.039 C 
HETATM   25  C   UNL     1      40.381 -15.334   5.373  1.00  0.00     0.039 C 
HETATM   26  C   UNL     1      40.353 -12.911   6.050  1.00  0.00     0.039 C 
ENDBRANCH  19  23
ENDBRANCH  17  18
ENDBRANCH   1  17
BRANCH   1  27
HETATM   27  C   UNL     1      41.201 -15.939   0.628  1.00  0.00     0.237 C 
BRANCH  27  28
HETATM   28  C   UNL     1      40.278 -14.765   0.254  1.00  0.00     0.055 C 
BRANCH  28  29
HETATM   29  C   UNL     1      40.383 -14.298  -1.198  1.00  0.00     0.236 C 
BRANCH  29  30
HETATM   30  N   UNL     1      39.423 -15.069  -2.084  1.00  0.00    -0.067 N 
HETATM   31  H   UNL     1      39.014 -15.852  -1.555  1.00  0.00     0.280 HD
HETATM   32  C   UNL     1      38.231 -14.196  -2.527  1.00  0.00     0.261 C 
HETATM   33  C   UNL     1      37.277 -15.025  -3.394  1.00  0.00     0.195 C 
HETATM   34  O   UNL     1      37.960 -15.549  -4.534  1.00  0.00    -0.388 OA
HETATM   35  C   UNL     1      39.027 -16.424  -4.165  1.00  0.00     0.195 C 
HETATM   36  C   UNL     1      40.080 -15.675  -3.338  1.00  0.00     0.261 C 
ENDBRANCH  29  30
ENDBRANCH  28  29
ENDBRANCH  27  28
ENDBRANCH   1  27
TORSDOF 10
ENDMDL
MODEL 5
REMARK VINA RESULT:      -8.2      2.576      5.998
REMARK  10 active torsions:
REMARK  status: ('A' for Active; 'I' for Inactive)
REMARK    1  A    between atoms: C_6  and  C_7 
REMARK    2  A    between atoms: C_7  and  N_8 
REMARK    3  A    between atoms: N_8  and  C_10 
REMARK    4  A    between atoms: N_8  and  C_20 
REMARK    5  A    between atoms: C_10  and  C_11 
REMARK    6  A    between atoms: N_12  and  C_13 
REMARK    7  A    between atoms: C_20  and  C_21 
REMARK    8  A    between atoms: C_21  and  C_22 
REMARK    9  A    between atoms: C_22  and  N_23 
REMARK   10  A    between atoms: C_30  and  O_31 
ROOT
HETATM    1  N   UNL     1      41.724 -15.019   2.563  1.00  0.00    -0.060 N 
HETATM    2  H   UNL     1      41.748 -14.041   2.886  1.00  0.00     0.280 HD
ENDROOT
BRANCH   1   3
HETATM    3  C   UNL     1      43.206 -15.415   2.491  1.00  0.00     0.278 C 
BRANCH   3   4
HETATM    4  C   UNL     1      43.548 -16.866   2.589  1.00  0.00     0.021 A 
HETATM    5  C   UNL     1      43.880 -17.461   3.808  1.00  0.00     0.027 A 
HETATM    6  C   UNL     1      44.141 -18.840   3.880  1.00  0.00    -0.006 A 
HETATM    7  C   UNL     1      44.065 -19.607   2.695  1.00  0.00     0.075 A 
HETATM    8  C   UNL     1      44.455 -19.450   5.106  1.00  0.00     0.014 A 
HETATM    9  C   UNL     1      44.318 -20.982   2.775  1.00  0.00    -0.032 A 
HETATM   10  N   UNL     1      43.748 -19.026   1.519  1.00  0.00    -0.223 NA
HETATM   11  C   UNL     1      44.202 -21.872   1.564  1.00  0.00     0.050 C 
HETATM   12  C   UNL     1      44.619 -21.582   4.010  1.00  0.00     0.009 A 
HETATM   13  C   UNL     1      44.691 -20.818   5.168  1.00  0.00     0.002 A 
HETATM   14  C   UNL     1      43.493 -17.716   1.505  1.00  0.00     0.170 A 
BRANCH  14  15
HETATM   15  O   UNL     1      43.155 -17.275   0.270  1.00  0.00    -0.344 OA
HETATM   16  H   UNL     1      42.413 -16.684   0.529  1.00  0.00     0.219 HD
ENDBRANCH  14  15
ENDBRANCH   3   4
ENDBRANCH   1   3
BRANCH   1  17
HETATM   17  C   UNL     1      41.094 -14.865   1.153  1.00  0.00     0.316 C 
BRANCH  17  18
HETATM   18  C   UNL     1      41.618 -13.655   0.481  1.00  0.00     0.163 A 
HETATM   19  N   UNL     1      41.529 -13.283  -0.842  1.00  0.00    -0.253 N 
HETATM   20  N   UNL     1      42.222 -12.134  -0.989  1.00  0.00    -0.002 NA
HETATM   21  N   UNL     1      42.641 -11.786   0.214  1.00  0.00     0.018 NA
HETATM   22  N   UNL     1      42.263 -12.708   1.140  1.00  0.00    -0.145 NA
BRANCH  19  23
HETATM   23  C   UNL     1      40.875 -13.857  -2.028  1.00  0.00     0.042 C 
HETATM   24  C   UNL     1      41.149 -15.360  -2.229  1.00  0.00     0.039 C 
HETATM   25  C   UNL     1      39.342 -13.695  -1.898  1.00  0.00     0.039 C 
HETATM   26  C   UNL     1      41.358 -13.111  -3.286  1.00  0.00     0.039 C 
ENDBRANCH  19  23
ENDBRANCH  17  18
ENDBRANCH   1  17
BRANCH   1  27
HETATM   27  C   UNL     1      40.850 -15.843   3.475  1.00  0.00     0.237 C 
BRANCH  27  28
HETATM   28  C   UNL     1      40.403 -15.135   4.767  1.00  0.00     0.055 C 
BRANCH  28  29
HETATM   29  C   UNL     1      41.297 -13.977   5.212  1.00  0.00     0.236 C 
BRANCH  29  30
HETATM   30  N   UNL     1      42.346 -14.453   6.199  1.00  0.00    -0.067 N 
HETATM   31  H   UNL     1      42.186 -14.012   7.116  1.00  0.00     0.280 HD
HETATM   32  C   UNL     1      42.248 -15.972   6.445  1.00  0.00     0.261 C 
HETATM   33  C   UNL     1      43.305 -16.401   7.468  1.00  0.00     0.195 C 
HETATM   34  O   UNL     1      44.615 -16.054   7.014  1.00  0.00    -0.388 OA
HETATM   35  C   UNL     1      44.768 -14.643   6.846  1.00  0.00     0.195 C 
HETATM   36  C   UNL     1      43.790 -14.115   5.789  1.00  0.00     0.261 C 
ENDBRANCH  29  30
ENDBRANCH  28  29
ENDBRANCH  27  28
ENDBRANCH   1  27
TORSDOF 10
ENDMDL
MODEL 6
REMARK VINA RESULT:      -8.2      1.912      3.023
REMARK  10 active torsions:
REMARK  status: ('A' for Active; 'I' for Inactive)
REMARK    1  A    between atoms: C_6  and  C_7 
REMARK    2  A    between atoms: C_7  and  N_8 
REMARK    3  A    between atoms: N_8  and  C_10 
REMARK    4  A    between atoms: N_8  and  C_20 
REMARK    5  A    between atoms: C_10  and  C_11 
REMARK    6  A    between atoms: N_12  and  C_13 
REMARK    7  A    between atoms: C_20  and  C_21 
REMARK    8  A    between atoms: C_21  and  C_22 
REMARK    9  A    between atoms: C_22  and  N_23 
REMARK   10  A    between atoms: C_30  and  O_31 
ROOT
HETATM    1  N   UNL     1      42.490 -15.146   4.063  1.00  0.00    -0.060 N 
HETATM    2  H   UNL     1      42.910 -15.571   4.902  1.00  0.00     0.280 HD
ENDROOT
BRANCH   1   3
HETATM    3  C   UNL     1      43.342 -15.700   2.911  1.00  0.00     0.278 C 
BRANCH   3   4
HETATM    4  C   UNL     1      43.668 -17.158   2.920  1.00  0.00     0.021 A 
HETATM    5  C   UNL     1      43.939 -17.841   4.108  1.00  0.00     0.027 A 
HETATM    6  C   UNL     1      44.187 -19.224   4.094  1.00  0.00    -0.006 A 
HETATM    7  C   UNL     1      44.159 -19.905   2.855  1.00  0.00     0.075 A 
HETATM    8  C   UNL     1      44.439 -19.922   5.286  1.00  0.00     0.014 A 
HETATM    9  C   UNL     1      44.397 -21.285   2.849  1.00  0.00    -0.032 A 
HETATM   10  N   UNL     1      43.900 -19.239   1.710  1.00  0.00    -0.223 NA
HETATM   11  C   UNL     1      44.330 -22.086   1.574  1.00  0.00     0.050 C 
HETATM   12  C   UNL     1      44.637 -21.973   4.050  1.00  0.00     0.009 A 
HETATM   13  C   UNL     1      44.662 -21.294   5.262  1.00  0.00     0.002 A 
HETATM   14  C   UNL     1      43.656 -17.929   1.777  1.00  0.00     0.170 A 
BRANCH  14  15
HETATM   15  O   UNL     1      43.378 -17.398   0.563  1.00  0.00    -0.344 OA
HETATM   16  H   UNL     1      43.148 -16.487   0.855  1.00  0.00     0.219 HD
ENDBRANCH  14  15
ENDBRANCH   3   4
ENDBRANCH   1   3
BRANCH   1  17
HETATM   17  C   UNL     1      42.758 -13.637   4.312  1.00  0.00     0.316 C 
BRANCH  17  18
HETATM   18  C   UNL     1      42.113 -12.817   3.263  1.00  0.00     0.163 A 
HETATM   19  N   UNL     1      41.073 -11.920   3.372  1.00  0.00    -0.253 N 
HETATM   20  N   UNL     1      40.789 -11.473   2.130  1.00  0.00    -0.002 NA
HETATM   21  N   UNL     1      41.677 -12.018   1.318  1.00  0.00     0.018 NA
HETATM   22  N   UNL     1      42.515 -12.841   2.003  1.00  0.00    -0.145 NA
BRANCH  19  23
HETATM   23  C   UNL     1      40.280 -11.401   4.496  1.00  0.00     0.042 C 
HETATM   24  C   UNL     1      39.251 -10.327   4.094  1.00  0.00     0.039 C 
HETATM   25  C   UNL     1      39.487 -12.560   5.145  1.00  0.00     0.039 C 
HETATM   26  C   UNL     1      41.226 -10.786   5.544  1.00  0.00     0.039 C 
ENDBRANCH  19  23
ENDBRANCH  17  18
ENDBRANCH   1  17
BRANCH   1  27
HETATM   27  C   UNL     1      41.014 -15.447   4.013  1.00  0.00     0.237 C 
BRANCH  27  28
HETATM   28  C   UNL     1      40.479 -15.872   2.633  1.00  0.00     0.055 C 
BRANCH  28  29
HETATM   29  C   UNL     1      39.375 -14.978   2.066  1.00  0.00     0.236 C 
BRANCH  29  30
HETATM   30  N   UNL     1      39.834 -14.296   0.791  1.00  0.00    -0.067 N 
HETATM   31  H   UNL     1      40.374 -13.451   1.024  1.00  0.00     0.280 HD
HETATM   32  C   UNL     1      40.790 -15.193  -0.021  1.00  0.00     0.261 C 
HETATM   33  C   UNL     1      41.248 -14.452  -1.282  1.00  0.00     0.195 C 
HETATM   34  O   UNL     1      40.124 -14.073  -2.079  1.00  0.00    -0.388 OA
HETATM   35  C   UNL     1      39.251 -13.180  -1.385  1.00  0.00     0.195 C 
HETATM   36  C   UNL     1      38.682 -13.848  -0.127  1.00  0.00     0.261 C 
ENDBRANCH  29  30
ENDBRANCH  28  29
ENDBRANCH  27  28
ENDBRANCH   1  27
TORSDOF 10
ENDMDL
MODEL 7
REMARK VINA RESULT:      -8.1      3.142      6.905
REMARK  10 active torsions:
REMARK  status: ('A' for Active; 'I' for Inactive)
REMARK    1  A    between atoms: C_6  and  C_7 
REMARK    2  A    between atoms: C_7  and  N_8 
REMARK    3  A    between atoms: N_8  and  C_10 
REMARK    4  A    between atoms: N_8  and  C_20 
REMARK    5  A    between atoms: C_10  and  C_11 
REMARK    6  A    between atoms: N_12  and  C_13 
REMARK    7  A    between atoms: C_20  and  C_21 
REMARK    8  A    between atoms: C_21  and  C_22 
REMARK    9  A    between atoms: C_22  and  N_23 
REMARK   10  A    between atoms: C_30  and  O_31 
ROOT
HETATM    1  N   UNL     1      42.386 -15.097   4.116  1.00  0.00    -0.060 N 
HETATM    2  H   UNL     1      42.172 -14.131   3.826  1.00  0.00     0.280 HD
ENDROOT
BRANCH   1   3
HETATM    3  C   UNL     1      43.369 -15.588   3.042  1.00  0.00     0.278 C 
BRANCH   3   4
HETATM    4  C   UNL     1      43.655 -17.053   2.974  1.00  0.00     0.021 A 
HETATM    5  C   UNL     1      44.011 -17.784   4.110  1.00  0.00     0.027 A 
HETATM    6  C   UNL     1      44.220 -19.171   4.029  1.00  0.00    -0.006 A 
HETATM    7  C   UNL     1      44.065 -19.807   2.775  1.00  0.00     0.075 A 
HETATM    8  C   UNL     1      44.557 -19.917   5.170  1.00  0.00     0.014 A 
HETATM    9  C   UNL     1      44.265 -21.191   2.702  1.00  0.00    -0.032 A 
HETATM   10  N   UNL     1      43.725 -19.095   1.680  1.00  0.00    -0.223 NA
HETATM   11  C   UNL     1      44.066 -21.945   1.412  1.00  0.00     0.050 C 
HETATM   12  C   UNL     1      44.591 -21.927   3.854  1.00  0.00     0.009 A 
HETATM   13  C   UNL     1      44.740 -21.291   5.081  1.00  0.00     0.002 A 
HETATM   14  C   UNL     1      43.523 -17.783   1.812  1.00  0.00     0.170 A 
BRANCH  14  15
HETATM   15  O   UNL     1      43.154 -17.203   0.645  1.00  0.00    -0.344 OA
HETATM   16  H   UNL     1      42.786 -17.999   0.201  1.00  0.00     0.219 HD
ENDBRANCH  14  15
ENDBRANCH   3   4
ENDBRANCH   1   3
BRANCH   1  17
HETATM   17  C   UNL     1      40.996 -15.776   3.986  1.00  0.00     0.316 C 
BRANCH  17  18
HETATM   18  C   UNL     1      40.151 -15.044   3.017  1.00  0.00     0.163 A 
HETATM   19  N   UNL     1      39.638 -13.767   3.095  1.00  0.00    -0.253 N 
HETATM   20  N   UNL     1      38.870 -13.570   2.003  1.00  0.00    -0.002 NA
HETATM   21  N   UNL     1      38.982 -14.655   1.258  1.00  0.00     0.018 NA
HETATM   22  N   UNL     1      39.784 -15.572   1.862  1.00  0.00    -0.145 NA
BRANCH  19  23
HETATM   23  C   UNL     1      39.762 -12.669   4.066  1.00  0.00     0.042 C 
HETATM   24  C   UNL     1      39.622 -13.113   5.535  1.00  0.00     0.039 C 
HETATM   25  C   UNL     1      41.156 -12.013   3.926  1.00  0.00     0.039 C 
HETATM   26  C   UNL     1      38.676 -11.615   3.781  1.00  0.00     0.039 C 
ENDBRANCH  19  23
ENDBRANCH  17  18
ENDBRANCH   1  17
BRANCH   1  27
HETATM   27  C   UNL     1      42.882 -15.112   5.539  1.00  0.00     0.237 C 
BRANCH  27  28
HETATM   28  C   UNL     1      43.805 -13.941   5.923  1.00  0.00     0.055 C 
BRANCH  28  29
HETATM   29  C   UNL     1      44.722 -14.206   7.118  1.00  0.00     0.236 C 
BRANCH  29  30
HETATM   30  N   UNL     1      44.484 -13.187   8.216  1.00  0.00    -0.067 N 
HETATM   31  H   UNL     1      44.149 -13.664   9.066  1.00  0.00     0.280 HD
HETATM   32  C   UNL     1      45.790 -12.475   8.624  1.00  0.00     0.261 C 
HETATM   33  C   UNL     1      45.505 -11.479   9.754  1.00  0.00     0.195 C 
HETATM   34  O   UNL     1      44.524 -10.523   9.346  1.00  0.00    -0.388 OA
HETATM   35  C   UNL     1      43.273 -11.140   9.031  1.00  0.00     0.195 C 
HETATM   36  C   UNL     1      43.433 -12.120   7.862  1.00  0.00     0.261 C 
ENDBRANCH  29  30
ENDBRANCH  28  29
ENDBRANCH  27  28
ENDBRANCH   1  27
TORSDOF 10
ENDMDL
MODEL 8
REMARK VINA RESULT:      -8.0      1.994      2.863
REMARK  10 active torsions:
REMARK  status: ('A' for Active; 'I' for Inactive)
REMARK    1  A    between atoms: C_6  and  C_7 
REMARK    2  A    between atoms: C_7  and  N_8 
REMARK    3  A    between atoms: N_8  and  C_10 
REMARK    4  A    between atoms: N_8  and  C_20 
REMARK    5  A    between atoms: C_10  and  C_11 
REMARK    6  A    between atoms: N_12  and  C_13 
REMARK    7  A    between atoms: C_20  and  C_21 
REMARK    8  A    between atoms: C_21  and  C_22 
REMARK    9  A    between atoms: C_22  and  N_23 
REMARK   10  A    between atoms: C_30  and  O_31 
ROOT
HETATM    1  N   UNL     1      41.577 -15.296   1.655  1.00  0.00    -0.060 N 
HETATM    2  H   UNL     1      41.504 -16.143   1.073  1.00  0.00     0.280 HD
ENDROOT
BRANCH   1   3
HETATM    3  C   UNL     1      42.851 -15.533   2.482  1.00  0.00     0.278 C 
BRANCH   3   4
HETATM    4  C   UNL     1      43.323 -16.940   2.649  1.00  0.00     0.021 A 
HETATM    5  C   UNL     1      43.570 -17.486   3.912  1.00  0.00     0.027 A 
HETATM    6  C   UNL     1      43.959 -18.830   4.044  1.00  0.00    -0.006 A 
HETATM    7  C   UNL     1      44.098 -19.613   2.874  1.00  0.00     0.075 A 
HETATM    8  C   UNL     1      44.188 -19.391   5.311  1.00  0.00     0.014 A 
HETATM    9  C   UNL     1      44.477 -20.954   3.014  1.00  0.00    -0.032 A 
HETATM   10  N   UNL     1      43.863 -19.079   1.658  1.00  0.00    -0.223 NA
HETATM   11  C   UNL     1      44.593 -21.863   1.817  1.00  0.00     0.050 C 
HETATM   12  C   UNL     1      44.692 -21.506   4.288  1.00  0.00     0.009 A 
HETATM   13  C   UNL     1      44.552 -20.727   5.430  1.00  0.00     0.002 A 
HETATM   14  C   UNL     1      43.480 -17.803   1.586  1.00  0.00     0.170 A 
BRANCH  14  15
HETATM   15  O   UNL     1      43.245 -17.411   0.311  1.00  0.00    -0.344 OA
HETATM   16  H   UNL     1      42.265 -17.353   0.359  1.00  0.00     0.219 HD
ENDBRANCH  14  15
ENDBRANCH   3   4
ENDBRANCH   1   3
BRANCH   1  17
HETATM   17  C   UNL     1      40.294 -15.402   2.521  1.00  0.00     0.316 C 
BRANCH  17  18
HETATM   18  C   UNL     1      39.748 -14.056   2.806  1.00  0.00     0.163 A 
HETATM   19  N   UNL     1      40.015 -13.211   3.861  1.00  0.00    -0.253 N 
HETATM   20  N   UNL     1      39.223 -12.126   3.723  1.00  0.00    -0.002 NA
HETATM   21  N   UNL     1      38.567 -12.276   2.586  1.00  0.00     0.018 NA
HETATM   22  N   UNL     1      38.891 -13.458   1.996  1.00  0.00    -0.145 NA
BRANCH  19  23
HETATM   23  C   UNL     1      40.925 -13.266   5.015  1.00  0.00     0.042 C 
HETATM   24  C   UNL     1      40.544 -12.308   6.160  1.00  0.00     0.039 C 
HETATM   25  C   UNL     1      40.922 -14.696   5.605  1.00  0.00     0.039 C 
HETATM   26  C   UNL     1      42.352 -12.912   4.552  1.00  0.00     0.039 C 
ENDBRANCH  19  23
ENDBRANCH  17  18
ENDBRANCH   1  17
BRANCH   1  27
HETATM   27  C   UNL     1      41.560 -14.066   0.784  1.00  0.00     0.237 C 
BRANCH  27  28
HETATM   28  C   UNL     1      41.291 -14.326  -0.710  1.00  0.00     0.055 C 
BRANCH  28  29
HETATM   29  C   UNL     1      40.002 -13.706  -1.252  1.00  0.00     0.236 C 
BRANCH  29  30
HETATM   30  N   UNL     1      39.235 -14.706  -2.096  1.00  0.00    -0.067 N 
HETATM   31  H   UNL     1      38.876 -15.463  -1.497  1.00  0.00     0.280 HD
HETATM   32  C   UNL     1      37.995 -14.066  -2.750  1.00  0.00     0.261 C 
HETATM   33  C   UNL     1      37.238 -15.119  -3.567  1.00  0.00     0.195 C 
HETATM   34  O   UNL     1      38.088 -15.687  -4.565  1.00  0.00    -0.388 OA
HETATM   35  C   UNL     1      39.214 -16.356  -3.993  1.00  0.00     0.195 C 
HETATM   36  C   UNL     1      40.080 -15.373  -3.196  1.00  0.00     0.261 C 
ENDBRANCH  29  30
ENDBRANCH  28  29
ENDBRANCH  27  28
ENDBRANCH   1  27
TORSDOF 10
ENDMDL
MODEL 9
REMARK VINA RESULT:      -7.9      2.210      2.843
REMARK  10 active torsions:
REMARK  status: ('A' for Active; 'I' for Inactive)
REMARK    1  A    between atoms: C_6  and  C_7 
REMARK    2  A    between atoms: C_7  and  N_8 
REMARK    3  A    between atoms: N_8  and  C_10 
REMARK    4  A    between atoms: N_8  and  C_20 
REMARK    5  A    between atoms: C_10  and  C_11 
REMARK    6  A    between atoms: N_12  and  C_13 
REMARK    7  A    between atoms: C_20  and  C_21 
REMARK    8  A    between atoms: C_21  and  C_22 
REMARK    9  A    between atoms: C_22  and  N_23 
REMARK   10  A    between atoms: C_30  and  O_31 
ROOT
HETATM    1  N   UNL     1      42.350 -15.622   2.382  1.00  0.00    -0.060 N 
HETATM    2  H   UNL     1      42.131 -15.888   3.353  1.00  0.00     0.280 HD
ENDROOT
BRANCH   1   3
HETATM    3  C   UNL     1      43.613 -16.435   2.059  1.00  0.00     0.278 C 
BRANCH   3   4
HETATM    4  C   UNL     1      43.778 -17.764   2.721  1.00  0.00     0.021 A 
HETATM    5  C   UNL     1      43.969 -18.933   1.981  1.00  0.00     0.027 A 
HETATM    6  C   UNL     1      44.179 -20.162   2.631  1.00  0.00    -0.006 A 
HETATM    7  C   UNL     1      44.187 -20.187   4.045  1.00  0.00     0.075 A 
HETATM    8  C   UNL     1      44.393 -21.338   1.895  1.00  0.00     0.014 A 
HETATM    9  C   UNL     1      44.405 -21.412   4.687  1.00  0.00    -0.032 A 
HETATM   10  N   UNL     1      43.997 -19.055   4.754  1.00  0.00    -0.223 NA
HETATM   11  C   UNL     1      44.480 -21.508   6.189  1.00  0.00     0.050 C 
HETATM   12  C   UNL     1      44.630 -22.580   3.938  1.00  0.00     0.009 A 
HETATM   13  C   UNL     1      44.620 -22.543   2.549  1.00  0.00     0.002 A 
HETATM   14  C   UNL     1      43.818 -17.911   4.091  1.00  0.00     0.170 A 
BRANCH  14  15
HETATM   15  O   UNL     1      43.676 -16.853   4.925  1.00  0.00    -0.344 OA
HETATM   16  H   UNL     1      44.607 -16.538   4.914  1.00  0.00     0.219 HD
ENDBRANCH  14  15
ENDBRANCH   3   4
ENDBRANCH   1   3
BRANCH   1  17
HETATM   17  C   UNL     1      42.657 -14.108   2.537  1.00  0.00     0.316 C 
BRANCH  17  18
HETATM   18  C   UNL     1      42.911 -13.774   3.956  1.00  0.00     0.163 A 
HETATM   19  N   UNL     1      42.019 -13.406   4.939  1.00  0.00    -0.253 N 
HETATM   20  N   UNL     1      42.731 -13.134   6.053  1.00  0.00    -0.002 NA
HETATM   21  N   UNL     1      43.993 -13.405   5.773  1.00  0.00     0.018 NA
HETATM   22  N   UNL     1      44.122 -13.818   4.484  1.00  0.00    -0.145 NA
BRANCH  19  23
HETATM   23  C   UNL     1      40.556 -13.267   4.998  1.00  0.00     0.042 C 
HETATM   24  C   UNL     1      40.045 -12.538   6.256  1.00  0.00     0.039 C 
HETATM   25  C   UNL     1      40.067 -12.452   3.778  1.00  0.00     0.039 C 
HETATM   26  C   UNL     1      39.911 -14.666   4.963  1.00  0.00     0.039 C 
ENDBRANCH  19  23
ENDBRANCH  17  18
ENDBRANCH   1  17
BRANCH   1  27
HETATM   27  C   UNL     1      41.152 -15.859   1.498  1.00  0.00     0.237 C 
BRANCH  27  28
HETATM   28  C   UNL     1      41.473 -16.091   0.010  1.00  0.00     0.055 C 
BRANCH  28  29
HETATM   29  C   UNL     1      40.819 -15.099  -0.953  1.00  0.00     0.236 C 
BRANCH  29  30
HETATM   30  N   UNL     1      41.786 -13.991  -1.325  1.00  0.00    -0.067 N 
HETATM   31  H   UNL     1      42.750 -14.282  -1.108  1.00  0.00     0.280 HD
HETATM   32  C   UNL     1      41.768 -13.704  -2.840  1.00  0.00     0.261 C 
HETATM   33  C   UNL     1      42.779 -12.601  -3.170  1.00  0.00     0.195 C 
HETATM   34  O   UNL     1      42.483 -11.411  -2.436  1.00  0.00    -0.388 OA
HETATM   35  C   UNL     1      42.563 -11.618  -1.025  1.00  0.00     0.195 C 
HETATM   36  C   UNL     1      41.541 -12.670  -0.573  1.00  0.00     0.261 C 
ENDBRANCH  29  30
ENDBRANCH  28  29
ENDBRANCH  27  28
ENDBRANCH   1  27
TORSDOF 10
ENDMDL
MODEL 10
REMARK VINA RESULT:      -7.9      1.847      3.009
REMARK  10 active torsions:
REMARK  status: ('A' for Active; 'I' for Inactive)
REMARK    1  A    between atoms: C_6  and  C_7 
REMARK    2  A    between atoms: C_7  and  N_8 
REMARK    3  A    between atoms: N_8  and  C_10 
REMARK    4  A    between atoms: N_8  and  C_20 
REMARK    5  A    between atoms: C_10  and  C_11 
REMARK    6  A    between atoms: N_12  and  C_13 
REMARK    7  A    between atoms: C_20  and  C_21 
REMARK    8  A    between atoms: C_21  and  C_22 
REMARK    9  A    between atoms: C_22  and  N_23 
REMARK   10  A    between atoms: C_30  and  O_31 
ROOT
HETATM    1  N   UNL     1      41.902 -15.600   2.931  1.00  0.00    -0.060 N 
HETATM    2  H   UNL     1      41.505 -16.488   2.590  1.00  0.00     0.280 HD
ENDROOT
BRANCH   1   3
HETATM    3  C   UNL     1      43.021 -16.048   3.884  1.00  0.00     0.278 C 
BRANCH   3   4
HETATM    4  C   UNL     1      43.389 -17.496   3.901  1.00  0.00     0.021 A 
HETATM    5  C   UNL     1      43.257 -18.299   2.766  1.00  0.00     0.027 A 
HETATM    6  C   UNL     1      43.663 -19.644   2.793  1.00  0.00    -0.006 A 
HETATM    7  C   UNL     1      44.203 -20.164   3.992  1.00  0.00     0.075 A 
HETATM    8  C   UNL     1      43.554 -20.452   1.650  1.00  0.00     0.014 A 
HETATM    9  C   UNL     1      44.615 -21.503   4.010  1.00  0.00    -0.032 A 
HETATM   10  N   UNL     1      44.324 -19.385   5.087  1.00  0.00    -0.223 NA
HETATM   11  C   UNL     1      45.248 -22.111   5.235  1.00  0.00     0.050 C 
HETATM   12  C   UNL     1      44.510 -22.297   2.856  1.00  0.00     0.009 A 
HETATM   13  C   UNL     1      43.978 -21.775   1.683  1.00  0.00     0.002 A 
HETATM   14  C   UNL     1      43.938 -18.110   5.006  1.00  0.00     0.170 A 
BRANCH  14  15
HETATM   15  O   UNL     1      44.149 -17.438   6.163  1.00  0.00    -0.344 OA
HETATM   16  H   UNL     1      43.217 -17.191   6.356  1.00  0.00     0.219 HD
ENDBRANCH  14  15
ENDBRANCH   3   4
ENDBRANCH   1   3
BRANCH   1  17
HETATM   17  C   UNL     1      40.696 -14.991   3.695  1.00  0.00     0.316 C 
BRANCH  17  18
HETATM   18  C   UNL     1      39.656 -14.541   2.745  1.00  0.00     0.163 A 
HETATM   19  N   UNL     1      39.193 -13.267   2.496  1.00  0.00    -0.253 N 
HETATM   20  N   UNL     1      38.191 -13.366   1.597  1.00  0.00    -0.002 NA
HETATM   21  N   UNL     1      38.110 -14.640   1.258  1.00  0.00     0.018 NA
HETATM   22  N   UNL     1      39.019 -15.380   1.947  1.00  0.00    -0.145 NA
BRANCH  19  23
HETATM   23  C   UNL     1      39.557 -11.929   2.987  1.00  0.00     0.042 C 
HETATM   24  C   UNL     1      39.752 -11.853   4.513  1.00  0.00     0.039 C 
HETATM   25  C   UNL     1      40.893 -11.490   2.341  1.00  0.00     0.039 C 
HETATM   26  C   UNL     1      38.453 -10.928   2.596  1.00  0.00     0.039 C 
ENDBRANCH  19  23
ENDBRANCH  17  18
ENDBRANCH   1  17
BRANCH   1  27
HETATM   27  C   UNL     1      42.316 -14.737   1.766  1.00  0.00     0.237 C 
BRANCH  27  28
HETATM   28  C   UNL     1      41.937 -15.287   0.378  1.00  0.00     0.055 C 
BRANCH  28  29
HETATM   29  C   UNL     1      41.361 -14.254  -0.590  1.00  0.00     0.236 C 
BRANCH  29  30
HETATM   30  N   UNL     1      40.289 -14.874  -1.466  1.00  0.00    -0.067 N 
HETATM   31  H   UNL     1      39.751 -15.565  -0.922  1.00  0.00     0.280 HD
HETATM   32  C   UNL     1      39.262 -13.825  -1.939  1.00  0.00     0.261 C 
HETATM   33  C   UNL     1      38.186 -14.503  -2.794  1.00  0.00     0.195 C 
HETATM   34  O   UNL     1      38.776 -15.162  -3.916  1.00  0.00    -0.388 OA
HETATM   35  C   UNL     1      39.680 -16.195  -3.517  1.00  0.00     0.195 C 
HETATM   36  C   UNL     1      40.839 -15.613  -2.699  1.00  0.00     0.261 C 
ENDBRANCH  29  30
ENDBRANCH  28  29
ENDBRANCH  27  28
ENDBRANCH   1  27
TORSDOF 10
ENDMDL
