MODEL 1
REMARK VINA RESULT:      -9.8      0.000      0.000
REMARK  6 active torsions:
REMARK  status: ('A' for Active; 'I' for Inactive)
REMARK    1  A    between atoms: C_11  and  N_12 
REMARK    2  A    between atoms: N_12  and  C_13 
REMARK    3  A    between atoms: C_13  and  C_14 
REMARK    4  A    between atoms: C_14  and  N_15 
REMARK       I    between atoms: N_15  and  C_16 
REMARK    5  A    between atoms: C_16  and  C_17 
REMARK    6  A    between atoms: C_20  and  O_21 
ROOT
HETATM    1  N   UNL     1      43.487 -15.108   5.720  1.00  0.00    -0.277 NA
HETATM    2  H   UNL     1      43.560 -14.209   5.244  1.00  0.00     0.129 HD
ENDROOT
BRANCH   1   3
HETATM    3  C   UNL     1      43.522 -16.181   4.829  1.00  0.00     0.086 C 
HETATM    4  N   UNL     1      43.796 -17.411   5.293  1.00  0.00    -0.346 N 
HETATM    5  C   UNL     1      43.947 -18.501   4.526  1.00  0.00     0.044 A 
HETATM    6  H   UNL     1      43.841 -17.522   6.313  1.00  0.00     0.167 HD
HETATM    7  C   UNL     1      44.334 -19.724   5.085  1.00  0.00     0.037 A 
HETATM    8  C   UNL     1      43.731 -18.393   3.143  1.00  0.00    -0.008 A 
HETATM    9  C   UNL     1      44.544 -20.850   4.272  1.00  0.00    -0.054 A 
HETATM   10  C   UNL     1      44.364 -20.739   2.879  1.00  0.00    -0.055 A 
HETATM   11  C   UNL     1      45.011 -22.137   4.902  1.00  0.00     0.049 C 
HETATM   12  C   UNL     1      44.595 -21.910   1.958  1.00  0.00     0.049 C 
HETATM   13  C   UNL     1      43.935 -19.518   2.330  1.00  0.00     0.021 A 
HETATM   14  C   UNL     1      43.313 -17.162   2.630  1.00  0.00     0.023 C 
HETATM   15  C   UNL     1      43.175 -16.050   3.472  1.00  0.00    -0.023 C 
HETATM   16  C   UNL     1      42.730 -14.743   2.873  1.00  0.00     0.052 C 
ENDBRANCH   1   3
BRANCH   1  17
HETATM   17  C   UNL     1      44.416 -15.146   6.864  1.00  0.00     0.113 C 
BRANCH  17  18
HETATM   18  C   UNL     1      44.969 -13.750   7.193  1.00  0.00     0.137 C 
BRANCH  18  19
HETATM   19  N   UNL     1      44.605 -13.196   8.489  1.00  0.00    -0.356 N 
HETATM   20  C   UNL     1      45.106 -12.034   9.026  1.00  0.00     0.251 C 
HETATM   21  O   UNL     1      46.070 -11.431   8.552  1.00  0.00    -0.268 OA
HETATM   22  H   UNL     1      43.878 -13.690   8.995  1.00  0.00     0.162 HD
BRANCH  20  23
HETATM   23  C   UNL     1      44.467 -11.584  10.295  1.00  0.00     0.032 A 
HETATM   24  C   UNL     1      44.071 -12.544  11.230  1.00  0.00     0.020 A 
HETATM   25  C   UNL     1      43.427 -12.145  12.405  1.00  0.00     0.038 A 
HETATM   26  C   UNL     1      43.182 -10.793  12.665  1.00  0.00     0.068 A 
HETATM   27  C   UNL     1      43.606  -9.834  11.746  1.00  0.00     0.038 A 
HETATM   28  C   UNL     1      44.250 -10.227  10.566  1.00  0.00     0.020 A 
BRANCH  26  29
HETATM   29  O   UNL     1      42.533 -10.546  13.841  1.00  0.00    -0.356 OA
HETATM   30  C   UNL     1      42.767  -9.286  14.460  1.00  0.00     0.210 C 
ENDBRANCH  26  29
ENDBRANCH  20  23
ENDBRANCH  18  19
ENDBRANCH  17  18
ENDBRANCH   1  17
TORSDOF 6
ENDMDL
MODEL 2
REMARK VINA RESULT:      -9.1      5.069      9.338
REMARK  6 active torsions:
REMARK  status: ('A' for Active; 'I' for Inactive)
REMARK    1  A    between atoms: C_11  and  N_12 
REMARK    2  A    between atoms: N_12  and  C_13 
REMARK    3  A    between atoms: C_13  and  C_14 
REMARK    4  A    between atoms: C_14  and  N_15 
REMARK       I    between atoms: N_15  and  C_16 
REMARK    5  A    between atoms: C_16  and  C_17 
REMARK    6  A    between atoms: C_20  and  O_21 
ROOT
HETATM    1  N   UNL     1      42.791 -15.129   4.415  1.00  0.00    -0.277 NA
HETATM    2  H   UNL     1      41.816 -15.160   4.118  1.00  0.00     0.129 HD
ENDROOT
BRANCH   1   3
HETATM    3  C   UNL     1      43.318 -16.402   4.630  1.00  0.00     0.086 C 
HETATM    4  N   UNL     1      43.389 -17.265   3.604  1.00  0.00    -0.346 N 
HETATM    5  C   UNL     1      43.789 -18.542   3.705  1.00  0.00     0.044 A 
HETATM    6  H   UNL     1      43.166 -16.897   2.672  1.00  0.00     0.167 HD
HETATM    7  C   UNL     1      43.734 -19.401   2.603  1.00  0.00     0.037 A 
HETATM    8  C   UNL     1      44.248 -19.013   4.947  1.00  0.00    -0.008 A 
HETATM    9  C   UNL     1      44.104 -20.751   2.726  1.00  0.00    -0.054 A 
HETATM   10  C   UNL     1      44.530 -21.240   3.978  1.00  0.00    -0.055 A 
HETATM   11  C   UNL     1      43.981 -21.660   1.530  1.00  0.00     0.049 C 
HETATM   12  C   UNL     1      44.919 -22.683   4.170  1.00  0.00     0.049 C 
HETATM   13  C   UNL     1      44.622 -20.359   5.069  1.00  0.00     0.021 A 
HETATM   14  C   UNL     1      44.318 -18.113   6.013  1.00  0.00     0.023 C 
HETATM   15  C   UNL     1      43.883 -16.790   5.858  1.00  0.00    -0.023 C 
HETATM   16  C   UNL     1      43.970 -15.859   7.038  1.00  0.00     0.052 C 
ENDBRANCH   1   3
BRANCH   1  17
HETATM   17  C   UNL     1      43.552 -14.219   3.538  1.00  0.00     0.113 C 
BRANCH  17  18
HETATM   18  C   UNL     1      42.629 -13.238   2.800  1.00  0.00     0.137 C 
BRANCH  18  19
HETATM   19  N   UNL     1      42.071 -13.696   1.536  1.00  0.00    -0.356 N 
HETATM   20  C   UNL     1      42.135 -13.013   0.344  1.00  0.00     0.251 C 
HETATM   21  O   UNL     1      42.503 -11.841   0.256  1.00  0.00    -0.268 OA
HETATM   22  H   UNL     1      41.658 -14.623   1.542  1.00  0.00     0.162 HD
BRANCH  20  23
HETATM   23  C   UNL     1      41.634 -13.753  -0.848  1.00  0.00     0.032 A 
HETATM   24  C   UNL     1      41.478 -13.064  -2.054  1.00  0.00     0.020 A 
HETATM   25  C   UNL     1      40.966 -13.730  -3.173  1.00  0.00     0.038 A 
HETATM   26  C   UNL     1      40.615 -15.081  -3.105  1.00  0.00     0.068 A 
HETATM   27  C   UNL     1      40.800 -15.775  -1.910  1.00  0.00     0.038 A 
HETATM   28  C   UNL     1      41.312 -15.114  -0.785  1.00  0.00     0.020 A 
BRANCH  26  29
HETATM   29  O   UNL     1      40.113 -15.600  -4.264  1.00  0.00    -0.356 OA
HETATM   30  C   UNL     1      38.766 -16.060  -4.241  1.00  0.00     0.210 C 
ENDBRANCH  26  29
ENDBRANCH  20  23
ENDBRANCH  18  19
ENDBRANCH  17  18
ENDBRANCH   1  17
TORSDOF 6
ENDMDL
MODEL 3
REMARK VINA RESULT:      -9.0      2.794     10.698
REMARK  6 active torsions:
REMARK  status: ('A' for Active; 'I' for Inactive)
REMARK    1  A    between atoms: C_11  and  N_12 
REMARK    2  A    between atoms: N_12  and  C_13 
REMARK    3  A    between atoms: C_13  and  C_14 
REMARK    4  A    between atoms: C_14  and  N_15 
REMARK       I    between atoms: N_15  and  C_16 
REMARK    5  A    between atoms: C_16  and  C_17 
REMARK    6  A    between atoms: C_20  and  O_21 
ROOT
HETATM    1  N   UNL     1      44.927 -13.842   7.878  1.00  0.00    -0.277 NA
HETATM    2  H   UNL     1      45.877 -14.139   7.661  1.00  0.00     0.129 HD
ENDROOT
BRANCH   1   3
HETATM    3  C   UNL     1      44.896 -12.832   8.839  1.00  0.00     0.086 C 
HETATM    4  N   UNL     1      43.949 -12.859   9.791  1.00  0.00    -0.346 N 
HETATM    5  C   UNL     1      43.761 -11.900  10.710  1.00  0.00     0.044 A 
HETATM    6  H   UNL     1      43.365 -13.702   9.839  1.00  0.00     0.167 HD
HETATM    7  C   UNL     1      42.684 -11.961  11.600  1.00  0.00     0.037 A 
HETATM    8  C   UNL     1      44.655 -10.817  10.753  1.00  0.00    -0.008 A 
HETATM    9  C   UNL     1      42.459 -10.928  12.526  1.00  0.00    -0.054 A 
HETATM   10  C   UNL     1      43.330  -9.820  12.550  1.00  0.00    -0.055 A 
HETATM   11  C   UNL     1      41.259 -11.001  13.434  1.00  0.00     0.049 C 
HETATM   12  C   UNL     1      43.125  -8.675  13.509  1.00  0.00     0.049 C 
HETATM   13  C   UNL     1      44.434  -9.788  11.680  1.00  0.00     0.021 A 
HETATM   14  C   UNL     1      45.736 -10.813   9.868  1.00  0.00     0.023 C 
HETATM   15  C   UNL     1      45.886 -11.835   8.922  1.00  0.00    -0.023 C 
HETATM   16  C   UNL     1      47.062 -11.784   7.984  1.00  0.00     0.052 C 
ENDBRANCH   1   3
BRANCH   1  17
HETATM   17  C   UNL     1      44.177 -13.613   6.629  1.00  0.00     0.113 C 
BRANCH  17  18
HETATM   18  C   UNL     1      43.109 -14.694   6.403  1.00  0.00     0.137 C 
BRANCH  18  19
HETATM   19  N   UNL     1      43.520 -15.863   5.639  1.00  0.00    -0.356 N 
HETATM   20  C   UNL     1      43.569 -17.151   6.119  1.00  0.00     0.251 C 
HETATM   21  O   UNL     1      43.456 -17.431   7.313  1.00  0.00    -0.268 OA
HETATM   22  H   UNL     1      43.725 -15.704   4.658  1.00  0.00     0.162 HD
BRANCH  20  23
HETATM   23  C   UNL     1      43.866 -18.203   5.107  1.00  0.00     0.032 A 
HETATM   24  C   UNL     1      44.699 -19.267   5.464  1.00  0.00     0.020 A 
HETATM   25  C   UNL     1      45.027 -20.241   4.515  1.00  0.00     0.038 A 
HETATM   26  C   UNL     1      44.525 -20.171   3.213  1.00  0.00     0.068 A 
HETATM   27  C   UNL     1      43.669 -19.126   2.867  1.00  0.00     0.038 A 
HETATM   28  C   UNL     1      43.336 -18.147   3.812  1.00  0.00     0.020 A 
BRANCH  26  29
HETATM   29  O   UNL     1      44.938 -21.176   2.386  1.00  0.00    -0.356 OA
HETATM   30  C   UNL     1      43.935 -21.856   1.638  1.00  0.00     0.210 C 
ENDBRANCH  26  29
ENDBRANCH  20  23
ENDBRANCH  18  19
ENDBRANCH  17  18
ENDBRANCH   1  17
TORSDOF 6
ENDMDL
MODEL 4
REMARK VINA RESULT:      -8.8      4.712      8.792
REMARK  6 active torsions:
REMARK  status: ('A' for Active; 'I' for Inactive)
REMARK    1  A    between atoms: C_11  and  N_12 
REMARK    2  A    between atoms: N_12  and  C_13 
REMARK    3  A    between atoms: C_13  and  C_14 
REMARK    4  A    between atoms: C_14  and  N_15 
REMARK       I    between atoms: N_15  and  C_16 
REMARK    5  A    between atoms: C_16  and  C_17 
REMARK    6  A    between atoms: C_20  and  O_21 
ROOT
HETATM    1  N   UNL     1      42.795 -15.035   4.712  1.00  0.00    -0.277 NA
HETATM    2  H   UNL     1      43.224 -14.334   5.315  1.00  0.00     0.129 HD
ENDROOT
BRANCH   1   3
HETATM    3  C   UNL     1      43.342 -16.303   4.905  1.00  0.00     0.086 C 
HETATM    4  N   UNL     1      43.408 -17.155   3.869  1.00  0.00    -0.346 N 
HETATM    5  C   UNL     1      43.826 -18.427   3.950  1.00  0.00     0.044 A 
HETATM    6  H   UNL     1      43.166 -16.780   2.944  1.00  0.00     0.167 HD
HETATM    7  C   UNL     1      43.765 -19.275   2.839  1.00  0.00     0.037 A 
HETATM    8  C   UNL     1      44.311 -18.905   5.178  1.00  0.00    -0.008 A 
HETATM    9  C   UNL     1      44.153 -20.621   2.942  1.00  0.00    -0.054 A 
HETATM   10  C   UNL     1      44.606 -21.118   4.181  1.00  0.00    -0.055 A 
HETATM   11  C   UNL     1      44.024 -21.519   1.738  1.00  0.00     0.049 C 
HETATM   12  C   UNL     1      45.016 -22.557   4.352  1.00  0.00     0.049 C 
HETATM   13  C   UNL     1      44.704 -20.248   5.281  1.00  0.00     0.021 A 
HETATM   14  C   UNL     1      44.386 -18.016   6.253  1.00  0.00     0.023 C 
HETATM   15  C   UNL     1      43.931 -16.697   6.120  1.00  0.00    -0.023 C 
HETATM   16  C   UNL     1      44.026 -15.778   7.308  1.00  0.00     0.052 C 
ENDBRANCH   1   3
BRANCH   1  17
HETATM   17  C   UNL     1      41.327 -14.914   4.770  1.00  0.00     0.113 C 
BRANCH  17  18
HETATM   18  C   UNL     1      40.829 -13.679   4.004  1.00  0.00     0.137 C 
BRANCH  18  19
HETATM   19  N   UNL     1      40.774 -13.792   2.554  1.00  0.00    -0.356 N 
HETATM   20  C   UNL     1      41.843 -13.635   1.703  1.00  0.00     0.251 C 
HETATM   21  O   UNL     1      42.932 -13.186   2.062  1.00  0.00    -0.268 OA
HETATM   22  H   UNL     1      39.880 -14.068   2.162  1.00  0.00     0.162 HD
BRANCH  20  23
HETATM   23  C   UNL     1      41.578 -13.955   0.272  1.00  0.00     0.032 A 
HETATM   24  C   UNL     1      41.154 -15.243  -0.065  1.00  0.00     0.020 A 
HETATM   25  C   UNL     1      40.944 -15.577  -1.407  1.00  0.00     0.038 A 
HETATM   26  C   UNL     1      41.145 -14.634  -2.420  1.00  0.00     0.068 A 
HETATM   27  C   UNL     1      41.538 -13.340  -2.080  1.00  0.00     0.038 A 
HETATM   28  C   UNL     1      41.751 -13.000  -0.737  1.00  0.00     0.020 A 
BRANCH  26  29
HETATM   29  O   UNL     1      40.920 -15.098  -3.684  1.00  0.00    -0.356 OA
HETATM   30  C   UNL     1      39.649 -15.684  -3.945  1.00  0.00     0.210 C 
ENDBRANCH  26  29
ENDBRANCH  20  23
ENDBRANCH  18  19
ENDBRANCH  17  18
ENDBRANCH   1  17
TORSDOF 6
ENDMDL
MODEL 5
REMARK VINA RESULT:      -8.6      7.429     10.934
REMARK  6 active torsions:
REMARK  status: ('A' for Active; 'I' for Inactive)
REMARK    1  A    between atoms: C_11  and  N_12 
REMARK    2  A    between atoms: N_12  and  C_13 
REMARK    3  A    between atoms: C_13  and  C_14 
REMARK    4  A    between atoms: C_14  and  N_15 
REMARK       I    between atoms: N_15  and  C_16 
REMARK    5  A    between atoms: C_16  and  C_17 
REMARK    6  A    between atoms: C_20  and  O_21 
ROOT
HETATM    1  N   UNL     1      41.458 -15.967  -0.499  1.00  0.00    -0.277 NA
HETATM    2  H   UNL     1      41.033 -16.797  -0.910  1.00  0.00     0.129 HD
ENDROOT
BRANCH   1   3
HETATM    3  C   UNL     1      41.536 -14.909  -1.405  1.00  0.00     0.086 C 
HETATM    4  N   UNL     1      42.236 -13.812  -1.075  1.00  0.00    -0.346 N 
HETATM    5  C   UNL     1      42.308 -12.699  -1.820  1.00  0.00     0.044 A 
HETATM    6  H   UNL     1      42.792 -13.858  -0.214  1.00  0.00     0.167 HD
HETATM    7  C   UNL     1      42.978 -11.564  -1.351  1.00  0.00     0.037 A 
HETATM    8  C   UNL     1      41.681 -12.681  -3.077  1.00  0.00    -0.008 A 
HETATM    9  C   UNL     1      43.006 -10.382  -2.111  1.00  0.00    -0.054 A 
HETATM   10  C   UNL     1      42.347 -10.345  -3.356  1.00  0.00    -0.055 A 
HETATM   11  C   UNL     1      43.691  -9.162  -1.550  1.00  0.00     0.049 C 
HETATM   12  C   UNL     1      42.328  -9.099  -4.203  1.00  0.00     0.049 C 
HETATM   13  C   UNL     1      41.713 -11.504  -3.839  1.00  0.00     0.021 A 
HETATM   14  C   UNL     1      41.052 -13.847  -3.521  1.00  0.00     0.023 C 
HETATM   15  C   UNL     1      40.999 -14.984  -2.703  1.00  0.00    -0.023 C 
HETATM   16  C   UNL     1      40.304 -16.213  -3.222  1.00  0.00     0.052 C 
ENDBRANCH   1   3
BRANCH   1  17
HETATM   17  C   UNL     1      40.849 -15.690   0.815  1.00  0.00     0.113 C 
BRANCH  17  18
HETATM   18  C   UNL     1      41.862 -15.862   1.957  1.00  0.00     0.137 C 
BRANCH  18  19
HETATM   19  N   UNL     1      42.285 -17.224   2.250  1.00  0.00    -0.356 N 
HETATM   20  C   UNL     1      43.396 -17.842   1.726  1.00  0.00     0.251 C 
HETATM   21  O   UNL     1      44.053 -17.375   0.795  1.00  0.00    -0.268 OA
HETATM   22  H   UNL     1      41.737 -17.721   2.945  1.00  0.00     0.162 HD
BRANCH  20  23
HETATM   23  C   UNL     1      43.716 -19.181   2.295  1.00  0.00     0.032 A 
HETATM   24  C   UNL     1      44.141 -19.267   3.624  1.00  0.00     0.020 A 
HETATM   25  C   UNL     1      44.490 -20.510   4.163  1.00  0.00     0.038 A 
HETATM   26  C   UNL     1      44.410 -21.673   3.392  1.00  0.00     0.068 A 
HETATM   27  C   UNL     1      43.956 -21.590   2.076  1.00  0.00     0.038 A 
HETATM   28  C   UNL     1      43.606 -20.349   1.530  1.00  0.00     0.020 A 
BRANCH  26  29
HETATM   29  O   UNL     1      44.796 -22.813   4.037  1.00  0.00    -0.356 OA
HETATM   30  C   UNL     1      45.412 -22.662   5.311  1.00  0.00     0.210 C 
ENDBRANCH  26  29
ENDBRANCH  20  23
ENDBRANCH  18  19
ENDBRANCH  17  18
ENDBRANCH   1  17
TORSDOF 6
ENDMDL
MODEL 6
REMARK VINA RESULT:      -8.4      2.265      2.515
REMARK  6 active torsions:
REMARK  status: ('A' for Active; 'I' for Inactive)
REMARK    1  A    between atoms: C_11  and  N_12 
REMARK    2  A    between atoms: N_12  and  C_13 
REMARK    3  A    between atoms: C_13  and  C_14 
REMARK    4  A    between atoms: C_14  and  N_15 
REMARK       I    between atoms: N_15  and  C_16 
REMARK    5  A    between atoms: C_16  and  C_17 
REMARK    6  A    between atoms: C_20  and  O_21 
ROOT
HETATM    1  N   UNL     1      40.929 -14.170   5.452  1.00  0.00    -0.277 NA
HETATM    2  H   UNL     1      39.964 -13.860   5.354  1.00  0.00     0.129 HD
ENDROOT
BRANCH   1   3
HETATM    3  C   UNL     1      41.221 -15.257   4.627  1.00  0.00     0.086 C 
HETATM    4  N   UNL     1      42.036 -16.224   5.078  1.00  0.00    -0.346 N 
HETATM    5  C   UNL     1      42.462 -17.266   4.349  1.00  0.00     0.044 A 
HETATM    6  H   UNL     1      42.307 -16.178   6.067  1.00  0.00     0.167 HD
HETATM    7  C   UNL     1      43.394 -18.172   4.867  1.00  0.00     0.037 A 
HETATM    8  C   UNL     1      41.973 -17.426   3.042  1.00  0.00    -0.008 A 
HETATM    9  C   UNL     1      43.878 -19.232   4.082  1.00  0.00    -0.054 A 
HETATM   10  C   UNL     1      43.419 -19.376   2.757  1.00  0.00    -0.055 A 
HETATM   11  C   UNL     1      44.921 -20.157   4.655  1.00  0.00     0.049 C 
HETATM   12  C   UNL     1      43.919 -20.483   1.865  1.00  0.00     0.049 C 
HETATM   13  C   UNL     1      42.451 -18.486   2.259  1.00  0.00     0.021 A 
HETATM   14  C   UNL     1      41.019 -16.518   2.575  1.00  0.00     0.023 C 
HETATM   15  C   UNL     1      40.610 -15.441   3.374  1.00  0.00    -0.023 C 
HETATM   16  C   UNL     1      39.586 -14.485   2.825  1.00  0.00     0.052 C 
ENDBRANCH   1   3
BRANCH   1  17
HETATM   17  C   UNL     1      41.837 -13.010   5.390  1.00  0.00     0.113 C 
BRANCH  17  18
HETATM   18  C   UNL     1      41.277 -11.810   6.169  1.00  0.00     0.137 C 
BRANCH  18  19
HETATM   19  N   UNL     1      41.699 -11.680   7.556  1.00  0.00    -0.356 N 
HETATM   20  C   UNL     1      42.005 -10.497   8.188  1.00  0.00     0.251 C 
HETATM   21  O   UNL     1      42.144  -9.429   7.591  1.00  0.00    -0.268 OA
HETATM   22  H   UNL     1      41.705 -12.536   8.101  1.00  0.00     0.162 HD
BRANCH  20  23
HETATM   23  C   UNL     1      42.257 -10.597   9.653  1.00  0.00     0.032 A 
HETATM   24  C   UNL     1      41.168 -10.722  10.519  1.00  0.00     0.020 A 
HETATM   25  C   UNL     1      41.381 -10.771  11.901  1.00  0.00     0.038 A 
HETATM   26  C   UNL     1      42.674 -10.706  12.429  1.00  0.00     0.068 A 
HETATM   27  C   UNL     1      43.762 -10.614  11.562  1.00  0.00     0.038 A 
HETATM   28  C   UNL     1      43.555 -10.564  10.177  1.00  0.00     0.020 A 
BRANCH  26  29
HETATM   29  O   UNL     1      42.736 -10.748  13.793  1.00  0.00    -0.356 OA
HETATM   30  C   UNL     1      42.716  -9.503  14.483  1.00  0.00     0.210 C 
ENDBRANCH  26  29
ENDBRANCH  20  23
ENDBRANCH  18  19
ENDBRANCH  17  18
ENDBRANCH   1  17
TORSDOF 6
ENDMDL
MODEL 7
REMARK VINA RESULT:      -8.3      6.485     10.790
REMARK  6 active torsions:
REMARK  status: ('A' for Active; 'I' for Inactive)
REMARK    1  A    between atoms: C_11  and  N_12 
REMARK    2  A    between atoms: N_12  and  C_13 
REMARK    3  A    between atoms: C_13  and  C_14 
REMARK    4  A    between atoms: C_14  and  N_15 
REMARK       I    between atoms: N_15  and  C_16 
REMARK    5  A    between atoms: C_16  and  C_17 
REMARK    6  A    between atoms: C_20  and  O_21 
ROOT
HETATM    1  N   UNL     1      41.905 -15.163   2.345  1.00  0.00    -0.277 NA
HETATM    2  H   UNL     1      41.486 -14.501   2.996  1.00  0.00     0.129 HD
ENDROOT
BRANCH   1   3
HETATM    3  C   UNL     1      42.571 -16.200   3.000  1.00  0.00     0.086 C 
HETATM    4  N   UNL     1      42.895 -17.309   2.316  1.00  0.00    -0.346 N 
HETATM    5  C   UNL     1      43.450 -18.404   2.855  1.00  0.00     0.044 A 
HETATM    6  H   UNL     1      42.748 -17.287   1.301  1.00  0.00     0.167 HD
HETATM    7  C   UNL     1      43.660 -19.554   2.087  1.00  0.00     0.037 A 
HETATM    8  C   UNL     1      43.803 -18.388   4.215  1.00  0.00    -0.008 A 
HETATM    9  C   UNL     1      44.193 -20.717   2.668  1.00  0.00    -0.054 A 
HETATM   10  C   UNL     1      44.514 -20.720   4.041  1.00  0.00    -0.055 A 
HETATM   11  C   UNL     1      44.356 -21.955   1.823  1.00  0.00     0.049 C 
HETATM   12  C   UNL     1      45.070 -21.946   4.719  1.00  0.00     0.049 C 
HETATM   13  C   UNL     1      44.340 -19.547   4.795  1.00  0.00     0.021 A 
HETATM   14  C   UNL     1      43.607 -17.208   4.937  1.00  0.00     0.023 C 
HETATM   15  C   UNL     1      43.017 -16.091   4.330  1.00  0.00    -0.023 C 
HETATM   16  C   UNL     1      42.819 -14.845   5.150  1.00  0.00     0.052 C 
ENDBRANCH   1   3
BRANCH   1  17
HETATM   17  C   UNL     1      40.924 -15.537   1.309  1.00  0.00     0.113 C 
BRANCH  17  18
HETATM   18  C   UNL     1      41.186 -14.797  -0.012  1.00  0.00     0.137 C 
BRANCH  18  19
HETATM   19  N   UNL     1      40.081 -14.746  -0.959  1.00  0.00    -0.356 N 
HETATM   20  C   UNL     1      39.233 -13.678  -1.135  1.00  0.00     0.251 C 
HETATM   21  O   UNL     1      39.195 -12.713  -0.372  1.00  0.00    -0.268 OA
HETATM   22  H   UNL     1      39.980 -15.550  -1.569  1.00  0.00     0.162 HD
BRANCH  20  23
HETATM   23  C   UNL     1      38.278 -13.796  -2.273  1.00  0.00     0.032 A 
HETATM   24  C   UNL     1      38.142 -15.030  -2.915  1.00  0.00     0.020 A 
HETATM   25  C   UNL     1      37.285 -15.150  -4.014  1.00  0.00     0.038 A 
HETATM   26  C   UNL     1      36.551 -14.053  -4.474  1.00  0.00     0.068 A 
HETATM   27  C   UNL     1      36.663 -12.830  -3.813  1.00  0.00     0.038 A 
HETATM   28  C   UNL     1      37.521 -12.703  -2.712  1.00  0.00     0.020 A 
BRANCH  26  29
HETATM   29  O   UNL     1      35.767 -14.306  -5.563  1.00  0.00    -0.356 OA
HETATM   30  C   UNL     1      35.178 -13.186  -6.215  1.00  0.00     0.210 C 
ENDBRANCH  26  29
ENDBRANCH  20  23
ENDBRANCH  18  19
ENDBRANCH  17  18
ENDBRANCH   1  17
TORSDOF 6
ENDMDL
MODEL 8
REMARK VINA RESULT:      -8.1      1.815      2.561
REMARK  6 active torsions:
REMARK  status: ('A' for Active; 'I' for Inactive)
REMARK    1  A    between atoms: C_11  and  N_12 
REMARK    2  A    between atoms: N_12  and  C_13 
REMARK    3  A    between atoms: C_13  and  C_14 
REMARK    4  A    between atoms: C_14  and  N_15 
REMARK       I    between atoms: N_15  and  C_16 
REMARK    5  A    between atoms: C_16  and  C_17 
REMARK    6  A    between atoms: C_20  and  O_21 
ROOT
HETATM    1  N   UNL     1      42.150 -12.559   4.936  1.00  0.00    -0.277 NA
HETATM    2  H   UNL     1      42.777 -11.804   4.663  1.00  0.00     0.129 HD
ENDROOT
BRANCH   1   3
HETATM    3  C   UNL     1      42.421 -13.744   4.251  1.00  0.00     0.086 C 
HETATM    4  N   UNL     1      42.620 -14.875   4.948  1.00  0.00    -0.346 N 
HETATM    5  C   UNL     1      42.976 -16.051   4.411  1.00  0.00     0.044 A 
HETATM    6  H   UNL     1      42.435 -14.836   5.957  1.00  0.00     0.167 HD
HETATM    7  C   UNL     1      43.263 -17.153   5.223  1.00  0.00     0.037 A 
HETATM    8  C   UNL     1      43.078 -16.156   3.014  1.00  0.00    -0.008 A 
HETATM    9  C   UNL     1      43.688 -18.368   4.660  1.00  0.00    -0.054 A 
HETATM   10  C   UNL     1      43.828 -18.470   3.261  1.00  0.00    -0.055 A 
HETATM   11  C   UNL     1      44.039 -19.519   5.568  1.00  0.00     0.049 C 
HETATM   12  C   UNL     1      44.298 -19.743   2.606  1.00  0.00     0.049 C 
HETATM   13  C   UNL     1      43.497 -17.371   2.450  1.00  0.00     0.021 A 
HETATM   14  C   UNL     1      42.750 -15.041   2.239  1.00  0.00     0.023 C 
HETATM   15  C   UNL     1      42.388 -13.832   2.848  1.00  0.00    -0.023 C 
HETATM   16  C   UNL     1      42.052 -12.656   1.971  1.00  0.00     0.052 C 
ENDBRANCH   1   3
BRANCH   1  17
HETATM   17  C   UNL     1      42.062 -12.631   6.406  1.00  0.00     0.113 C 
BRANCH  17  18
HETATM   18  C   UNL     1      41.856 -11.242   7.030  1.00  0.00     0.137 C 
BRANCH  18  19
HETATM   19  N   UNL     1      41.886 -11.172   8.484  1.00  0.00    -0.356 N 
HETATM   20  C   UNL     1      42.998 -10.897   9.245  1.00  0.00     0.251 C 
HETATM   21  O   UNL     1      44.140 -10.870   8.786  1.00  0.00    -0.268 OA
HETATM   22  H   UNL     1      40.993 -11.280   8.953  1.00  0.00     0.162 HD
BRANCH  20  23
HETATM   23  C   UNL     1      42.751 -10.721  10.704  1.00  0.00     0.032 A 
HETATM   24  C   UNL     1      43.717 -10.074  11.479  1.00  0.00     0.020 A 
HETATM   25  C   UNL     1      43.525  -9.940  12.858  1.00  0.00     0.038 A 
HETATM   26  C   UNL     1      42.373 -10.436  13.473  1.00  0.00     0.068 A 
HETATM   27  C   UNL     1      41.395 -11.054  12.694  1.00  0.00     0.038 A 
HETATM   28  C   UNL     1      41.581 -11.192  11.312  1.00  0.00     0.020 A 
BRANCH  26  29
HETATM   29  O   UNL     1      42.322 -10.252  14.825  1.00  0.00    -0.356 OA
HETATM   30  C   UNL     1      41.584  -9.131  15.301  1.00  0.00     0.210 C 
ENDBRANCH  26  29
ENDBRANCH  20  23
ENDBRANCH  18  19
ENDBRANCH  17  18
ENDBRANCH   1  17
TORSDOF 6
ENDMDL
MODEL 9
REMARK VINA RESULT:      -8.1      5.392      8.422
REMARK  6 active torsions:
REMARK  status: ('A' for Active; 'I' for Inactive)
REMARK    1  A    between atoms: C_11  and  N_12 
REMARK    2  A    between atoms: N_12  and  C_13 
REMARK    3  A    between atoms: C_13  and  C_14 
REMARK    4  A    between atoms: C_14  and  N_15 
REMARK       I    between atoms: N_15  and  C_16 
REMARK    5  A    between atoms: C_16  and  C_17 
REMARK    6  A    between atoms: C_20  and  O_21 
ROOT
HETATM    1  N   UNL     1      40.293 -14.908   4.546  1.00  0.00    -0.277 NA
HETATM    2  H   UNL     1      39.556 -14.434   4.026  1.00  0.00     0.129 HD
ENDROOT
BRANCH   1   3
HETATM    3  C   UNL     1      40.822 -15.991   3.844  1.00  0.00     0.086 C 
HETATM    4  N   UNL     1      41.697 -16.806   4.455  1.00  0.00    -0.346 N 
HETATM    5  C   UNL     1      42.341 -17.821   3.860  1.00  0.00     0.044 A 
HETATM    6  H   UNL     1      41.839 -16.663   5.461  1.00  0.00     0.167 HD
HETATM    7  C   UNL     1      43.314 -18.555   4.546  1.00  0.00     0.037 A 
HETATM    8  C   UNL     1      42.036 -18.127   2.523  1.00  0.00    -0.008 A 
HETATM    9  C   UNL     1      44.024 -19.583   3.903  1.00  0.00    -0.054 A 
HETATM   10  C   UNL     1      43.750 -19.870   2.550  1.00  0.00    -0.055 A 
HETATM   11  C   UNL     1      45.103 -20.316   4.657  1.00  0.00     0.049 C 
HETATM   12  C   UNL     1      44.495 -20.949   1.807  1.00  0.00     0.049 C 
HETATM   13  C   UNL     1      42.741 -19.157   1.881  1.00  0.00     0.021 A 
HETATM   14  C   UNL     1      41.034 -17.391   1.885  1.00  0.00     0.023 C 
HETATM   15  C   UNL     1      40.395 -16.335   2.549  1.00  0.00    -0.023 C 
HETATM   16  C   UNL     1      39.327 -15.567   1.818  1.00  0.00     0.052 C 
ENDBRANCH   1   3
BRANCH   1  17
HETATM   17  C   UNL     1      41.245 -13.917   5.080  1.00  0.00     0.113 C 
BRANCH  17  18
HETATM   18  C   UNL     1      41.064 -12.542   4.417  1.00  0.00     0.137 C 
BRANCH  18  19
HETATM   19  N   UNL     1      40.947 -12.531   2.966  1.00  0.00    -0.356 N 
HETATM   20  C   UNL     1      41.926 -12.926   2.086  1.00  0.00     0.251 C 
HETATM   21  O   UNL     1      43.089 -13.150   2.425  1.00  0.00    -0.268 OA
HETATM   22  H   UNL     1      40.041 -12.263   2.595  1.00  0.00     0.162 HD
BRANCH  20  23
HETATM   23  C   UNL     1      41.521 -12.977   0.653  1.00  0.00     0.032 A 
HETATM   24  C   UNL     1      40.771 -11.923   0.125  1.00  0.00     0.020 A 
HETATM   25  C   UNL     1      40.341 -11.974  -1.205  1.00  0.00     0.038 A 
HETATM   26  C   UNL     1      40.660 -13.064  -2.020  1.00  0.00     0.068 A 
HETATM   27  C   UNL     1      41.435 -14.100  -1.501  1.00  0.00     0.038 A 
HETATM   28  C   UNL     1      41.869 -14.056  -0.169  1.00  0.00     0.020 A 
BRANCH  26  29
HETATM   29  O   UNL     1      40.164 -12.992  -3.290  1.00  0.00    -0.356 OA
HETATM   30  C   UNL     1      40.293 -11.747  -3.969  1.00  0.00     0.210 C 
ENDBRANCH  26  29
ENDBRANCH  20  23
ENDBRANCH  18  19
ENDBRANCH  17  18
ENDBRANCH   1  17
TORSDOF 6
ENDMDL
MODEL 10
REMARK VINA RESULT:      -8.0      3.439      4.390
REMARK  6 active torsions:
REMARK  status: ('A' for Active; 'I' for Inactive)
REMARK    1  A    between atoms: C_11  and  N_12 
REMARK    2  A    between atoms: N_12  and  C_13 
REMARK    3  A    between atoms: C_13  and  C_14 
REMARK    4  A    between atoms: C_14  and  N_15 
REMARK       I    between atoms: N_15  and  C_16 
REMARK    5  A    between atoms: C_16  and  C_17 
REMARK    6  A    between atoms: C_20  and  O_21 
ROOT
HETATM    1  N   UNL     1      40.267 -15.688   3.320  1.00  0.00    -0.277 NA
HETATM    2  H   UNL     1      39.668 -16.125   2.622  1.00  0.00     0.129 HD
ENDROOT
BRANCH   1   3
HETATM    3  C   UNL     1      41.193 -16.583   3.856  1.00  0.00     0.086 C 
HETATM    4  N   UNL     1      41.834 -17.434   3.038  1.00  0.00    -0.346 N 
HETATM    5  C   UNL     1      42.674 -18.397   3.442  1.00  0.00     0.044 A 
HETATM    6  H   UNL     1      41.701 -17.295   2.029  1.00  0.00     0.167 HD
HETATM    7  C   UNL     1      43.219 -19.306   2.528  1.00  0.00     0.037 A 
HETATM    8  C   UNL     1      42.987 -18.495   4.808  1.00  0.00    -0.008 A 
HETATM    9  C   UNL     1      44.056 -20.347   2.964  1.00  0.00    -0.054 A 
HETATM   10  C   UNL     1      44.344 -20.474   4.337  1.00  0.00    -0.055 A 
HETATM   11  C   UNL     1      44.581 -21.339   1.958  1.00  0.00     0.049 C 
HETATM   12  C   UNL     1      45.220 -21.582   4.861  1.00  0.00     0.049 C 
HETATM   13  C   UNL     1      43.827 -19.531   5.243  1.00  0.00     0.021 A 
HETATM   14  C   UNL     1      42.448 -17.548   5.682  1.00  0.00     0.023 C 
HETATM   15  C   UNL     1      41.570 -16.562   5.211  1.00  0.00    -0.023 C 
HETATM   16  C   UNL     1      41.009 -15.568   6.191  1.00  0.00     0.052 C 
ENDBRANCH   1   3
BRANCH   1  17
HETATM   17  C   UNL     1      40.783 -14.406   2.807  1.00  0.00     0.113 C 
BRANCH  17  18
HETATM   18  C   UNL     1      39.925 -13.221   3.278  1.00  0.00     0.137 C 
BRANCH  18  19
HETATM   19  N   UNL     1      40.334 -12.575   4.517  1.00  0.00    -0.356 N 
HETATM   20  C   UNL     1      39.498 -11.895   5.372  1.00  0.00     0.251 C 
HETATM   21  O   UNL     1      38.341 -11.588   5.085  1.00  0.00    -0.268 OA
HETATM   22  H   UNL     1      41.304 -12.699   4.784  1.00  0.00     0.162 HD
BRANCH  20  23
HETATM   23  C   UNL     1      40.113 -11.457   6.657  1.00  0.00     0.032 A 
HETATM   24  C   UNL     1      41.470 -11.128   6.680  1.00  0.00     0.020 A 
HETATM   25  C   UNL     1      42.076 -10.759   7.885  1.00  0.00     0.038 A 
HETATM   26  C   UNL     1      41.338 -10.706   9.071  1.00  0.00     0.068 A 
HETATM   27  C   UNL     1      39.976 -11.004   9.042  1.00  0.00     0.038 A 
HETATM   28  C   UNL     1      39.363 -11.375   7.838  1.00  0.00     0.020 A 
BRANCH  26  29
HETATM   29  O   UNL     1      42.057 -10.347  10.176  1.00  0.00    -0.356 OA
HETATM   30  C   UNL     1      43.275 -11.044  10.413  1.00  0.00     0.210 C 
ENDBRANCH  26  29
ENDBRANCH  20  23
ENDBRANCH  18  19
ENDBRANCH  17  18
ENDBRANCH   1  17
TORSDOF 6
ENDMDL
