MODEL 1
REMARK VINA RESULT:      -7.2      0.000      0.000
REMARK  5 active torsions:
REMARK  status: ('A' for Active; 'I' for Inactive)
REMARK    1  A    between atoms: C_2  and  N_3 
REMARK    2  A    between atoms: N_3  and  C_6 
REMARK    3  A    between atoms: C_6  and  C_7 
REMARK    4  A    between atoms: C_8  and  N_9 
REMARK       I    between atoms: N_9  and  C_10 
REMARK    5  A    between atoms: C_10  and  C_11 
ROOT
HETATM    1  C   UNL     1      44.190 -20.505   2.963  1.00  0.00    -0.006 A 
HETATM    2  C   UNL     1      44.379 -19.951   4.248  1.00  0.00     0.043 A 
HETATM    3  C   UNL     1      44.755 -20.817   5.299  1.00  0.00     0.030 A 
HETATM    4  C   UNL     1      44.910 -22.191   5.117  1.00  0.00     0.002 A 
HETATM    5  C   UNL     1      44.696 -22.741   3.867  1.00  0.00     0.001 A 
HETATM    6  C   UNL     1      44.347 -21.909   2.806  1.00  0.00     0.011 A 
ENDROOT
BRANCH   2   7
HETATM    7  N   UNL     1      44.234 -18.609   4.679  1.00  0.00    -0.321 N 
HETATM    8  C   UNL     1      43.143 -17.836   5.002  1.00  0.00     0.274 C 
HETATM    9  O   UNL     1      41.968 -18.144   4.847  1.00  0.00    -0.266 OA
HETATM   10  H   UNL     1      45.112 -18.108   4.847  1.00  0.00     0.169 HD
BRANCH   8  11
HETATM   11  C   UNL     1      43.496 -16.473   5.508  1.00  0.00     0.126 A 
HETATM   12  N   UNL     1      43.063 -15.446   4.736  1.00  0.00    -0.231 NA
HETATM   13  C   UNL     1      43.298 -14.212   5.228  1.00  0.00     0.127 A 
HETATM   14 CL   UNL     1      42.670 -12.941   4.268  1.00  0.00    -0.062 Cl
HETATM   15  C   UNL     1      43.962 -13.950   6.417  1.00  0.00     0.044 A 
HETATM   16  C   UNL     1      44.419 -15.032   7.166  1.00  0.00     0.006 A 
HETATM   17  C   UNL     1      44.174 -16.324   6.712  1.00  0.00     0.037 A 
ENDBRANCH   8  11
ENDBRANCH   2   7
BRANCH   1  18
HETATM   18  C   UNL     1      43.853 -19.764   1.693  1.00  0.00     0.273 C 
BRANCH  18  19
HETATM   19  N   UNL     1      42.563 -19.032   1.786  1.00  0.00    -0.072 N 
HETATM   20  H   UNL     1      42.145 -19.158   2.712  1.00  0.00     0.277 HD
HETATM   21  H   UNL     1      41.963 -19.529   1.109  1.00  0.00     0.277 HD
BRANCH  19  22
HETATM   22  C   UNL     1      42.586 -17.613   1.364  1.00  0.00     0.228 C 
HETATM   23  C   UNL     1      44.022 -17.126   1.389  1.00  0.00     0.034 C 
ENDBRANCH  19  22
ENDBRANCH  18  19
ENDBRANCH   1  18
TORSDOF 5
ENDMDL
MODEL 2
REMARK VINA RESULT:      -7.0      1.869      3.281
REMARK  5 active torsions:
REMARK  status: ('A' for Active; 'I' for Inactive)
REMARK    1  A    between atoms: C_2  and  N_3 
REMARK    2  A    between atoms: N_3  and  C_6 
REMARK    3  A    between atoms: C_6  and  C_7 
REMARK    4  A    between atoms: C_8  and  N_9 
REMARK       I    between atoms: N_9  and  C_10 
REMARK    5  A    between atoms: C_10  and  C_11 
ROOT
HETATM    1  C   UNL     1      44.375 -20.089   4.165  1.00  0.00    -0.006 A 
HETATM    2  C   UNL     1      43.663 -19.333   3.208  1.00  0.00     0.043 A 
HETATM    3  C   UNL     1      43.311 -19.958   1.991  1.00  0.00     0.030 A 
HETATM    4  C   UNL     1      43.672 -21.272   1.694  1.00  0.00     0.002 A 
HETATM    5  C   UNL     1      44.396 -22.004   2.615  1.00  0.00     0.001 A 
HETATM    6  C   UNL     1      44.737 -21.423   3.834  1.00  0.00     0.011 A 
ENDROOT
BRANCH   2   7
HETATM    7  N   UNL     1      43.234 -17.984   3.267  1.00  0.00    -0.321 N 
HETATM    8  C   UNL     1      42.251 -17.339   3.981  1.00  0.00     0.274 C 
HETATM    9  O   UNL     1      41.393 -17.871   4.675  1.00  0.00    -0.266 OA
HETATM   10  H   UNL     1      43.792 -17.324   2.717  1.00  0.00     0.169 HD
BRANCH   8  11
HETATM   11  C   UNL     1      42.233 -15.856   3.781  1.00  0.00     0.126 A 
HETATM   12  N   UNL     1      41.089 -15.239   4.168  1.00  0.00    -0.231 NA
HETATM   13  C   UNL     1      41.096 -13.893   4.075  1.00  0.00     0.127 A 
HETATM   14 CL   UNL     1      39.666 -13.142   4.645  1.00  0.00    -0.062 Cl
HETATM   15  C   UNL     1      42.156 -13.141   3.593  1.00  0.00     0.044 A 
HETATM   16  C   UNL     1      43.303 -13.814   3.176  1.00  0.00     0.006 A 
HETATM   17  C   UNL     1      43.352 -15.201   3.280  1.00  0.00     0.037 A 
ENDBRANCH   8  11
ENDBRANCH   2   7
BRANCH   1  18
HETATM   18  C   UNL     1      44.794 -19.649   5.546  1.00  0.00     0.273 C 
BRANCH  18  19
HETATM   19  N   UNL     1      43.638 -19.478   6.464  1.00  0.00    -0.072 N 
HETATM   20  H   UNL     1      43.462 -20.341   6.985  1.00  0.00     0.277 HD
HETATM   21  H   UNL     1      42.844 -19.341   5.819  1.00  0.00     0.277 HD
BRANCH  19  22
HETATM   22  C   UNL     1      43.674 -18.286   7.343  1.00  0.00     0.228 C 
HETATM   23  C   UNL     1      44.613 -17.264   6.732  1.00  0.00     0.034 C 
ENDBRANCH  19  22
ENDBRANCH  18  19
ENDBRANCH   1  18
TORSDOF 5
ENDMDL
MODEL 3
REMARK VINA RESULT:      -6.9      2.947      6.761
REMARK  5 active torsions:
REMARK  status: ('A' for Active; 'I' for Inactive)
REMARK    1  A    between atoms: C_2  and  N_3 
REMARK    2  A    between atoms: N_3  and  C_6 
REMARK    3  A    between atoms: C_6  and  C_7 
REMARK    4  A    between atoms: C_8  and  N_9 
REMARK       I    between atoms: N_9  and  C_10 
REMARK    5  A    between atoms: C_10  and  C_11 
ROOT
HETATM    1  C   UNL     1      42.113 -16.063   5.523  1.00  0.00    -0.006 A 
HETATM    2  C   UNL     1      41.915 -16.753   4.307  1.00  0.00     0.043 A 
HETATM    3  C   UNL     1      40.986 -16.225   3.383  1.00  0.00     0.030 A 
HETATM    4  C   UNL     1      40.240 -15.077   3.646  1.00  0.00     0.002 A 
HETATM    5  C   UNL     1      40.408 -14.416   4.848  1.00  0.00     0.001 A 
HETATM    6  C   UNL     1      41.334 -14.899   5.770  1.00  0.00     0.011 A 
ENDROOT
BRANCH   2   7
HETATM    7  N   UNL     1      42.515 -17.951   3.846  1.00  0.00    -0.321 N 
HETATM    8  C   UNL     1      43.580 -18.212   3.014  1.00  0.00     0.274 C 
HETATM    9  O   UNL     1      44.195 -17.388   2.348  1.00  0.00    -0.266 OA
HETATM   10  H   UNL     1      42.132 -18.813   4.245  1.00  0.00     0.169 HD
BRANCH   8  11
HETATM   11  C   UNL     1      43.910 -19.666   2.893  1.00  0.00     0.126 A 
HETATM   12  N   UNL     1      44.438 -20.228   4.008  1.00  0.00    -0.231 NA
HETATM   13  C   UNL     1      44.657 -21.558   3.939  1.00  0.00     0.127 A 
HETATM   14 CL   UNL     1      45.251 -22.248   5.389  1.00  0.00    -0.062 Cl
HETATM   15  C   UNL     1      44.412 -22.341   2.821  1.00  0.00     0.044 A 
HETATM   16  C   UNL     1      43.898 -21.720   1.685  1.00  0.00     0.006 A 
HETATM   17  C   UNL     1      43.629 -20.355   1.719  1.00  0.00     0.037 A 
ENDBRANCH   8  11
ENDBRANCH   2   7
BRANCH   1  18
HETATM   18  C   UNL     1      43.093 -16.407   6.617  1.00  0.00     0.273 C 
BRANCH  18  19
HETATM   19  N   UNL     1      43.541 -15.212   7.376  1.00  0.00    -0.072 N 
HETATM   20  H   UNL     1      43.599 -15.422   8.377  1.00  0.00     0.277 HD
HETATM   21  H   UNL     1      42.763 -14.546   7.247  1.00  0.00     0.277 HD
BRANCH  19  22
HETATM   22  C   UNL     1      44.758 -14.536   6.871  1.00  0.00     0.228 C 
HETATM   23  C   UNL     1      45.065 -13.356   7.771  1.00  0.00     0.034 C 
ENDBRANCH  19  22
ENDBRANCH  18  19
ENDBRANCH   1  18
TORSDOF 5
ENDMDL
MODEL 4
REMARK VINA RESULT:      -6.7      2.888      4.760
REMARK  5 active torsions:
REMARK  status: ('A' for Active; 'I' for Inactive)
REMARK    1  A    between atoms: C_2  and  N_3 
REMARK    2  A    between atoms: N_3  and  C_6 
REMARK    3  A    between atoms: C_6  and  C_7 
REMARK    4  A    between atoms: C_8  and  N_9 
REMARK       I    between atoms: N_9  and  C_10 
REMARK    5  A    between atoms: C_10  and  C_11 
ROOT
HETATM    1  C   UNL     1      44.106 -19.621   3.727  1.00  0.00    -0.006 A 
HETATM    2  C   UNL     1      43.223 -19.426   2.642  1.00  0.00     0.043 A 
HETATM    3  C   UNL     1      43.033 -20.493   1.736  1.00  0.00     0.030 A 
HETATM    4  C   UNL     1      43.709 -21.707   1.857  1.00  0.00     0.002 A 
HETATM    5  C   UNL     1      44.597 -21.890   2.900  1.00  0.00     0.001 A 
HETATM    6  C   UNL     1      44.788 -20.865   3.823  1.00  0.00     0.011 A 
ENDROOT
BRANCH   2   7
HETATM    7  N   UNL     1      42.471 -18.278   2.290  1.00  0.00    -0.321 N 
HETATM    8  C   UNL     1      42.657 -17.277   1.364  1.00  0.00     0.274 C 
HETATM    9  O   UNL     1      43.661 -17.097   0.686  1.00  0.00    -0.266 OA
HETATM   10  H   UNL     1      41.571 -18.182   2.771  1.00  0.00     0.169 HD
BRANCH   8  11
HETATM   11  C   UNL     1      41.521 -16.306   1.288  1.00  0.00     0.126 A 
HETATM   12  N   UNL     1      41.619 -15.388   0.295  1.00  0.00    -0.231 NA
HETATM   13  C   UNL     1      40.559 -14.564   0.161  1.00  0.00     0.127 A 
HETATM   14 CL   UNL     1      40.681 -13.468  -1.149  1.00  0.00    -0.062 Cl
HETATM   15  C   UNL     1      39.436 -14.584   0.974  1.00  0.00     0.044 A 
HETATM   16  C   UNL     1      39.387 -15.523   2.002  1.00  0.00     0.006 A 
HETATM   17  C   UNL     1      40.445 -16.413   2.160  1.00  0.00     0.037 A 
ENDBRANCH   8  11
ENDBRANCH   2   7
BRANCH   1  18
HETATM   18  C   UNL     1      44.408 -18.650   4.841  1.00  0.00     0.273 C 
BRANCH  18  19
HETATM   19  N   UNL     1      44.760 -19.334   6.112  1.00  0.00    -0.072 N 
HETATM   20  H   UNL     1      45.556 -18.872   6.561  1.00  0.00     0.277 HD
HETATM   21  H   UNL     1      45.082 -20.263   5.797  1.00  0.00     0.277 HD
BRANCH  19  22
HETATM   22  C   UNL     1      43.643 -19.575   7.054  1.00  0.00     0.228 C 
HETATM   23  C   UNL     1      43.578 -21.059   7.356  1.00  0.00     0.034 C 
ENDBRANCH  19  22
ENDBRANCH  18  19
ENDBRANCH   1  18
TORSDOF 5
ENDMDL
MODEL 5
REMARK VINA RESULT:      -6.7      2.517      4.721
REMARK  5 active torsions:
REMARK  status: ('A' for Active; 'I' for Inactive)
REMARK    1  A    between atoms: C_2  and  N_3 
REMARK    2  A    between atoms: N_3  and  C_6 
REMARK    3  A    between atoms: C_6  and  C_7 
REMARK    4  A    between atoms: C_8  and  N_9 
REMARK       I    between atoms: N_9  and  C_10 
REMARK    5  A    between atoms: C_10  and  C_11 
ROOT
HETATM    1  C   UNL     1      43.929 -19.186   3.707  1.00  0.00    -0.006 A 
HETATM    2  C   UNL     1      43.187 -19.213   2.505  1.00  0.00     0.043 A 
HETATM    3  C   UNL     1      43.190 -20.404   1.746  1.00  0.00     0.030 A 
HETATM    4  C   UNL     1      43.921 -21.530   2.122  1.00  0.00     0.002 A 
HETATM    5  C   UNL     1      44.673 -21.496   3.281  1.00  0.00     0.001 A 
HETATM    6  C   UNL     1      44.672 -20.344   4.064  1.00  0.00     0.011 A 
ENDROOT
BRANCH   2   7
HETATM    7  N   UNL     1      42.415 -18.189   1.902  1.00  0.00    -0.321 N 
HETATM    8  C   UNL     1      41.462 -17.321   2.383  1.00  0.00     0.274 C 
HETATM    9  O   UNL     1      40.956 -17.349   3.498  1.00  0.00    -0.266 OA
HETATM   10  H   UNL     1      42.635 -17.998   0.920  1.00  0.00     0.169 HD
BRANCH   8  11
HETATM   11  C   UNL     1      40.983 -16.329   1.371  1.00  0.00     0.126 A 
HETATM   12  N   UNL     1      39.976 -15.523   1.791  1.00  0.00    -0.231 NA
HETATM   13  C   UNL     1      39.597 -14.566   0.919  1.00  0.00     0.127 A 
HETATM   14 CL   UNL     1      38.378 -13.519   1.511  1.00  0.00    -0.062 Cl
HETATM   15  C   UNL     1      40.138 -14.392  -0.346  1.00  0.00     0.044 A 
HETATM   16  C   UNL     1      41.150 -15.259  -0.752  1.00  0.00     0.006 A 
HETATM   17  C   UNL     1      41.593 -16.245   0.125  1.00  0.00     0.037 A 
ENDBRANCH   8  11
ENDBRANCH   2   7
BRANCH   1  18
HETATM   18  C   UNL     1      44.016 -18.053   4.698  1.00  0.00     0.273 C 
BRANCH  18  19
HETATM   19  N   UNL     1      42.893 -18.059   5.671  1.00  0.00    -0.072 N 
HETATM   20  H   UNL     1      42.245 -18.826   5.467  1.00  0.00     0.277 HD
HETATM   21  H   UNL     1      42.398 -17.177   5.464  1.00  0.00     0.277 HD
BRANCH  19  22
HETATM   22  C   UNL     1      43.269 -18.004   7.102  1.00  0.00     0.228 C 
HETATM   23  C   UNL     1      44.755 -18.279   7.221  1.00  0.00     0.034 C 
ENDBRANCH  19  22
ENDBRANCH  18  19
ENDBRANCH   1  18
TORSDOF 5
ENDMDL
MODEL 6
REMARK VINA RESULT:      -6.3      2.799      4.773
REMARK  5 active torsions:
REMARK  status: ('A' for Active; 'I' for Inactive)
REMARK    1  A    between atoms: C_2  and  N_3 
REMARK    2  A    between atoms: N_3  and  C_6 
REMARK    3  A    between atoms: C_6  and  C_7 
REMARK    4  A    between atoms: C_8  and  N_9 
REMARK       I    between atoms: N_9  and  C_10 
REMARK    5  A    between atoms: C_10  and  C_11 
ROOT
HETATM    1  C   UNL     1      44.087 -18.625   4.456  1.00  0.00    -0.006 A 
HETATM    2  C   UNL     1      43.504 -17.339   4.442  1.00  0.00     0.043 A 
HETATM    3  C   UNL     1      43.741 -16.487   5.544  1.00  0.00     0.030 A 
HETATM    4  C   UNL     1      44.495 -16.884   6.648  1.00  0.00     0.002 A 
HETATM    5  C   UNL     1      45.040 -18.154   6.679  1.00  0.00     0.001 A 
HETATM    6  C   UNL     1      44.844 -19.008   5.597  1.00  0.00     0.011 A 
ENDROOT
BRANCH   2   7
HETATM    7  N   UNL     1      42.672 -16.740   3.465  1.00  0.00    -0.321 N 
HETATM    8  C   UNL     1      41.435 -16.139   3.520  1.00  0.00     0.274 C 
HETATM    9  O   UNL     1      40.687 -16.114   4.490  1.00  0.00    -0.266 OA
HETATM   10  H   UNL     1      43.077 -16.677   2.526  1.00  0.00     0.169 HD
BRANCH   8  11
HETATM   11  C   UNL     1      40.988 -15.554   2.218  1.00  0.00     0.126 A 
HETATM   12  N   UNL     1      39.664 -15.275   2.140  1.00  0.00    -0.231 NA
HETATM   13  C   UNL     1      39.265 -14.666   1.004  1.00  0.00     0.127 A 
HETATM   14 CL   UNL     1      37.602 -14.258   0.971  1.00  0.00    -0.062 Cl
HETATM   15  C   UNL     1      40.100 -14.354  -0.058  1.00  0.00     0.044 A 
HETATM   16  C   UNL     1      41.449 -14.684   0.048  1.00  0.00     0.006 A 
HETATM   17  C   UNL     1      41.911 -15.288   1.213  1.00  0.00     0.037 A 
ENDBRANCH   8  11
ENDBRANCH   2   7
BRANCH   1  18
HETATM   18  C   UNL     1      44.020 -19.667   3.367  1.00  0.00     0.273 C 
BRANCH  18  19
HETATM   19  N   UNL     1      44.852 -20.860   3.669  1.00  0.00    -0.072 N 
HETATM   20  H   UNL     1      44.955 -20.980   4.680  1.00  0.00     0.277 HD
HETATM   21  H   UNL     1      45.779 -20.601   3.295  1.00  0.00     0.277 HD
BRANCH  19  22
HETATM   22  C   UNL     1      44.462 -22.116   2.988  1.00  0.00     0.228 C 
HETATM   23  C   UNL     1      43.880 -21.769   1.632  1.00  0.00     0.034 C 
ENDBRANCH  19  22
ENDBRANCH  18  19
ENDBRANCH   1  18
TORSDOF 5
ENDMDL
MODEL 7
REMARK VINA RESULT:      -6.3      1.713      2.310
REMARK  5 active torsions:
REMARK  status: ('A' for Active; 'I' for Inactive)
REMARK    1  A    between atoms: C_2  and  N_3 
REMARK    2  A    between atoms: N_3  and  C_6 
REMARK    3  A    between atoms: C_6  and  C_7 
REMARK    4  A    between atoms: C_8  and  N_9 
REMARK       I    between atoms: N_9  and  C_10 
REMARK    5  A    between atoms: C_10  and  C_11 
ROOT
HETATM    1  C   UNL     1      43.561 -18.848   2.207  1.00  0.00    -0.006 A 
HETATM    2  C   UNL     1      43.724 -18.456   3.554  1.00  0.00     0.043 A 
HETATM    3  C   UNL     1      44.290 -19.386   4.455  1.00  0.00     0.030 A 
HETATM    4  C   UNL     1      44.656 -20.675   4.069  1.00  0.00     0.002 A 
HETATM    5  C   UNL     1      44.469 -21.071   2.759  1.00  0.00     0.001 A 
HETATM    6  C   UNL     1      43.935 -20.170   1.841  1.00  0.00     0.011 A 
ENDROOT
BRANCH   2   7
HETATM    7  N   UNL     1      43.386 -17.232   4.181  1.00  0.00    -0.321 N 
HETATM    8  C   UNL     1      42.300 -16.820   4.919  1.00  0.00     0.274 C 
HETATM    9  O   UNL     1      41.262 -17.446   5.089  1.00  0.00    -0.266 OA
HETATM   10  H   UNL     1      44.108 -16.506   4.139  1.00  0.00     0.169 HD
BRANCH   8  11
HETATM   11  C   UNL     1      42.434 -15.434   5.468  1.00  0.00     0.126 A 
HETATM   12  N   UNL     1      43.601 -15.182   6.110  1.00  0.00    -0.231 NA
HETATM   13  C   UNL     1      43.769 -13.911   6.531  1.00  0.00     0.127 A 
HETATM   14 CL   UNL     1      45.285 -13.609   7.267  1.00  0.00    -0.062 Cl
HETATM   15  C   UNL     1      42.833 -12.900   6.378  1.00  0.00     0.044 A 
HETATM   16  C   UNL     1      41.633 -13.206   5.740  1.00  0.00     0.006 A 
HETATM   17  C   UNL     1      41.428 -14.497   5.264  1.00  0.00     0.037 A 
ENDBRANCH   8  11
ENDBRANCH   2   7
BRANCH   1  18
HETATM   18  C   UNL     1      43.043 -18.004   1.069  1.00  0.00     0.273 C 
BRANCH  18  19
HETATM   19  N   UNL     1      41.585 -17.736   1.178  1.00  0.00    -0.072 N 
HETATM   20  H   UNL     1      41.200 -18.178   2.016  1.00  0.00     0.277 HD
HETATM   21  H   UNL     1      41.195 -18.232   0.362  1.00  0.00     0.277 HD
BRANCH  19  22
HETATM   22  C   UNL     1      41.171 -16.320   1.045  1.00  0.00     0.228 C 
HETATM   23  C   UNL     1      40.044 -16.054   2.024  1.00  0.00     0.034 C 
ENDBRANCH  19  22
ENDBRANCH  18  19
ENDBRANCH   1  18
TORSDOF 5
ENDMDL
MODEL 8
REMARK VINA RESULT:      -6.2      3.814      5.804
REMARK  5 active torsions:
REMARK  status: ('A' for Active; 'I' for Inactive)
REMARK    1  A    between atoms: C_2  and  N_3 
REMARK    2  A    between atoms: N_3  and  C_6 
REMARK    3  A    between atoms: C_6  and  C_7 
REMARK    4  A    between atoms: C_8  and  N_9 
REMARK       I    between atoms: N_9  and  C_10 
REMARK    5  A    between atoms: C_10  and  C_11 
ROOT
HETATM    1  C   UNL     1      42.418 -17.676   3.965  1.00  0.00    -0.006 A 
HETATM    2  C   UNL     1      42.003 -17.551   2.621  1.00  0.00     0.043 A 
HETATM    3  C   UNL     1      42.523 -18.461   1.674  1.00  0.00     0.030 A 
HETATM    4  C   UNL     1      43.451 -19.445   2.014  1.00  0.00     0.002 A 
HETATM    5  C   UNL     1      43.883 -19.551   3.322  1.00  0.00     0.001 A 
HETATM    6  C   UNL     1      43.370 -18.683   4.284  1.00  0.00     0.011 A 
ENDROOT
BRANCH   2   7
HETATM    7  N   UNL     1      41.118 -16.610   2.038  1.00  0.00    -0.321 N 
HETATM    8  C   UNL     1      41.220 -15.267   1.761  1.00  0.00     0.274 C 
HETATM    9  O   UNL     1      42.130 -14.524   2.110  1.00  0.00    -0.266 OA
HETATM   10  H   UNL     1      40.236 -16.999   1.690  1.00  0.00     0.169 HD
BRANCH   8  11
HETATM   11  C   UNL     1      40.037 -14.707   1.036  1.00  0.00     0.126 A 
HETATM   12  N   UNL     1      40.286 -14.288  -0.229  1.00  0.00    -0.231 NA
HETATM   13  C   UNL     1      39.209 -13.865  -0.923  1.00  0.00     0.127 A 
HETATM   14 CL   UNL     1      39.546 -13.417  -2.541  1.00  0.00    -0.062 Cl
HETATM   15  C   UNL     1      37.919 -13.806  -0.418  1.00  0.00     0.044 A 
HETATM   16  C   UNL     1      37.709 -14.217   0.897  1.00  0.00     0.006 A 
HETATM   17  C   UNL     1      38.786 -14.688   1.641  1.00  0.00     0.037 A 
ENDBRANCH   8  11
ENDBRANCH   2   7
BRANCH   1  18
HETATM   18  C   UNL     1      41.946 -16.862   5.144  1.00  0.00     0.273 C 
BRANCH  18  19
HETATM   19  N   UNL     1      42.556 -15.508   5.182  1.00  0.00    -0.072 N 
HETATM   20  H   UNL     1      43.075 -15.323   4.319  1.00  0.00     0.277 HD
HETATM   21  H   UNL     1      43.247 -15.584   5.945  1.00  0.00     0.277 HD
BRANCH  19  22
HETATM   22  C   UNL     1      41.650 -14.394   5.545  1.00  0.00     0.228 C 
HETATM   23  C   UNL     1      40.218 -14.872   5.405  1.00  0.00     0.034 C 
ENDBRANCH  19  22
ENDBRANCH  18  19
ENDBRANCH   1  18
TORSDOF 5
ENDMDL
MODEL 9
REMARK VINA RESULT:      -6.2      3.110      6.512
REMARK  5 active torsions:
REMARK  status: ('A' for Active; 'I' for Inactive)
REMARK    1  A    between atoms: C_2  and  N_3 
REMARK    2  A    between atoms: N_3  and  C_6 
REMARK    3  A    between atoms: C_6  and  C_7 
REMARK    4  A    between atoms: C_8  and  N_9 
REMARK       I    between atoms: N_9  and  C_10 
REMARK    5  A    between atoms: C_10  and  C_11 
ROOT
HETATM    1  C   UNL     1      42.565 -14.185   2.441  1.00  0.00    -0.006 A 
HETATM    2  C   UNL     1      42.558 -15.488   1.895  1.00  0.00     0.043 A 
HETATM    3  C   UNL     1      42.012 -15.667   0.604  1.00  0.00     0.030 A 
HETATM    4  C   UNL     1      41.454 -14.617  -0.124  1.00  0.00     0.002 A 
HETATM    5  C   UNL     1      41.430 -13.347   0.421  1.00  0.00     0.001 A 
HETATM    6  C   UNL     1      41.982 -13.134   1.682  1.00  0.00     0.011 A 
ENDROOT
BRANCH   2   7
HETATM    7  N   UNL     1      43.020 -16.702   2.460  1.00  0.00    -0.321 N 
HETATM    8  C   UNL     1      42.495 -17.566   3.392  1.00  0.00     0.274 C 
HETATM    9  O   UNL     1      41.494 -17.376   4.072  1.00  0.00    -0.266 OA
HETATM   10  H   UNL     1      43.896 -17.060   2.067  1.00  0.00     0.169 HD
BRANCH   8  11
HETATM   11  C   UNL     1      43.319 -18.797   3.607  1.00  0.00     0.126 A 
HETATM   12  N   UNL     1      43.291 -19.690   2.587  1.00  0.00    -0.231 NA
HETATM   13  C   UNL     1      44.100 -20.760   2.732  1.00  0.00     0.127 A 
HETATM   14 CL   UNL     1      44.099 -21.828   1.392  1.00  0.00    -0.062 Cl
HETATM   15  C   UNL     1      44.899 -21.002   3.838  1.00  0.00     0.044 A 
HETATM   16  C   UNL     1      44.877 -20.076   4.879  1.00  0.00     0.006 A 
HETATM   17  C   UNL     1      44.079 -18.941   4.762  1.00  0.00     0.037 A 
ENDBRANCH   8  11
ENDBRANCH   2   7
BRANCH   1  18
HETATM   18  C   UNL     1      43.150 -13.756   3.763  1.00  0.00     0.273 C 
BRANCH  18  19
HETATM   19  N   UNL     1      42.444 -14.362   4.922  1.00  0.00    -0.072 N 
HETATM   20  H   UNL     1      43.113 -14.633   5.648  1.00  0.00     0.277 HD
HETATM   21  H   UNL     1      42.050 -15.230   4.528  1.00  0.00     0.277 HD
BRANCH  19  22
HETATM   22  C   UNL     1      41.302 -13.592   5.466  1.00  0.00     0.228 C 
HETATM   23  C   UNL     1      40.018 -14.307   5.095  1.00  0.00     0.034 C 
ENDBRANCH  19  22
ENDBRANCH  18  19
ENDBRANCH   1  18
TORSDOF 5
ENDMDL
MODEL 10
REMARK VINA RESULT:      -6.2      2.984      4.732
REMARK  5 active torsions:
REMARK  status: ('A' for Active; 'I' for Inactive)
REMARK    1  A    between atoms: C_2  and  N_3 
REMARK    2  A    between atoms: N_3  and  C_6 
REMARK    3  A    between atoms: C_6  and  C_7 
REMARK    4  A    between atoms: C_8  and  N_9 
REMARK       I    between atoms: N_9  and  C_10 
REMARK    5  A    between atoms: C_10  and  C_11 
ROOT
HETATM    1  C   UNL     1      43.976 -18.444   4.422  1.00  0.00    -0.006 A 
HETATM    2  C   UNL     1      43.386 -17.177   4.626  1.00  0.00     0.043 A 
HETATM    3  C   UNL     1      43.681 -16.488   5.824  1.00  0.00     0.030 A 
HETATM    4  C   UNL     1      44.500 -17.028   6.815  1.00  0.00     0.002 A 
HETATM    5  C   UNL     1      45.054 -18.281   6.632  1.00  0.00     0.001 A 
HETATM    6  C   UNL     1      44.800 -18.975   5.451  1.00  0.00     0.011 A 
ENDROOT
BRANCH   2   7
HETATM    7  N   UNL     1      42.494 -16.456   3.793  1.00  0.00    -0.321 N 
HETATM    8  C   UNL     1      42.668 -15.429   2.895  1.00  0.00     0.274 C 
HETATM    9  O   UNL     1      43.699 -14.793   2.714  1.00  0.00    -0.266 OA
HETATM   10  H   UNL     1      41.525 -16.788   3.801  1.00  0.00     0.169 HD
BRANCH   8  11
HETATM   11  C   UNL     1      41.419 -15.049   2.163  1.00  0.00     0.126 A 
HETATM   12  N   UNL     1      41.617 -14.383   0.999  1.00  0.00    -0.231 NA
HETATM   13  C   UNL     1      40.503 -14.114   0.288  1.00  0.00     0.127 A 
HETATM   14 CL   UNL     1      40.796 -13.342  -1.212  1.00  0.00    -0.062 Cl
HETATM   15  C   UNL     1      39.215 -14.440   0.685  1.00  0.00     0.044 A 
HETATM   16  C   UNL     1      39.051 -15.097   1.902  1.00  0.00     0.006 A 
HETATM   17  C   UNL     1      40.174 -15.421   2.657  1.00  0.00     0.037 A 
ENDBRANCH   8  11
ENDBRANCH   2   7
BRANCH   1  18
HETATM   18  C   UNL     1      43.852 -19.320   3.201  1.00  0.00     0.273 C 
BRANCH  18  19
HETATM   19  N   UNL     1      44.901 -20.371   3.145  1.00  0.00    -0.072 N 
HETATM   20  H   UNL     1      45.490 -20.337   3.983  1.00  0.00     0.277 HD
HETATM   21  H   UNL     1      45.486 -20.077   2.347  1.00  0.00     0.277 HD
BRANCH  19  22
HETATM   22  C   UNL     1      44.435 -21.743   2.840  1.00  0.00     0.228 C 
HETATM   23  C   UNL     1      43.658 -21.709   1.538  1.00  0.00     0.034 C 
ENDBRANCH  19  22
ENDBRANCH  18  19
ENDBRANCH   1  18
TORSDOF 5
ENDMDL
