MODEL 1
REMARK VINA RESULT:      -8.0      0.000      0.000
REMARK  6 active torsions:
REMARK  status: ('A' for Active; 'I' for Inactive)
REMARK    1  A    between atoms: C_8  and  C_9 
REMARK    2  A    between atoms: C_9  and  C_10 
REMARK       I    between atoms: C_10  and  N_11 
REMARK    3  A    between atoms: N_11  and  C_12 
REMARK    4  A    between atoms: C_12  and  C_13 
REMARK    5  A    between atoms: C_13  and  N_14 
REMARK    6  A    between atoms: C_13  and  C_20 
ROOT
HETATM    1  C   UNL     1      41.405 -16.843   1.545  1.00  0.00     0.160 C 
ENDROOT
BRANCH   1   2
HETATM    2  N   UNL     1      41.083 -15.952   0.434  1.00  0.00    -0.358 N 
HETATM    3  C   UNL     1      39.977 -15.124   0.521  1.00  0.00     0.226 C 
HETATM    4  O   UNL     1      39.117 -15.329   1.378  1.00  0.00    -0.273 OA
HETATM    5  H   UNL     1      41.869 -15.581  -0.088  1.00  0.00     0.162 HD
BRANCH   3   6
HETATM    6  C   UNL     1      39.862 -13.985  -0.501  1.00  0.00     0.111 C 
HETATM    7  C   UNL     1      38.432 -13.674  -0.938  1.00  0.00     0.025 C 
BRANCH   6   8
HETATM    8  C   UNL     1      40.804 -14.171  -1.657  1.00  0.00     0.004 A 
HETATM    9  C   UNL     1      41.944 -13.423  -1.910  1.00  0.00     0.033 A 
HETATM   10  C   UNL     1      42.571 -12.290  -1.186  1.00  0.00     0.070 C 
HETATM   11  N   UNL     1      42.493 -13.932  -3.052  1.00  0.00    -0.282 N 
HETATM   12  H   UNL     1      43.337 -13.635  -3.533  1.00  0.00     0.189 HD
HETATM   13  N   UNL     1      41.794 -14.947  -3.570  1.00  0.00    -0.179 NA
HETATM   14  C   UNL     1      40.760 -15.102  -2.739  1.00  0.00     0.060 A 
HETATM   15  C   UNL     1      39.772 -16.167  -3.043  1.00  0.00     0.073 C 
ENDBRANCH   6   8
ENDBRANCH   3   6
ENDBRANCH   1   2
BRANCH   1  16
HETATM   16  C   UNL     1      42.795 -16.652   2.244  1.00  0.00     0.238 C 
BRANCH  16  17
HETATM   17  N   UNL     1      42.787 -15.631   3.390  1.00  0.00    -0.061 N 
HETATM   18  H   UNL     1      43.312 -16.104   4.138  1.00  0.00     0.280 HD
HETATM   19  C   UNL     1      41.460 -15.252   4.000  1.00  0.00     0.236 C 
HETATM   20  C   UNL     1      41.295 -13.788   3.653  1.00  0.00     0.029 C 
HETATM   21  C   UNL     1      42.710 -13.256   3.739  1.00  0.00     0.029 C 
HETATM   22  C   UNL     1      43.552 -14.353   3.114  1.00  0.00     0.236 C 
ENDBRANCH  16  17
BRANCH  16  23
HETATM   23  C   UNL     1      43.406 -17.964   2.728  1.00  0.00    -0.024 A 
HETATM   24  C   UNL     1      43.439 -19.125   1.935  1.00  0.00     0.033 A 
HETATM   25  C   UNL     1      43.985 -20.311   2.435  1.00  0.00     0.034 A 
HETATM   26 CL   UNL     1      44.005 -21.714   1.440  1.00  0.00    -0.084 Cl
HETATM   27  C   UNL     1      44.501 -20.367   3.724  1.00  0.00     0.024 A 
HETATM   28  C   UNL     1      44.473 -19.227   4.525  1.00  0.00     0.002 A 
HETATM   29  C   UNL     1      43.927 -18.038   4.034  1.00  0.00     0.009 A 
ENDBRANCH  16  23
ENDBRANCH   1  16
TORSDOF 6
ENDMDL
MODEL 2
REMARK VINA RESULT:      -8.0      2.141      3.048
REMARK  6 active torsions:
REMARK  status: ('A' for Active; 'I' for Inactive)
REMARK    1  A    between atoms: C_8  and  C_9 
REMARK    2  A    between atoms: C_9  and  C_10 
REMARK       I    between atoms: C_10  and  N_11 
REMARK    3  A    between atoms: N_11  and  C_12 
REMARK    4  A    between atoms: C_12  and  C_13 
REMARK    5  A    between atoms: C_13  and  N_14 
REMARK    6  A    between atoms: C_13  and  C_20 
ROOT
HETATM    1  C   UNL     1      42.103 -17.410   2.954  1.00  0.00     0.160 C 
ENDROOT
BRANCH   1   2
HETATM    2  N   UNL     1      42.301 -16.192   2.173  1.00  0.00    -0.358 N 
HETATM    3  C   UNL     1      41.731 -16.086   0.916  1.00  0.00     0.226 C 
HETATM    4  O   UNL     1      41.310 -17.090   0.341  1.00  0.00    -0.273 OA
HETATM    5  H   UNL     1      42.371 -15.328   2.698  1.00  0.00     0.162 HD
BRANCH   3   6
HETATM    6  C   UNL     1      41.681 -14.692   0.276  1.00  0.00     0.111 C 
HETATM    7  C   UNL     1      41.952 -13.544   1.247  1.00  0.00     0.025 C 
BRANCH   6   8
HETATM    8  C   UNL     1      40.436 -14.491  -0.540  1.00  0.00     0.004 A 
HETATM    9  C   UNL     1      39.155 -14.302  -0.041  1.00  0.00     0.033 A 
HETATM   10  C   UNL     1      38.627 -14.232   1.344  1.00  0.00     0.070 C 
HETATM   11  N   UNL     1      38.338 -14.160  -1.126  1.00  0.00    -0.282 N 
HETATM   12  H   UNL     1      37.334 -14.002  -1.143  1.00  0.00     0.189 HD
HETATM   13  N   UNL     1      38.983 -14.253  -2.292  1.00  0.00    -0.179 NA
HETATM   14  C   UNL     1      40.259 -14.461  -1.956  1.00  0.00     0.060 A 
HETATM   15  C   UNL     1      41.253 -14.616  -3.047  1.00  0.00     0.073 C 
ENDBRANCH   6   8
ENDBRANCH   3   6
ENDBRANCH   1   2
BRANCH   1  16
HETATM   16  C   UNL     1      43.315 -17.931   3.800  1.00  0.00     0.238 C 
BRANCH  16  17
HETATM   17  N   UNL     1      43.133 -17.780   5.316  1.00  0.00    -0.061 N 
HETATM   18  H   UNL     1      43.285 -18.733   5.673  1.00  0.00     0.280 HD
HETATM   19  C   UNL     1      41.780 -17.361   5.836  1.00  0.00     0.236 C 
HETATM   20  C   UNL     1      42.024 -16.001   6.454  1.00  0.00     0.029 C 
HETATM   21  C   UNL     1      43.409 -16.140   7.050  1.00  0.00     0.029 C 
HETATM   22  C   UNL     1      44.178 -16.927   6.005  1.00  0.00     0.236 C 
ENDBRANCH  16  17
BRANCH  16  23
HETATM   23  C   UNL     1      43.702 -19.369   3.468  1.00  0.00    -0.024 A 
HETATM   24  C   UNL     1      44.315 -20.226   4.399  1.00  0.00     0.033 A 
HETATM   25  C   UNL     1      44.677 -21.527   4.036  1.00  0.00     0.034 A 
HETATM   26 CL   UNL     1      45.429 -22.546   5.199  1.00  0.00    -0.084 Cl
HETATM   27  C   UNL     1      44.441 -21.996   2.750  1.00  0.00     0.024 A 
HETATM   28  C   UNL     1      43.837 -21.160   1.813  1.00  0.00     0.002 A 
HETATM   29  C   UNL     1      43.475 -19.857   2.167  1.00  0.00     0.009 A 
ENDBRANCH  16  23
ENDBRANCH   1  16
TORSDOF 6
ENDMDL
MODEL 3
REMARK VINA RESULT:      -7.9      2.544      4.244
REMARK  6 active torsions:
REMARK  status: ('A' for Active; 'I' for Inactive)
REMARK    1  A    between atoms: C_8  and  C_9 
REMARK    2  A    between atoms: C_9  and  C_10 
REMARK       I    between atoms: C_10  and  N_11 
REMARK    3  A    between atoms: N_11  and  C_12 
REMARK    4  A    between atoms: C_12  and  C_13 
REMARK    5  A    between atoms: C_13  and  N_14 
REMARK    6  A    between atoms: C_13  and  C_20 
ROOT
HETATM    1  C   UNL     1      41.936 -17.766   2.247  1.00  0.00     0.160 C 
ENDROOT
BRANCH   1   2
HETATM    2  N   UNL     1      41.935 -16.404   1.718  1.00  0.00    -0.358 N 
HETATM    3  C   UNL     1      40.779 -15.645   1.788  1.00  0.00     0.226 C 
HETATM    4  O   UNL     1      39.697 -16.186   2.021  1.00  0.00    -0.273 OA
HETATM    5  H   UNL     1      42.804 -15.889   1.801  1.00  0.00     0.162 HD
BRANCH   3   6
HETATM    6  C   UNL     1      40.904 -14.138   1.533  1.00  0.00     0.111 C 
HETATM    7  C   UNL     1      41.842 -13.770   0.384  1.00  0.00     0.025 C 
BRANCH   6   8
HETATM    8  C   UNL     1      41.194 -13.376   2.796  1.00  0.00     0.004 A 
HETATM    9  C   UNL     1      40.314 -12.536   3.462  1.00  0.00     0.033 A 
HETATM   10  C   UNL     1      38.910 -12.143   3.184  1.00  0.00     0.070 C 
HETATM   11  N   UNL     1      40.986 -12.062   4.551  1.00  0.00    -0.282 N 
HETATM   12  H   UNL     1      40.654 -11.424   5.269  1.00  0.00     0.189 HD
HETATM   13  N   UNL     1      42.238 -12.518   4.642  1.00  0.00    -0.179 NA
HETATM   14  C   UNL     1      42.384 -13.314   3.580  1.00  0.00     0.060 A 
HETATM   15  C   UNL     1      43.694 -13.985   3.384  1.00  0.00     0.073 C 
ENDBRANCH   6   8
ENDBRANCH   3   6
ENDBRANCH   1   2
BRANCH   1  16
HETATM   16  C   UNL     1      43.052 -18.137   3.282  1.00  0.00     0.238 C 
BRANCH  16  17
HETATM   17  N   UNL     1      42.659 -17.890   4.745  1.00  0.00    -0.061 N 
HETATM   18  H   UNL     1      42.898 -18.774   5.212  1.00  0.00     0.280 HD
HETATM   19  C   UNL     1      41.205 -17.641   5.062  1.00  0.00     0.236 C 
HETATM   20  C   UNL     1      41.172 -16.213   5.562  1.00  0.00     0.029 C 
HETATM   21  C   UNL     1      42.475 -16.087   6.322  1.00  0.00     0.029 C 
HETATM   22  C   UNL     1      43.476 -16.830   5.457  1.00  0.00     0.236 C 
ENDBRANCH  16  17
BRANCH  16  23
HETATM   23  C   UNL     1      43.565 -19.565   3.122  1.00  0.00    -0.024 A 
HETATM   24  C   UNL     1      44.168 -20.279   4.172  1.00  0.00     0.033 A 
HETATM   25  C   UNL     1      44.649 -21.576   3.966  1.00  0.00     0.034 A 
HETATM   26 CL   UNL     1      45.385 -22.419   5.272  1.00  0.00    -0.084 Cl
HETATM   27  C   UNL     1      44.543 -22.182   2.720  1.00  0.00     0.024 A 
HETATM   28  C   UNL     1      43.952 -21.487   1.666  1.00  0.00     0.002 A 
HETATM   29  C   UNL     1      43.472 -20.190   1.863  1.00  0.00     0.009 A 
ENDBRANCH  16  23
ENDBRANCH   1  16
TORSDOF 6
ENDMDL
MODEL 4
REMARK VINA RESULT:      -7.9      1.593      2.321
REMARK  6 active torsions:
REMARK  status: ('A' for Active; 'I' for Inactive)
REMARK    1  A    between atoms: C_8  and  C_9 
REMARK    2  A    between atoms: C_9  and  C_10 
REMARK       I    between atoms: C_10  and  N_11 
REMARK    3  A    between atoms: N_11  and  C_12 
REMARK    4  A    between atoms: C_12  and  C_13 
REMARK    5  A    between atoms: C_13  and  N_14 
REMARK    6  A    between atoms: C_13  and  C_20 
ROOT
HETATM    1  C   UNL     1      41.492 -17.214   2.510  1.00  0.00     0.160 C 
ENDROOT
BRANCH   1   2
HETATM    2  N   UNL     1      41.407 -16.452   1.267  1.00  0.00    -0.358 N 
HETATM    3  C   UNL     1      41.001 -15.128   1.304  1.00  0.00     0.226 C 
HETATM    4  O   UNL     1      40.447 -14.679   2.308  1.00  0.00    -0.273 OA
HETATM    5  H   UNL     1      42.085 -16.683   0.550  1.00  0.00     0.162 HD
BRANCH   3   6
HETATM    6  C   UNL     1      41.238 -14.279   0.049  1.00  0.00     0.111 C 
HETATM    7  C   UNL     1      41.727 -12.860   0.332  1.00  0.00     0.025 C 
BRANCH   6   8
HETATM    8  C   UNL     1      40.064 -14.321  -0.889  1.00  0.00     0.004 A 
HETATM    9  C   UNL     1      40.045 -14.904  -2.147  1.00  0.00     0.033 A 
HETATM   10  C   UNL     1      41.081 -15.626  -2.925  1.00  0.00     0.070 C 
HETATM   11  N   UNL     1      38.786 -14.712  -2.640  1.00  0.00    -0.282 N 
HETATM   12  H   UNL     1      38.407 -15.009  -3.535  1.00  0.00     0.189 HD
HETATM   13  N   UNL     1      37.986 -14.041  -1.806  1.00  0.00    -0.179 NA
HETATM   14  C   UNL     1      38.748 -13.789  -0.739  1.00  0.00     0.060 A 
HETATM   15  C   UNL     1      38.144 -13.037   0.390  1.00  0.00     0.073 C 
ENDBRANCH   6   8
ENDBRANCH   3   6
ENDBRANCH   1   2
BRANCH   1  16
HETATM   16  C   UNL     1      42.829 -17.121   3.323  1.00  0.00     0.238 C 
BRANCH  16  17
HETATM   17  N   UNL     1      42.678 -16.476   4.707  1.00  0.00    -0.061 N 
HETATM   18  H   UNL     1      43.423 -16.919   5.262  1.00  0.00     0.280 HD
HETATM   19  C   UNL     1      41.401 -16.716   5.473  1.00  0.00     0.236 C 
HETATM   20  C   UNL     1      40.755 -15.350   5.559  1.00  0.00     0.029 C 
HETATM   21  C   UNL     1      41.942 -14.421   5.711  1.00  0.00     0.029 C 
HETATM   22  C   UNL     1      42.976 -14.991   4.758  1.00  0.00     0.236 C 
ENDBRANCH  16  17
BRANCH  16  23
HETATM   23  C   UNL     1      43.543 -18.463   3.455  1.00  0.00    -0.024 A 
HETATM   24  C   UNL     1      43.487 -19.455   2.461  1.00  0.00     0.033 A 
HETATM   25  C   UNL     1      44.135 -20.681   2.643  1.00  0.00     0.034 A 
HETATM   26 CL   UNL     1      44.042 -21.874   1.407  1.00  0.00    -0.084 Cl
HETATM   27  C   UNL     1      44.843 -20.943   3.809  1.00  0.00     0.024 A 
HETATM   28  C   UNL     1      44.906 -19.972   4.807  1.00  0.00     0.002 A 
HETATM   29  C   UNL     1      44.259 -18.746   4.635  1.00  0.00     0.009 A 
ENDBRANCH  16  23
ENDBRANCH   1  16
TORSDOF 6
ENDMDL
MODEL 5
REMARK VINA RESULT:      -7.5      1.666      2.390
REMARK  6 active torsions:
REMARK  status: ('A' for Active; 'I' for Inactive)
REMARK    1  A    between atoms: C_8  and  C_9 
REMARK    2  A    between atoms: C_9  and  C_10 
REMARK       I    between atoms: C_10  and  N_11 
REMARK    3  A    between atoms: N_11  and  C_12 
REMARK    4  A    between atoms: C_12  and  C_13 
REMARK    5  A    between atoms: C_13  and  N_14 
REMARK    6  A    between atoms: C_13  and  C_20 
ROOT
HETATM    1  C   UNL     1      42.035 -16.810   1.970  1.00  0.00     0.160 C 
ENDROOT
BRANCH   1   2
HETATM    2  N   UNL     1      41.659 -15.500   1.444  1.00  0.00    -0.358 N 
HETATM    3  C   UNL     1      41.187 -15.395   0.147  1.00  0.00     0.226 C 
HETATM    4  O   UNL     1      41.347 -16.323  -0.647  1.00  0.00    -0.273 OA
HETATM    5  H   UNL     1      41.265 -14.845   2.110  1.00  0.00     0.162 HD
BRANCH   3   6
HETATM    6  C   UNL     1      40.501 -14.082  -0.252  1.00  0.00     0.111 C 
HETATM    7  C   UNL     1      39.554 -14.205  -1.445  1.00  0.00     0.025 C 
BRANCH   6   8
HETATM    8  C   UNL     1      41.484 -12.955  -0.395  1.00  0.00     0.004 A 
HETATM    9  C   UNL     1      42.253 -12.679  -1.516  1.00  0.00     0.033 A 
HETATM   10  C   UNL     1      42.354 -13.340  -2.841  1.00  0.00     0.070 C 
HETATM   11  N   UNL     1      42.995 -11.574  -1.210  1.00  0.00    -0.282 N 
HETATM   12  H   UNL     1      43.668 -11.085  -1.794  1.00  0.00     0.189 HD
HETATM   13  N   UNL     1      42.778 -11.115   0.025  1.00  0.00    -0.179 NA
HETATM   14  C   UNL     1      41.867 -11.945   0.538  1.00  0.00     0.060 A 
HETATM   15  C   UNL     1      41.407 -11.706   1.930  1.00  0.00     0.073 C 
ENDBRANCH   6   8
ENDBRANCH   3   6
ENDBRANCH   1   2
BRANCH   1  16
HETATM   16  C   UNL     1      43.118 -16.850   3.102  1.00  0.00     0.238 C 
BRANCH  16  17
HETATM   17  N   UNL     1      42.652 -16.256   4.439  1.00  0.00    -0.061 N 
HETATM   18  H   UNL     1      43.177 -16.797   5.139  1.00  0.00     0.280 HD
HETATM   19  C   UNL     1      41.198 -16.402   4.817  1.00  0.00     0.236 C 
HETATM   20  C   UNL     1      40.672 -14.983   4.825  1.00  0.00     0.029 C 
HETATM   21  C   UNL     1      41.846 -14.186   5.353  1.00  0.00     0.029 C 
HETATM   22  C   UNL     1      43.048 -14.813   4.672  1.00  0.00     0.236 C 
ENDBRANCH  16  17
BRANCH  16  23
HETATM   23  C   UNL     1      43.693 -18.245   3.331  1.00  0.00    -0.024 A 
HETATM   24  C   UNL     1      43.622 -19.264   2.365  1.00  0.00     0.033 A 
HETATM   25  C   UNL     1      44.139 -20.535   2.634  1.00  0.00     0.034 A 
HETATM   26 CL   UNL     1      44.032 -21.759   1.431  1.00  0.00    -0.084 Cl
HETATM   27  C   UNL     1      44.728 -20.816   3.861  1.00  0.00     0.024 A 
HETATM   28  C   UNL     1      44.804 -19.819   4.831  1.00  0.00     0.002 A 
HETATM   29  C   UNL     1      44.287 -18.547   4.571  1.00  0.00     0.009 A 
ENDBRANCH  16  23
ENDBRANCH   1  16
TORSDOF 6
ENDMDL
MODEL 6
REMARK VINA RESULT:      -7.5      1.404      2.409
REMARK  6 active torsions:
REMARK  status: ('A' for Active; 'I' for Inactive)
REMARK    1  A    between atoms: C_8  and  C_9 
REMARK    2  A    between atoms: C_9  and  C_10 
REMARK       I    between atoms: C_10  and  N_11 
REMARK    3  A    between atoms: N_11  and  C_12 
REMARK    4  A    between atoms: C_12  and  C_13 
REMARK    5  A    between atoms: C_13  and  N_14 
REMARK    6  A    between atoms: C_13  and  C_20 
ROOT
HETATM    1  C   UNL     1      41.343 -17.241   1.288  1.00  0.00     0.160 C 
ENDROOT
BRANCH   1   2
HETATM    2  N   UNL     1      40.653 -16.079   0.735  1.00  0.00    -0.358 N 
HETATM    3  C   UNL     1      41.316 -14.867   0.650  1.00  0.00     0.226 C 
HETATM    4  O   UNL     1      42.356 -14.686   1.284  1.00  0.00    -0.273 OA
HETATM    5  H   UNL     1      39.980 -16.263  -0.000  1.00  0.00     0.162 HD
BRANCH   3   6
HETATM    6  C   UNL     1      40.687 -13.775  -0.224  1.00  0.00     0.111 C 
HETATM    7  C   UNL     1      39.190 -13.950  -0.471  1.00  0.00     0.025 C 
BRANCH   6   8
HETATM    8  C   UNL     1      41.469 -13.546  -1.487  1.00  0.00     0.004 A 
HETATM    9  C   UNL     1      41.492 -14.380  -2.596  1.00  0.00     0.033 A 
HETATM   10  C   UNL     1      40.809 -15.664  -2.889  1.00  0.00     0.070 C 
HETATM   11  N   UNL     1      42.323 -13.789  -3.504  1.00  0.00    -0.282 N 
HETATM   12  H   UNL     1      42.576 -14.115  -4.433  1.00  0.00     0.189 HD
HETATM   13  N   UNL     1      42.852 -12.641  -3.071  1.00  0.00    -0.179 NA
HETATM   14  C   UNL     1      42.349 -12.480  -1.844  1.00  0.00     0.060 A 
HETATM   15  C   UNL     1      42.754 -11.277  -1.075  1.00  0.00     0.073 C 
ENDBRANCH   6   8
ENDBRANCH   3   6
ENDBRANCH   1   2
BRANCH   1  16
HETATM   16  C   UNL     1      41.990 -17.089   2.707  1.00  0.00     0.238 C 
BRANCH  16  17
HETATM   17  N   UNL     1      40.975 -16.911   3.845  1.00  0.00    -0.061 N 
HETATM   18  H   UNL     1      40.077 -17.154   3.407  1.00  0.00     0.280 HD
HETATM   19  C   UNL     1      40.786 -15.530   4.424  1.00  0.00     0.236 C 
HETATM   20  C   UNL     1      41.280 -15.653   5.849  1.00  0.00     0.029 C 
HETATM   21  C   UNL     1      40.851 -17.051   6.240  1.00  0.00     0.029 C 
HETATM   22  C   UNL     1      41.131 -17.879   4.999  1.00  0.00     0.236 C 
ENDBRANCH  16  17
BRANCH  16  23
HETATM   23  C   UNL     1      42.953 -18.222   3.049  1.00  0.00    -0.024 A 
HETATM   24  C   UNL     1      43.040 -19.402   2.291  1.00  0.00     0.033 A 
HETATM   25  C   UNL     1      43.919 -20.423   2.663  1.00  0.00     0.034 A 
HETATM   26 CL   UNL     1      43.996 -21.856   1.714  1.00  0.00    -0.084 Cl
HETATM   27  C   UNL     1      44.720 -20.293   3.790  1.00  0.00     0.024 A 
HETATM   28  C   UNL     1      44.645 -19.132   4.557  1.00  0.00     0.002 A 
HETATM   29  C   UNL     1      43.767 -18.107   4.193  1.00  0.00     0.009 A 
ENDBRANCH  16  23
ENDBRANCH   1  16
TORSDOF 6
ENDMDL
MODEL 7
REMARK VINA RESULT:      -7.5      2.198      3.558
REMARK  6 active torsions:
REMARK  status: ('A' for Active; 'I' for Inactive)
REMARK    1  A    between atoms: C_8  and  C_9 
REMARK    2  A    between atoms: C_9  and  C_10 
REMARK       I    between atoms: C_10  and  N_11 
REMARK    3  A    between atoms: N_11  and  C_12 
REMARK    4  A    between atoms: C_12  and  C_13 
REMARK    5  A    between atoms: C_13  and  N_14 
REMARK    6  A    between atoms: C_13  and  C_20 
ROOT
HETATM    1  C   UNL     1      41.595 -17.309   2.372  1.00  0.00     0.160 C 
ENDROOT
BRANCH   1   2
HETATM    2  N   UNL     1      41.405 -16.196   1.445  1.00  0.00    -0.358 N 
HETATM    3  C   UNL     1      40.225 -15.473   1.479  1.00  0.00     0.226 C 
HETATM    4  O   UNL     1      39.241 -15.922   2.066  1.00  0.00    -0.273 OA
HETATM    5  H   UNL     1      42.236 -15.670   1.198  1.00  0.00     0.162 HD
BRANCH   3   6
HETATM    6  C   UNL     1      40.196 -14.131   0.735  1.00  0.00     0.111 C 
HETATM    7  C   UNL     1      41.527 -13.736   0.097  1.00  0.00     0.025 C 
BRANCH   6   8
HETATM    8  C   UNL     1      39.598 -13.037   1.573  1.00  0.00     0.004 A 
HETATM    9  C   UNL     1      38.300 -12.555   1.483  1.00  0.00     0.033 A 
HETATM   10  C   UNL     1      37.160 -12.928   0.610  1.00  0.00     0.070 C 
HETATM   11  N   UNL     1      38.187 -11.575   2.426  1.00  0.00    -0.282 N 
HETATM   12  H   UNL     1      37.376 -11.004   2.649  1.00  0.00     0.189 HD
HETATM   13  N   UNL     1      39.312 -11.371   3.117  1.00  0.00    -0.179 NA
HETATM   14  C   UNL     1      40.182 -12.247   2.609  1.00  0.00     0.060 A 
HETATM   15  C   UNL     1      41.557 -12.272   3.169  1.00  0.00     0.073 C 
ENDBRANCH   6   8
ENDBRANCH   3   6
ENDBRANCH   1   2
BRANCH   1  16
HETATM   16  C   UNL     1      42.848 -17.260   3.312  1.00  0.00     0.238 C 
BRANCH  16  17
HETATM   17  N   UNL     1      42.563 -16.695   4.710  1.00  0.00    -0.061 N 
HETATM   18  H   UNL     1      43.103 -17.310   5.334  1.00  0.00     0.280 HD
HETATM   19  C   UNL     1      41.145 -16.737   5.223  1.00  0.00     0.236 C 
HETATM   20  C   UNL     1      40.748 -15.281   5.339  1.00  0.00     0.029 C 
HETATM   21  C   UNL     1      42.032 -14.611   5.781  1.00  0.00     0.029 C 
HETATM   22  C   UNL     1      43.105 -15.302   4.961  1.00  0.00     0.236 C 
ENDBRANCH  16  17
BRANCH  16  23
HETATM   23  C   UNL     1      43.556 -18.607   3.435  1.00  0.00    -0.024 A 
HETATM   24  C   UNL     1      43.521 -19.579   2.420  1.00  0.00     0.033 A 
HETATM   25  C   UNL     1      44.162 -20.809   2.593  1.00  0.00     0.034 A 
HETATM   26 CL   UNL     1      44.096 -21.978   1.333  1.00  0.00    -0.084 Cl
HETATM   27  C   UNL     1      44.842 -21.096   3.771  1.00  0.00     0.024 A 
HETATM   28  C   UNL     1      44.883 -20.145   4.789  1.00  0.00     0.002 A 
HETATM   29  C   UNL     1      44.243 -18.914   4.625  1.00  0.00     0.009 A 
ENDBRANCH  16  23
ENDBRANCH   1  16
TORSDOF 6
ENDMDL
MODEL 8
REMARK VINA RESULT:      -7.3      1.364      2.190
REMARK  6 active torsions:
REMARK  status: ('A' for Active; 'I' for Inactive)
REMARK    1  A    between atoms: C_8  and  C_9 
REMARK    2  A    between atoms: C_9  and  C_10 
REMARK       I    between atoms: C_10  and  N_11 
REMARK    3  A    between atoms: N_11  and  C_12 
REMARK    4  A    between atoms: C_12  and  C_13 
REMARK    5  A    between atoms: C_13  and  N_14 
REMARK    6  A    between atoms: C_13  and  C_20 
ROOT
HETATM    1  C   UNL     1      41.465 -16.291   1.475  1.00  0.00     0.160 C 
ENDROOT
BRANCH   1   2
HETATM    2  N   UNL     1      41.270 -15.260   0.460  1.00  0.00    -0.358 N 
HETATM    3  C   UNL     1      40.154 -14.442   0.522  1.00  0.00     0.226 C 
HETATM    4  O   UNL     1      39.200 -14.751   1.236  1.00  0.00    -0.273 OA
HETATM    5  H   UNL     1      42.109 -14.829   0.089  1.00  0.00     0.162 HD
BRANCH   3   6
HETATM    6  C   UNL     1      40.152 -13.179  -0.348  1.00  0.00     0.111 C 
HETATM    7  C   UNL     1      39.000 -12.218  -0.060  1.00  0.00     0.025 C 
BRANCH   6   8
HETATM    8  C   UNL     1      40.299 -13.501  -1.808  1.00  0.00     0.004 A 
HETATM    9  C   UNL     1      39.313 -14.026  -2.632  1.00  0.00     0.033 A 
HETATM   10  C   UNL     1      37.902 -14.406  -2.376  1.00  0.00     0.070 C 
HETATM   11  N   UNL     1      39.875 -14.156  -3.869  1.00  0.00    -0.282 N 
HETATM   12  H   UNL     1      39.448 -14.504  -4.723  1.00  0.00     0.189 HD
HETATM   13  N   UNL     1      41.153 -13.768  -3.915  1.00  0.00    -0.179 NA
HETATM   14  C   UNL     1      41.430 -13.373  -2.670  1.00  0.00     0.060 A 
HETATM   15  C   UNL     1      42.800 -12.879  -2.381  1.00  0.00     0.073 C 
ENDBRANCH   6   8
ENDBRANCH   3   6
ENDBRANCH   1   2
BRANCH   1  16
HETATM   16  C   UNL     1      42.796 -16.249   2.301  1.00  0.00     0.238 C 
BRANCH  16  17
HETATM   17  N   UNL     1      42.734 -15.356   3.548  1.00  0.00    -0.061 N 
HETATM   18  H   UNL     1      43.225 -15.906   4.264  1.00  0.00     0.280 HD
HETATM   19  C   UNL     1      41.380 -15.040   4.134  1.00  0.00     0.236 C 
HETATM   20  C   UNL     1      41.228 -13.547   3.937  1.00  0.00     0.029 C 
HETATM   21  C   UNL     1      42.637 -13.031   4.144  1.00  0.00     0.029 C 
HETATM   22  C   UNL     1      43.508 -14.057   3.445  1.00  0.00     0.236 C 
ENDBRANCH  16  17
BRANCH  16  23
HETATM   23  C   UNL     1      43.305 -17.635   2.686  1.00  0.00    -0.024 A 
HETATM   24  C   UNL     1      43.670 -17.973   4.001  1.00  0.00     0.033 A 
HETATM   25  C   UNL     1      44.159 -19.249   4.297  1.00  0.00     0.034 A 
HETATM   26 CL   UNL     1      44.599 -19.628   5.915  1.00  0.00    -0.084 Cl
HETATM   27  C   UNL     1      44.297 -20.205   3.298  1.00  0.00     0.024 A 
HETATM   28  C   UNL     1      43.944 -19.886   1.988  1.00  0.00     0.002 A 
HETATM   29  C   UNL     1      43.457 -18.612   1.683  1.00  0.00     0.009 A 
ENDBRANCH  16  23
ENDBRANCH   1  16
TORSDOF 6
ENDMDL
MODEL 9
REMARK VINA RESULT:      -7.2      2.802      4.317
REMARK  6 active torsions:
REMARK  status: ('A' for Active; 'I' for Inactive)
REMARK    1  A    between atoms: C_8  and  C_9 
REMARK    2  A    between atoms: C_9  and  C_10 
REMARK       I    between atoms: C_10  and  N_11 
REMARK    3  A    between atoms: N_11  and  C_12 
REMARK    4  A    between atoms: C_12  and  C_13 
REMARK    5  A    between atoms: C_13  and  N_14 
REMARK    6  A    between atoms: C_13  and  C_20 
ROOT
HETATM    1  C   UNL     1      43.514 -16.237   4.032  1.00  0.00     0.160 C 
ENDROOT
BRANCH   1   2
HETATM    2  N   UNL     1      42.776 -15.029   4.394  1.00  0.00    -0.358 N 
HETATM    3  C   UNL     1      43.233 -13.795   3.964  1.00  0.00     0.226 C 
HETATM    4  O   UNL     1      44.382 -13.676   3.537  1.00  0.00    -0.273 OA
HETATM    5  H   UNL     1      41.769 -15.123   4.468  1.00  0.00     0.162 HD
BRANCH   3   6
HETATM    6  C   UNL     1      42.272 -12.605   4.077  1.00  0.00     0.111 C 
HETATM    7  C   UNL     1      41.935 -12.202   5.512  1.00  0.00     0.025 C 
BRANCH   6   8
HETATM    8  C   UNL     1      41.055 -12.781   3.214  1.00  0.00     0.004 A 
HETATM    9  C   UNL     1      40.890 -12.294   1.925  1.00  0.00     0.033 A 
HETATM   10  C   UNL     1      41.782 -11.508   1.037  1.00  0.00     0.070 C 
HETATM   11  N   UNL     1      39.646 -12.687   1.522  1.00  0.00    -0.282 N 
HETATM   12  H   UNL     1      39.187 -12.513   0.632  1.00  0.00     0.189 HD
HETATM   13  N   UNL     1      38.983 -13.383   2.450  1.00  0.00    -0.179 NA
HETATM   14  C   UNL     1      39.821 -13.445   3.487  1.00  0.00     0.060 A 
HETATM   15  C   UNL     1      39.372 -14.163   4.707  1.00  0.00     0.073 C 
ENDBRANCH   6   8
ENDBRANCH   3   6
ENDBRANCH   1   2
BRANCH   1  16
HETATM   16  C   UNL     1      42.679 -17.494   3.609  1.00  0.00     0.238 C 
BRANCH  16  17
HETATM   17  N   UNL     1      42.101 -17.416   2.190  1.00  0.00    -0.061 N 
HETATM   18  H   UNL     1      42.076 -18.399   1.886  1.00  0.00     0.280 HD
HETATM   19  C   UNL     1      42.892 -16.683   1.135  1.00  0.00     0.236 C 
HETATM   20  C   UNL     1      42.026 -15.493   0.780  1.00  0.00     0.029 C 
HETATM   21  C   UNL     1      40.622 -16.053   0.876  1.00  0.00     0.029 C 
HETATM   22  C   UNL     1      40.666 -16.938   2.108  1.00  0.00     0.236 C 
ENDBRANCH  16  17
BRANCH  16  23
HETATM   23  C   UNL     1      43.441 -18.804   3.784  1.00  0.00    -0.024 A 
HETATM   24  C   UNL     1      43.631 -19.719   2.734  1.00  0.00     0.033 A 
HETATM   25  C   UNL     1      44.312 -20.921   2.953  1.00  0.00     0.034 A 
HETATM   26 CL   UNL     1      44.522 -22.020   1.646  1.00  0.00    -0.084 Cl
HETATM   27  C   UNL     1      44.811 -21.234   4.211  1.00  0.00     0.024 A 
HETATM   28  C   UNL     1      44.628 -20.341   5.265  1.00  0.00     0.002 A 
HETATM   29  C   UNL     1      43.947 -19.139   5.055  1.00  0.00     0.009 A 
ENDBRANCH  16  23
ENDBRANCH   1  16
TORSDOF 6
ENDMDL
MODEL 10
REMARK VINA RESULT:      -7.2      1.978      2.650
REMARK  6 active torsions:
REMARK  status: ('A' for Active; 'I' for Inactive)
REMARK    1  A    between atoms: C_8  and  C_9 
REMARK    2  A    between atoms: C_9  and  C_10 
REMARK       I    between atoms: C_10  and  N_11 
REMARK    3  A    between atoms: N_11  and  C_12 
REMARK    4  A    between atoms: C_12  and  C_13 
REMARK    5  A    between atoms: C_13  and  N_14 
REMARK    6  A    between atoms: C_13  and  C_20 
ROOT
HETATM    1  C   UNL     1      41.836 -16.419   1.624  1.00  0.00     0.160 C 
ENDROOT
BRANCH   1   2
HETATM    2  N   UNL     1      41.541 -15.054   1.197  1.00  0.00    -0.358 N 
HETATM    3  C   UNL     1      41.042 -14.829  -0.075  1.00  0.00     0.226 C 
HETATM    4  O   UNL     1      41.114 -15.709  -0.932  1.00  0.00    -0.273 OA
HETATM    5  H   UNL     1      41.213 -14.419   1.916  1.00  0.00     0.162 HD
BRANCH   3   6
HETATM    6  C   UNL     1      40.442 -13.447  -0.366  1.00  0.00     0.111 C 
HETATM    7  C   UNL     1      39.578 -13.389  -1.625  1.00  0.00     0.025 C 
BRANCH   6   8
HETATM    8  C   UNL     1      41.478 -12.361  -0.312  1.00  0.00     0.004 A 
HETATM    9  C   UNL     1      41.614 -11.411   0.690  1.00  0.00     0.033 A 
HETATM   10  C   UNL     1      40.854 -11.169   1.941  1.00  0.00     0.070 C 
HETATM   11  N   UNL     1      42.678 -10.631   0.338  1.00  0.00    -0.282 N 
HETATM   12  H   UNL     1      43.071  -9.838   0.837  1.00  0.00     0.189 HD
HETATM   13  N   UNL     1      43.240 -10.991  -0.820  1.00  0.00    -0.179 NA
HETATM   14  C   UNL     1      42.520 -12.037  -1.233  1.00  0.00     0.060 A 
HETATM   15  C   UNL     1      42.893 -12.679  -2.518  1.00  0.00     0.073 C 
ENDBRANCH   6   8
ENDBRANCH   3   6
ENDBRANCH   1   2
BRANCH   1  16
HETATM   16  C   UNL     1      42.951 -16.611   2.708  1.00  0.00     0.238 C 
BRANCH  16  17
HETATM   17  N   UNL     1      42.593 -16.040   4.086  1.00  0.00    -0.061 N 
HETATM   18  H   UNL     1      43.064 -16.678   4.742  1.00  0.00     0.280 HD
HETATM   19  C   UNL     1      41.142 -16.028   4.500  1.00  0.00     0.236 C 
HETATM   20  C   UNL     1      40.795 -14.558   4.597  1.00  0.00     0.029 C 
HETATM   21  C   UNL     1      42.071 -13.940   5.130  1.00  0.00     0.029 C 
HETATM   22  C   UNL     1      43.171 -14.670   4.381  1.00  0.00     0.236 C 
ENDBRANCH  16  17
BRANCH  16  23
HETATM   23  C   UNL     1      43.400 -18.063   2.853  1.00  0.00    -0.024 A 
HETATM   24  C   UNL     1      43.789 -18.619   4.084  1.00  0.00     0.033 A 
HETATM   25  C   UNL     1      44.220 -19.947   4.159  1.00  0.00     0.034 A 
HETATM   26 CL   UNL     1      44.693 -20.594   5.681  1.00  0.00    -0.084 Cl
HETATM   27  C   UNL     1      44.276 -20.740   3.020  1.00  0.00     0.024 A 
HETATM   28  C   UNL     1      43.898 -20.204   1.790  1.00  0.00     0.002 A 
HETATM   29  C   UNL     1      43.468 -18.877   1.706  1.00  0.00     0.009 A 
ENDBRANCH  16  23
ENDBRANCH   1  16
TORSDOF 6
ENDMDL
