MODEL 1
REMARK VINA RESULT:      -8.5      0.000      0.000
REMARK  7 active torsions:
REMARK  status: ('A' for Active; 'I' for Inactive)
REMARK    1  A    between atoms: C_2  and  C_3 
REMARK    2  A    between atoms: C_5  and  N_6 
REMARK       I    between atoms: N_6  and  C_7 
REMARK    3  A    between atoms: C_7  and  C_8 
REMARK    4  A    between atoms: C_8  and  S_9 
REMARK    5  A    between atoms: S_9  and  C_10 
REMARK    6  A    between atoms: C_12  and  C_13 
REMARK    7  A    between atoms: C_14  and  O_15 
ROOT
HETATM    1  C   UNL     1      40.722 -14.808   2.048  1.00  0.00     0.185 A 
HETATM    2  N   UNL     1      41.846 -14.745   2.715  1.00  0.00    -0.201 NA
HETATM    3  C   UNL     1      41.443 -14.974   4.025  1.00  0.00     0.184 A 
HETATM    4  N   UNL     1      40.126 -15.208   4.157  1.00  0.00    -0.152 NA
HETATM    5  N   UNL     1      39.694 -15.090   2.889  1.00  0.00    -0.253 N 
HETATM    6  H   UNL     1      38.710 -15.199   2.673  1.00  0.00     0.191 HD
ENDROOT
BRANCH   1   7
HETATM    7  S   UNL     1      40.465 -14.574   0.366  1.00  0.00    -0.081 SA
BRANCH   7   8
HETATM    8  C   UNL     1      41.352 -16.002  -0.323  1.00  0.00     0.185 C 
BRANCH   8   9
HETATM    9  C   UNL     1      41.542 -17.097   0.722  1.00  0.00     0.231 C 
HETATM   10  N   UNL     1      42.866 -17.256   1.106  1.00  0.00    -0.327 N 
HETATM   11  H   UNL     1      43.553 -16.655   0.666  1.00  0.00     0.169 HD
HETATM   12  O   UNL     1      40.586 -17.733   1.160  1.00  0.00    -0.272 OA
BRANCH  10  13
HETATM   13  C   UNL     1      43.395 -18.199   2.015  1.00  0.00     0.035 A 
HETATM   14  C   UNL     1      43.559 -19.557   1.730  1.00  0.00     0.044 A 
HETATM   15  C   UNL     1      44.103 -20.424   2.690  1.00  0.00     0.011 A 
HETATM   16  C   UNL     1      44.483 -19.923   3.940  1.00  0.00     0.015 A 
HETATM   17  C   UNL     1      44.323 -18.571   4.231  1.00  0.00     0.003 A 
HETATM   18  C   UNL     1      43.781 -17.715   3.272  1.00  0.00     0.029 A 
BRANCH  15  19
HETATM   19  C   UNL     1      44.298 -21.881   2.423  1.00  0.00     0.155 C 
HETATM   20  C   UNL     1      44.643 -22.798   3.568  1.00  0.00     0.096 C 
HETATM   21  O   UNL     1      44.175 -22.315   1.278  1.00  0.00    -0.293 OA
ENDBRANCH  15  19
ENDBRANCH  10  13
ENDBRANCH   8   9
ENDBRANCH   7   8
ENDBRANCH   1   7
BRANCH   3  22
HETATM   22  C   UNL     1      42.397 -14.939   5.130  1.00  0.00     0.048 A 
HETATM   23  C   UNL     1      43.232 -13.825   5.344  1.00  0.00     0.080 A 
HETATM   24  C   UNL     1      44.124 -13.786   6.415  1.00  0.00     0.039 A 
HETATM   25  C   UNL     1      44.202 -14.868   7.290  1.00  0.00     0.022 A 
HETATM   26  C   UNL     1      43.389 -15.980   7.085  1.00  0.00     0.012 A 
HETATM   27 BR   UNL     1      43.502 -17.452   8.269  1.00  0.00    -0.051 Br
HETATM   28  C   UNL     1      42.491 -16.022   6.018  1.00  0.00     0.037 A 
BRANCH  23  29
HETATM   29  O   UNL     1      43.225 -12.725   4.522  1.00  0.00    -0.360 OA
HETATM   30  H   UNL     1      44.162 -12.564   4.281  1.00  0.00     0.217 HD
ENDBRANCH  23  29
ENDBRANCH   3  22
TORSDOF 7
ENDMDL
MODEL 2
REMARK VINA RESULT:      -8.0      3.533      5.268
REMARK  7 active torsions:
REMARK  status: ('A' for Active; 'I' for Inactive)
REMARK    1  A    between atoms: C_2  and  C_3 
REMARK    2  A    between atoms: C_5  and  N_6 
REMARK       I    between atoms: N_6  and  C_7 
REMARK    3  A    between atoms: C_7  and  C_8 
REMARK    4  A    between atoms: C_8  and  S_9 
REMARK    5  A    between atoms: S_9  and  C_10 
REMARK    6  A    between atoms: C_12  and  C_13 
REMARK    7  A    between atoms: C_14  and  O_15 
ROOT
HETATM    1  C   UNL     1      42.408 -12.798   3.749  1.00  0.00     0.185 A 
HETATM    2  N   UNL     1      42.768 -13.215   2.562  1.00  0.00    -0.201 NA
HETATM    3  C   UNL     1      42.010 -12.421   1.711  1.00  0.00     0.184 A 
HETATM    4  N   UNL     1      41.239 -11.522   2.347  1.00  0.00    -0.152 NA
HETATM    5  N   UNL     1      41.507 -11.789   3.637  1.00  0.00    -0.253 N 
HETATM    6  H   UNL     1      41.045 -11.267   4.372  1.00  0.00     0.191 HD
ENDROOT
BRANCH   1   7
HETATM    7  S   UNL     1      42.920 -13.375   5.283  1.00  0.00    -0.081 SA
BRANCH   7   8
HETATM    8  C   UNL     1      41.619 -14.589   5.649  1.00  0.00     0.185 C 
BRANCH   8   9
HETATM    9  C   UNL     1      41.653 -15.756   4.668  1.00  0.00     0.231 C 
HETATM   10  N   UNL     1      42.941 -16.111   4.292  1.00  0.00    -0.327 N 
HETATM   11  H   UNL     1      43.705 -15.575   4.688  1.00  0.00     0.169 HD
HETATM   12  O   UNL     1      40.620 -16.305   4.292  1.00  0.00    -0.272 OA
BRANCH  10  13
HETATM   13  C   UNL     1      43.330 -17.112   3.375  1.00  0.00     0.035 A 
HETATM   14  C   UNL     1      43.715 -18.404   3.740  1.00  0.00     0.044 A 
HETATM   15  C   UNL     1      44.078 -19.342   2.762  1.00  0.00     0.011 A 
HETATM   16  C   UNL     1      44.054 -18.977   1.411  1.00  0.00     0.015 A 
HETATM   17  C   UNL     1      43.672 -17.691   1.039  1.00  0.00     0.003 A 
HETATM   18  C   UNL     1      43.313 -16.764   2.018  1.00  0.00     0.029 A 
BRANCH  15  19
HETATM   19  C   UNL     1      44.491 -20.734   3.111  1.00  0.00     0.155 C 
HETATM   20  C   UNL     1      44.318 -21.829   2.090  1.00  0.00     0.096 C 
HETATM   21  O   UNL     1      44.964 -20.971   4.221  1.00  0.00    -0.293 OA
ENDBRANCH  15  19
ENDBRANCH  10  13
ENDBRANCH   8   9
ENDBRANCH   7   8
ENDBRANCH   1   7
BRANCH   3  22
HETATM   22  C   UNL     1      42.064 -12.593   0.261  1.00  0.00     0.048 A 
HETATM   23  C   UNL     1      42.655 -11.624  -0.572  1.00  0.00     0.080 A 
HETATM   24  C   UNL     1      42.727 -11.804  -1.952  1.00  0.00     0.039 A 
HETATM   25  C   UNL     1      42.200 -12.958  -2.527  1.00  0.00     0.022 A 
HETATM   26  C   UNL     1      41.604 -13.923  -1.717  1.00  0.00     0.012 A 
HETATM   27 BR   UNL     1      40.881 -15.485  -2.500  1.00  0.00    -0.051 Br
HETATM   28  C   UNL     1      41.534 -13.748  -0.334  1.00  0.00     0.037 A 
BRANCH  23  29
HETATM   29  O   UNL     1      43.187 -10.454  -0.087  1.00  0.00    -0.360 OA
HETATM   30  H   UNL     1      43.808 -10.715   0.626  1.00  0.00     0.217 HD
ENDBRANCH  23  29
ENDBRANCH   3  22
TORSDOF 7
ENDMDL
MODEL 3
REMARK VINA RESULT:      -8.0      3.238      5.404
REMARK  7 active torsions:
REMARK  status: ('A' for Active; 'I' for Inactive)
REMARK    1  A    between atoms: C_2  and  C_3 
REMARK    2  A    between atoms: C_5  and  N_6 
REMARK       I    between atoms: N_6  and  C_7 
REMARK    3  A    between atoms: C_7  and  C_8 
REMARK    4  A    between atoms: C_8  and  S_9 
REMARK    5  A    between atoms: S_9  and  C_10 
REMARK    6  A    between atoms: C_12  and  C_13 
REMARK    7  A    between atoms: C_14  and  O_15 
ROOT
HETATM    1  C   UNL     1      41.388 -14.218   3.609  1.00  0.00     0.185 A 
HETATM    2  N   UNL     1      40.920 -14.632   2.459  1.00  0.00    -0.201 NA
HETATM    3  C   UNL     1      41.816 -14.092   1.546  1.00  0.00     0.184 A 
HETATM    4  N   UNL     1      42.822 -13.403   2.112  1.00  0.00    -0.152 NA
HETATM    5  N   UNL     1      42.521 -13.494   3.419  1.00  0.00    -0.253 N 
HETATM    6  H   UNL     1      43.108 -13.042   4.111  1.00  0.00     0.191 HD
ENDROOT
BRANCH   1   7
HETATM    7  S   UNL     1      40.744 -14.478   5.180  1.00  0.00    -0.081 SA
BRANCH   7   8
HETATM    8  C   UNL     1      41.973 -15.623   5.874  1.00  0.00     0.185 C 
BRANCH   8   9
HETATM    9  C   UNL     1      41.971 -16.957   5.135  1.00  0.00     0.231 C 
HETATM   10  N   UNL     1      43.175 -17.226   4.498  1.00  0.00    -0.327 N 
HETATM   11  H   UNL     1      43.909 -16.531   4.578  1.00  0.00     0.169 HD
HETATM   12  O   UNL     1      40.986 -17.692   5.147  1.00  0.00    -0.272 OA
BRANCH  10  13
HETATM   13  C   UNL     1      43.499 -18.343   3.697  1.00  0.00     0.035 A 
HETATM   14  C   UNL     1      43.917 -19.576   4.204  1.00  0.00     0.044 A 
HETATM   15  C   UNL     1      44.211 -20.639   3.336  1.00  0.00     0.011 A 
HETATM   16  C   UNL     1      44.083 -20.460   1.953  1.00  0.00     0.015 A 
HETATM   17  C   UNL     1      43.667 -19.234   1.441  1.00  0.00     0.003 A 
HETATM   18  C   UNL     1      43.377 -18.182   2.311  1.00  0.00     0.029 A 
BRANCH  15  19
HETATM   19  C   UNL     1      44.657 -21.973   3.837  1.00  0.00     0.155 C 
HETATM   20  C   UNL     1      45.070 -22.115   5.280  1.00  0.00     0.096 C 
HETATM   21  O   UNL     1      44.683 -22.936   3.072  1.00  0.00    -0.293 OA
ENDBRANCH  15  19
ENDBRANCH  10  13
ENDBRANCH   8   9
ENDBRANCH   7   8
ENDBRANCH   1   7
BRANCH   3  22
HETATM   22  C   UNL     1      41.635 -14.269   0.108  1.00  0.00     0.048 A 
HETATM   23  C   UNL     1      41.150 -15.477  -0.428  1.00  0.00     0.080 A 
HETATM   24  C   UNL     1      40.955 -15.633  -1.799  1.00  0.00     0.039 A 
HETATM   25  C   UNL     1      41.250 -14.581  -2.664  1.00  0.00     0.022 A 
HETATM   26  C   UNL     1      41.740 -13.382  -2.149  1.00  0.00     0.012 A 
HETATM   27 BR   UNL     1      42.148 -11.958  -3.325  1.00  0.00    -0.051 Br
HETATM   28  C   UNL     1      41.931 -13.220  -0.776  1.00  0.00     0.037 A 
BRANCH  23  29
HETATM   29  O   UNL     1      40.846 -16.566   0.353  1.00  0.00    -0.360 OA
HETATM   30  H   UNL     1      40.415 -17.213  -0.244  1.00  0.00     0.217 HD
ENDBRANCH  23  29
ENDBRANCH   3  22
TORSDOF 7
ENDMDL
MODEL 4
REMARK VINA RESULT:      -7.9      3.148      4.914
REMARK  7 active torsions:
REMARK  status: ('A' for Active; 'I' for Inactive)
REMARK    1  A    between atoms: C_2  and  C_3 
REMARK    2  A    between atoms: C_5  and  N_6 
REMARK       I    between atoms: N_6  and  C_7 
REMARK    3  A    between atoms: C_7  and  C_8 
REMARK    4  A    between atoms: C_8  and  S_9 
REMARK    5  A    between atoms: S_9  and  C_10 
REMARK    6  A    between atoms: C_12  and  C_13 
REMARK    7  A    between atoms: C_14  and  O_15 
ROOT
HETATM    1  C   UNL     1      40.865 -14.620   4.176  1.00  0.00     0.185 A 
HETATM    2  N   UNL     1      41.460 -14.003   3.188  1.00  0.00    -0.201 NA
HETATM    3  C   UNL     1      40.787 -14.481   2.071  1.00  0.00     0.184 A 
HETATM    4  N   UNL     1      39.788 -15.332   2.361  1.00  0.00    -0.152 NA
HETATM    5  N   UNL     1      39.865 -15.406   3.701  1.00  0.00    -0.253 N 
HETATM    6  H   UNL     1      39.229 -16.004   4.217  1.00  0.00     0.191 HD
ENDROOT
BRANCH   1   7
HETATM    7  S   UNL     1      41.218 -14.535   5.855  1.00  0.00    -0.081 SA
BRANCH   7   8
HETATM    8  C   UNL     1      42.739 -15.526   5.940  1.00  0.00     0.185 C 
BRANCH   8   9
HETATM    9  C   UNL     1      42.551 -16.892   5.289  1.00  0.00     0.231 C 
HETATM   10  N   UNL     1      43.601 -17.243   4.451  1.00  0.00    -0.327 N 
HETATM   11  H   UNL     1      44.360 -16.578   4.354  1.00  0.00     0.169 HD
HETATM   12  O   UNL     1      41.562 -17.582   5.526  1.00  0.00    -0.272 OA
BRANCH  10  13
HETATM   13  C   UNL     1      43.728 -18.410   3.667  1.00  0.00     0.035 A 
HETATM   14  C   UNL     1      44.158 -19.644   4.160  1.00  0.00     0.044 A 
HETATM   15  C   UNL     1      44.248 -20.758   3.311  1.00  0.00     0.011 A 
HETATM   16  C   UNL     1      43.903 -20.629   1.961  1.00  0.00     0.015 A 
HETATM   17  C   UNL     1      43.474 -19.402   1.462  1.00  0.00     0.003 A 
HETATM   18  C   UNL     1      43.388 -18.300   2.312  1.00  0.00     0.029 A 
BRANCH  15  19
HETATM   19  C   UNL     1      44.699 -22.095   3.801  1.00  0.00     0.155 C 
HETATM   20  C   UNL     1      45.125 -22.246   5.238  1.00  0.00     0.096 C 
HETATM   21  O   UNL     1      44.717 -23.054   3.030  1.00  0.00    -0.293 OA
ENDBRANCH  15  19
ENDBRANCH  10  13
ENDBRANCH   8   9
ENDBRANCH   7   8
ENDBRANCH   1   7
BRANCH   3  22
HETATM   22  C   UNL     1      41.174 -14.081   0.721  1.00  0.00     0.048 A 
HETATM   23  C   UNL     1      41.956 -12.933   0.491  1.00  0.00     0.080 A 
HETATM   24  C   UNL     1      42.343 -12.569  -0.797  1.00  0.00     0.039 A 
HETATM   25  C   UNL     1      41.947 -13.345  -1.885  1.00  0.00     0.022 A 
HETATM   26  C   UNL     1      41.165 -14.480  -1.674  1.00  0.00     0.012 A 
HETATM   27 BR   UNL     1      40.621 -15.528  -3.151  1.00  0.00    -0.051 Br
HETATM   28  C   UNL     1      40.780 -14.851  -0.385  1.00  0.00     0.037 A 
BRANCH  23  29
HETATM   29  O   UNL     1      42.377 -12.108   1.505  1.00  0.00    -0.360 OA
HETATM   30  H   UNL     1      43.031 -12.626   2.020  1.00  0.00     0.217 HD
ENDBRANCH  23  29
ENDBRANCH   3  22
TORSDOF 7
ENDMDL
MODEL 5
REMARK VINA RESULT:      -7.9      4.611      8.793
REMARK  7 active torsions:
REMARK  status: ('A' for Active; 'I' for Inactive)
REMARK    1  A    between atoms: C_2  and  C_3 
REMARK    2  A    between atoms: C_5  and  N_6 
REMARK       I    between atoms: N_6  and  C_7 
REMARK    3  A    between atoms: C_7  and  C_8 
REMARK    4  A    between atoms: C_8  and  S_9 
REMARK    5  A    between atoms: S_9  and  C_10 
REMARK    6  A    between atoms: C_12  and  C_13 
REMARK    7  A    between atoms: C_14  and  O_15 
ROOT
HETATM    1  C   UNL     1      40.520 -13.905   5.962  1.00  0.00     0.185 A 
HETATM    2  N   UNL     1      41.749 -14.344   5.871  1.00  0.00    -0.201 NA
HETATM    3  C   UNL     1      41.583 -15.720   5.789  1.00  0.00     0.184 A 
HETATM    4  N   UNL     1      40.298 -16.114   5.792  1.00  0.00    -0.152 NA
HETATM    5  N   UNL     1      39.648 -14.943   5.909  1.00  0.00    -0.253 N 
HETATM    6  H   UNL     1      38.635 -14.925   5.957  1.00  0.00     0.191 HD
ENDROOT
BRANCH   1   7
HETATM    7  S   UNL     1      39.975 -12.286   6.141  1.00  0.00    -0.081 SA
BRANCH   7   8
HETATM    8  C   UNL     1      41.524 -11.369   5.889  1.00  0.00     0.185 C 
BRANCH   8   9
HETATM    9  C   UNL     1      41.977 -10.677   7.171  1.00  0.00     0.231 C 
HETATM   10  N   UNL     1      42.594 -11.541   8.064  1.00  0.00    -0.327 N 
HETATM   11  H   UNL     1      42.676 -12.514   7.790  1.00  0.00     0.169 HD
HETATM   12  O   UNL     1      41.805  -9.472   7.340  1.00  0.00    -0.272 OA
BRANCH  10  13
HETATM   13  C   UNL     1      43.092 -11.243   9.352  1.00  0.00     0.035 A 
HETATM   14  C   UNL     1      42.289 -11.075  10.484  1.00  0.00     0.044 A 
HETATM   15  C   UNL     1      42.868 -10.789  11.729  1.00  0.00     0.011 A 
HETATM   16  C   UNL     1      44.258 -10.672  11.837  1.00  0.00     0.015 A 
HETATM   17  C   UNL     1      45.064 -10.837  10.714  1.00  0.00     0.003 A 
HETATM   18  C   UNL     1      44.482 -11.121   9.479  1.00  0.00     0.029 A 
BRANCH  15  19
HETATM   19  C   UNL     1      42.045 -10.607  12.963  1.00  0.00     0.155 C 
HETATM   20  C   UNL     1      42.633  -9.863  14.135  1.00  0.00     0.096 C 
HETATM   21  O   UNL     1      40.904 -11.063  13.010  1.00  0.00    -0.293 OA
ENDBRANCH  15  19
ENDBRANCH  10  13
ENDBRANCH   8   9
ENDBRANCH   7   8
ENDBRANCH   1   7
BRANCH   3  22
HETATM   22  C   UNL     1      42.730 -16.622   5.724  1.00  0.00     0.048 A 
HETATM   23  C   UNL     1      43.725 -16.617   6.721  1.00  0.00     0.080 A 
HETATM   24  C   UNL     1      44.805 -17.496   6.667  1.00  0.00     0.039 A 
HETATM   25  C   UNL     1      44.914 -18.395   5.607  1.00  0.00     0.022 A 
HETATM   26  C   UNL     1      43.942 -18.405   4.609  1.00  0.00     0.012 A 
HETATM   27 BR   UNL     1      44.096 -19.618   3.166  1.00  0.00    -0.051 Br
HETATM   28  C   UNL     1      42.856 -17.530   4.661  1.00  0.00     0.037 A 
BRANCH  23  29
HETATM   29  O   UNL     1      43.698 -15.757   7.791  1.00  0.00    -0.360 OA
HETATM   30  H   UNL     1      44.148 -14.940   7.491  1.00  0.00     0.217 HD
ENDBRANCH  23  29
ENDBRANCH   3  22
TORSDOF 7
ENDMDL
MODEL 6
REMARK VINA RESULT:      -7.8      5.058      9.826
REMARK  7 active torsions:
REMARK  status: ('A' for Active; 'I' for Inactive)
REMARK    1  A    between atoms: C_2  and  C_3 
REMARK    2  A    between atoms: C_5  and  N_6 
REMARK       I    between atoms: N_6  and  C_7 
REMARK    3  A    between atoms: C_7  and  C_8 
REMARK    4  A    between atoms: C_8  and  S_9 
REMARK    5  A    between atoms: S_9  and  C_10 
REMARK    6  A    between atoms: C_12  and  C_13 
REMARK    7  A    between atoms: C_14  and  O_15 
ROOT
HETATM    1  C   UNL     1      43.516 -15.224   6.427  1.00  0.00     0.185 A 
HETATM    2  N   UNL     1      43.808 -15.876   5.331  1.00  0.00    -0.201 NA
HETATM    3  C   UNL     1      43.613 -17.201   5.697  1.00  0.00     0.184 A 
HETATM    4  N   UNL     1      43.181 -17.360   6.960  1.00  0.00    -0.152 NA
HETATM    5  N   UNL     1      43.134 -16.090   7.400  1.00  0.00    -0.253 N 
HETATM    6  H   UNL     1      42.852 -15.891   8.352  1.00  0.00     0.191 HD
ENDROOT
BRANCH   1   7
HETATM    7  S   UNL     1      43.583 -13.531   6.712  1.00  0.00    -0.081 SA
BRANCH   7   8
HETATM    8  C   UNL     1      44.996 -13.425   7.849  1.00  0.00     0.185 C 
BRANCH   8   9
HETATM    9  C   UNL     1      44.926 -12.168   8.709  1.00  0.00     0.231 C 
HETATM   10  N   UNL     1      43.753 -12.081   9.448  1.00  0.00    -0.327 N 
HETATM   11  H   UNL     1      43.080 -12.831   9.342  1.00  0.00     0.169 HD
HETATM   12  O   UNL     1      45.847 -11.354   8.727  1.00  0.00    -0.272 OA
BRANCH  10  13
HETATM   13  C   UNL     1      43.349 -11.037  10.308  1.00  0.00     0.035 A 
HETATM   14  C   UNL     1      42.373 -10.089   9.989  1.00  0.00     0.044 A 
HETATM   15  C   UNL     1      42.025  -9.089  10.908  1.00  0.00     0.011 A 
HETATM   16  C   UNL     1      42.661  -9.042  12.155  1.00  0.00     0.015 A 
HETATM   17  C   UNL     1      43.634  -9.982  12.480  1.00  0.00     0.003 A 
HETATM   18  C   UNL     1      43.976 -10.973  11.560  1.00  0.00     0.029 A 
BRANCH  15  19
HETATM   19  C   UNL     1      40.984  -8.061  10.607  1.00  0.00     0.155 C 
HETATM   20  C   UNL     1      40.160  -7.496  11.735  1.00  0.00     0.096 C 
HETATM   21  O   UNL     1      40.812  -7.687   9.447  1.00  0.00    -0.293 OA
ENDBRANCH  15  19
ENDBRANCH  10  13
ENDBRANCH   8   9
ENDBRANCH   7   8
ENDBRANCH   1   7
BRANCH   3  22
HETATM   22  C   UNL     1      43.883 -18.294   4.766  1.00  0.00     0.048 A 
HETATM   23  C   UNL     1      43.775 -18.116   3.374  1.00  0.00     0.080 A 
HETATM   24  C   UNL     1      44.056 -19.155   2.488  1.00  0.00     0.039 A 
HETATM   25  C   UNL     1      44.446 -20.399   2.982  1.00  0.00     0.022 A 
HETATM   26  C   UNL     1      44.548 -20.593   4.358  1.00  0.00     0.012 A 
HETATM   27 BR   UNL     1      45.068 -22.284   5.028  1.00  0.00    -0.051 Br
HETATM   28  C   UNL     1      44.272 -19.553   5.248  1.00  0.00     0.037 A 
BRANCH  23  29
HETATM   29  O   UNL     1      43.387 -16.927   2.806  1.00  0.00    -0.360 OA
HETATM   30  H   UNL     1      44.213 -16.429   2.632  1.00  0.00     0.217 HD
ENDBRANCH  23  29
ENDBRANCH   3  22
TORSDOF 7
ENDMDL
MODEL 7
REMARK VINA RESULT:      -7.8      4.514      9.092
REMARK  7 active torsions:
REMARK  status: ('A' for Active; 'I' for Inactive)
REMARK    1  A    between atoms: C_2  and  C_3 
REMARK    2  A    between atoms: C_5  and  N_6 
REMARK       I    between atoms: N_6  and  C_7 
REMARK    3  A    between atoms: C_7  and  C_8 
REMARK    4  A    between atoms: C_8  and  S_9 
REMARK    5  A    between atoms: S_9  and  C_10 
REMARK    6  A    between atoms: C_12  and  C_13 
REMARK    7  A    between atoms: C_14  and  O_15 
ROOT
HETATM    1  C   UNL     1      40.188 -13.972   5.807  1.00  0.00     0.185 A 
HETATM    2  N   UNL     1      40.445 -14.379   4.590  1.00  0.00    -0.201 NA
HETATM    3  C   UNL     1      40.743 -15.724   4.770  1.00  0.00     0.184 A 
HETATM    4  N   UNL     1      40.638 -16.140   6.043  1.00  0.00    -0.152 NA
HETATM    5  N   UNL     1      40.291 -15.007   6.679  1.00  0.00    -0.253 N 
HETATM    6  H   UNL     1      40.154 -15.007   7.683  1.00  0.00     0.191 HD
ENDROOT
BRANCH   1   7
HETATM    7  S   UNL     1      39.785 -12.389   6.340  1.00  0.00    -0.081 SA
BRANCH   7   8
HETATM    8  C   UNL     1      41.236 -11.453   5.775  1.00  0.00     0.185 C 
BRANCH   8   9
HETATM    9  C   UNL     1      41.880 -10.679   6.921  1.00  0.00     0.231 C 
HETATM   10  N   UNL     1      42.467 -11.505   7.871  1.00  0.00    -0.327 N 
HETATM   11  H   UNL     1      42.407 -12.505   7.717  1.00  0.00     0.169 HD
HETATM   12  O   UNL     1      41.870  -9.451   6.948  1.00  0.00    -0.272 OA
BRANCH  10  13
HETATM   13  C   UNL     1      43.109 -11.125   9.069  1.00  0.00     0.035 A 
HETATM   14  C   UNL     1      42.490 -10.408  10.097  1.00  0.00     0.044 A 
HETATM   15  C   UNL     1      43.200 -10.079  11.262  1.00  0.00     0.011 A 
HETATM   16  C   UNL     1      44.538 -10.472  11.392  1.00  0.00     0.015 A 
HETATM   17  C   UNL     1      45.161 -11.185  10.372  1.00  0.00     0.003 A 
HETATM   18  C   UNL     1      44.448 -11.508   9.217  1.00  0.00     0.029 A 
BRANCH  15  19
HETATM   19  C   UNL     1      42.574  -9.319  12.385  1.00  0.00     0.155 C 
HETATM   20  C   UNL     1      43.202  -9.380  13.753  1.00  0.00     0.096 C 
HETATM   21  O   UNL     1      41.559  -8.655  12.182  1.00  0.00    -0.293 OA
ENDBRANCH  15  19
ENDBRANCH  10  13
ENDBRANCH   8   9
ENDBRANCH   7   8
ENDBRANCH   1   7
BRANCH   3  22
HETATM   22  C   UNL     1      41.147 -16.568   3.649  1.00  0.00     0.048 A 
HETATM   23  C   UNL     1      40.474 -16.519   2.413  1.00  0.00     0.080 A 
HETATM   24  C   UNL     1      40.879 -17.309   1.338  1.00  0.00     0.039 A 
HETATM   25  C   UNL     1      41.963 -18.172   1.483  1.00  0.00     0.022 A 
HETATM   26  C   UNL     1      42.633 -18.238   2.703  1.00  0.00     0.012 A 
HETATM   27 BR   UNL     1      44.100 -19.416   2.902  1.00  0.00    -0.051 Br
HETATM   28  C   UNL     1      42.235 -17.445   3.780  1.00  0.00     0.037 A 
BRANCH  23  29
HETATM   29  O   UNL     1      39.390 -15.706   2.190  1.00  0.00    -0.360 OA
HETATM   30  H   UNL     1      38.920 -15.643   3.048  1.00  0.00     0.217 HD
ENDBRANCH  23  29
ENDBRANCH   3  22
TORSDOF 7
ENDMDL
MODEL 8
REMARK VINA RESULT:      -7.7      4.442      6.037
REMARK  7 active torsions:
REMARK  status: ('A' for Active; 'I' for Inactive)
REMARK    1  A    between atoms: C_2  and  C_3 
REMARK    2  A    between atoms: C_5  and  N_6 
REMARK       I    between atoms: N_6  and  C_7 
REMARK    3  A    between atoms: C_7  and  C_8 
REMARK    4  A    between atoms: C_8  and  S_9 
REMARK    5  A    between atoms: S_9  and  C_10 
REMARK    6  A    between atoms: C_12  and  C_13 
REMARK    7  A    between atoms: C_14  and  O_15 
ROOT
HETATM    1  C   UNL     1      39.869 -14.380   0.492  1.00  0.00     0.185 A 
HETATM    2  N   UNL     1      40.306 -13.155   0.354  1.00  0.00    -0.201 NA
HETATM    3  C   UNL     1      41.065 -13.224  -0.808  1.00  0.00     0.184 A 
HETATM    4  N   UNL     1      41.065 -14.437  -1.386  1.00  0.00    -0.152 NA
HETATM    5  N   UNL     1      40.304 -15.151  -0.538  1.00  0.00    -0.253 N 
HETATM    6  H   UNL     1      40.135 -16.135  -0.709  1.00  0.00     0.191 HD
ENDROOT
BRANCH   1   7
HETATM    7  S   UNL     1      38.897 -15.032   1.750  1.00  0.00    -0.081 SA
BRANCH   7   8
HETATM    8  C   UNL     1      39.857 -14.547   3.215  1.00  0.00     0.185 C 
BRANCH   8   9
HETATM    9  C   UNL     1      41.199 -15.271   3.266  1.00  0.00     0.231 C 
HETATM   10  N   UNL     1      41.087 -16.637   3.050  1.00  0.00    -0.327 N 
HETATM   11  H   UNL     1      40.157 -17.008   2.890  1.00  0.00     0.169 HD
HETATM   12  O   UNL     1      42.246 -14.659   3.464  1.00  0.00    -0.272 OA
BRANCH  10  13
HETATM   13  C   UNL     1      42.117 -17.603   3.069  1.00  0.00     0.035 A 
HETATM   14  C   UNL     1      42.805 -17.992   4.221  1.00  0.00     0.044 A 
HETATM   15  C   UNL     1      43.811 -18.969   4.153  1.00  0.00     0.011 A 
HETATM   16  C   UNL     1      44.124 -19.555   2.921  1.00  0.00     0.015 A 
HETATM   17  C   UNL     1      43.443 -19.172   1.769  1.00  0.00     0.003 A 
HETATM   18  C   UNL     1      42.445 -18.201   1.845  1.00  0.00     0.029 A 
BRANCH  15  19
HETATM   19  C   UNL     1      44.567 -19.415   5.361  1.00  0.00     0.155 C 
HETATM   20  C   UNL     1      45.133 -18.379   6.298  1.00  0.00     0.096 C 
HETATM   21  O   UNL     1      44.720 -20.617   5.577  1.00  0.00    -0.293 OA
ENDBRANCH  15  19
ENDBRANCH  10  13
ENDBRANCH   8   9
ENDBRANCH   7   8
ENDBRANCH   1   7
BRANCH   3  22
HETATM   22  C   UNL     1      41.794 -12.063  -1.310  1.00  0.00     0.048 A 
HETATM   23  C   UNL     1      42.567 -11.255  -0.454  1.00  0.00     0.080 A 
HETATM   24  C   UNL     1      43.281 -10.162  -0.942  1.00  0.00     0.039 A 
HETATM   25  C   UNL     1      43.226  -9.850  -2.299  1.00  0.00     0.022 A 
HETATM   26  C   UNL     1      42.458 -10.634  -3.157  1.00  0.00     0.012 A 
HETATM   27 BR   UNL     1      42.378 -10.205  -4.997  1.00  0.00    -0.051 Br
HETATM   28  C   UNL     1      41.746 -11.733  -2.673  1.00  0.00     0.037 A 
BRANCH  23  29
HETATM   29  O   UNL     1      42.665 -11.486   0.896  1.00  0.00    -0.360 OA
HETATM   30  H   UNL     1      42.222 -10.727   1.332  1.00  0.00     0.217 HD
ENDBRANCH  23  29
ENDBRANCH   3  22
TORSDOF 7
ENDMDL
MODEL 9
REMARK VINA RESULT:      -7.7      3.521      6.691
REMARK  7 active torsions:
REMARK  status: ('A' for Active; 'I' for Inactive)
REMARK    1  A    between atoms: C_2  and  C_3 
REMARK    2  A    between atoms: C_5  and  N_6 
REMARK       I    between atoms: N_6  and  C_7 
REMARK    3  A    between atoms: C_7  and  C_8 
REMARK    4  A    between atoms: C_8  and  S_9 
REMARK    5  A    between atoms: S_9  and  C_10 
REMARK    6  A    between atoms: C_12  and  C_13 
REMARK    7  A    between atoms: C_14  and  O_15 
ROOT
HETATM    1  C   UNL     1      40.490 -15.126   4.773  1.00  0.00     0.185 A 
HETATM    2  N   UNL     1      41.465 -15.911   4.390  1.00  0.00    -0.201 NA
HETATM    3  C   UNL     1      41.549 -16.830   5.428  1.00  0.00     0.184 A 
HETATM    4  N   UNL     1      40.636 -16.643   6.396  1.00  0.00    -0.152 NA
HETATM    5  N   UNL     1      39.983 -15.553   5.957  1.00  0.00    -0.253 N 
HETATM    6  H   UNL     1      39.230 -15.154   6.505  1.00  0.00     0.191 HD
ENDROOT
BRANCH   1   7
HETATM    7  S   UNL     1      39.871 -13.731   3.984  1.00  0.00    -0.081 SA
BRANCH   7   8
HETATM    8  C   UNL     1      40.861 -13.726   2.460  1.00  0.00     0.185 C 
BRANCH   8   9
HETATM    9  C   UNL     1      40.131 -14.428   1.319  1.00  0.00     0.231 C 
HETATM   10  N   UNL     1      40.642 -14.105   0.069  1.00  0.00    -0.327 N 
HETATM   11  H   UNL     1      41.418 -13.454   0.038  1.00  0.00     0.169 HD
HETATM   12  O   UNL     1      39.203 -15.203   1.537  1.00  0.00    -0.272 OA
BRANCH  10  13
HETATM   13  C   UNL     1      40.179 -14.540  -1.192  1.00  0.00     0.035 A 
HETATM   14  C   UNL     1      39.000 -14.093  -1.792  1.00  0.00     0.044 A 
HETATM   15  C   UNL     1      38.619 -14.571  -3.055  1.00  0.00     0.011 A 
HETATM   16  C   UNL     1      39.428 -15.502  -3.716  1.00  0.00     0.015 A 
HETATM   17  C   UNL     1      40.604 -15.952  -3.125  1.00  0.00     0.003 A 
HETATM   18  C   UNL     1      40.976 -15.473  -1.869  1.00  0.00     0.029 A 
BRANCH  15  19
HETATM   19  C   UNL     1      37.367 -14.115  -3.732  1.00  0.00     0.155 C 
HETATM   20  C   UNL     1      36.902 -12.695  -3.538  1.00  0.00     0.096 C 
HETATM   21  O   UNL     1      36.733 -14.899  -4.437  1.00  0.00    -0.293 OA
ENDBRANCH  15  19
ENDBRANCH  10  13
ENDBRANCH   8   9
ENDBRANCH   7   8
ENDBRANCH   1   7
BRANCH   3  22
HETATM   22  C   UNL     1      42.565 -17.880   5.433  1.00  0.00     0.048 A 
HETATM   23  C   UNL     1      43.146 -18.334   6.632  1.00  0.00     0.080 A 
HETATM   24  C   UNL     1      44.097 -19.352   6.634  1.00  0.00     0.039 A 
HETATM   25  C   UNL     1      44.492 -19.933   5.430  1.00  0.00     0.022 A 
HETATM   26  C   UNL     1      43.932 -19.487   4.234  1.00  0.00     0.012 A 
HETATM   27 BR   UNL     1      44.475 -20.269   2.599  1.00  0.00    -0.051 Br
HETATM   28  C   UNL     1      42.975 -18.471   4.228  1.00  0.00     0.037 A 
BRANCH  23  29
HETATM   29  O   UNL     1      42.821 -17.808   7.859  1.00  0.00    -0.360 OA
HETATM   30  H   UNL     1      43.495 -17.120   8.044  1.00  0.00     0.217 HD
ENDBRANCH  23  29
ENDBRANCH   3  22
TORSDOF 7
ENDMDL
MODEL 10
REMARK VINA RESULT:      -7.6      3.188      4.821
REMARK  7 active torsions:
REMARK  status: ('A' for Active; 'I' for Inactive)
REMARK    1  A    between atoms: C_2  and  C_3 
REMARK    2  A    between atoms: C_5  and  N_6 
REMARK       I    between atoms: N_6  and  C_7 
REMARK    3  A    between atoms: C_7  and  C_8 
REMARK    4  A    between atoms: C_8  and  S_9 
REMARK    5  A    between atoms: S_9  and  C_10 
REMARK    6  A    between atoms: C_12  and  C_13 
REMARK    7  A    between atoms: C_14  and  O_15 
ROOT
HETATM    1  C   UNL     1      43.156 -14.097   5.949  1.00  0.00     0.185 A 
HETATM    2  N   UNL     1      42.731 -14.569   4.805  1.00  0.00    -0.201 NA
HETATM    3  C   UNL     1      41.711 -13.689   4.465  1.00  0.00     0.184 A 
HETATM    4  N   UNL     1      41.538 -12.689   5.346  1.00  0.00    -0.152 NA
HETATM    5  N   UNL     1      42.463 -12.977   6.279  1.00  0.00    -0.253 N 
HETATM    6  H   UNL     1      42.559 -12.391   7.100  1.00  0.00     0.191 HD
ENDROOT
BRANCH   1   7
HETATM    7  S   UNL     1      44.386 -14.723   6.971  1.00  0.00    -0.081 SA
BRANCH   7   8
HETATM    8  C   UNL     1      43.622 -16.276   7.523  1.00  0.00     0.185 C 
BRANCH   8   9
HETATM    9  C   UNL     1      44.062 -17.452   6.657  1.00  0.00     0.231 C 
HETATM   10  N   UNL     1      43.607 -17.362   5.349  1.00  0.00    -0.327 N 
HETATM   11  H   UNL     1      43.041 -16.556   5.107  1.00  0.00     0.169 HD
HETATM   12  O   UNL     1      44.763 -18.353   7.112  1.00  0.00    -0.272 OA
BRANCH  10  13
HETATM   13  C   UNL     1      43.794 -18.292   4.302  1.00  0.00     0.035 A 
HETATM   14  C   UNL     1      44.127 -19.635   4.496  1.00  0.00     0.044 A 
HETATM   15  C   UNL     1      44.286 -20.494   3.398  1.00  0.00     0.011 A 
HETATM   16  C   UNL     1      44.109 -19.999   2.100  1.00  0.00     0.015 A 
HETATM   17  C   UNL     1      43.778 -18.662   1.899  1.00  0.00     0.003 A 
HETATM   18  C   UNL     1      43.623 -17.814   2.996  1.00  0.00     0.029 A 
BRANCH  15  19
HETATM   19  C   UNL     1      44.636 -21.936   3.562  1.00  0.00     0.155 C 
HETATM   20  C   UNL     1      45.032 -22.445   4.924  1.00  0.00     0.096 C 
HETATM   21  O   UNL     1      44.599 -22.689   2.590  1.00  0.00    -0.293 OA
ENDBRANCH  15  19
ENDBRANCH  10  13
ENDBRANCH   8   9
ENDBRANCH   7   8
ENDBRANCH   1   7
BRANCH   3  22
HETATM   22  C   UNL     1      40.914 -13.881   3.257  1.00  0.00     0.048 A 
HETATM   23  C   UNL     1      39.666 -13.250   3.093  1.00  0.00     0.080 A 
HETATM   24  C   UNL     1      38.919 -13.417   1.928  1.00  0.00     0.039 A 
HETATM   25  C   UNL     1      39.406 -14.228   0.904  1.00  0.00     0.022 A 
HETATM   26  C   UNL     1      40.636 -14.866   1.056  1.00  0.00     0.012 A 
HETATM   27 BR   UNL     1      41.292 -15.973  -0.331  1.00  0.00    -0.051 Br
HETATM   28  C   UNL     1      41.389 -14.698   2.219  1.00  0.00     0.037 A 
BRANCH  23  29
HETATM   29  O   UNL     1      39.109 -12.446   4.057  1.00  0.00    -0.360 OA
HETATM   30  H   UNL     1      39.857 -12.119   4.600  1.00  0.00     0.217 HD
ENDBRANCH  23  29
ENDBRANCH   3  22
TORSDOF 7
ENDMDL
