MODEL 1
REMARK VINA RESULT:      -7.8      0.000      0.000
REMARK  6 active torsions:
REMARK  status: ('A' for Active; 'I' for Inactive)
REMARK    1  A    between atoms: C_8  and  N_9 
REMARK       I    between atoms: N_9  and  C_10 
REMARK    2  A    between atoms: C_10  and  C_11 
REMARK    3  A    between atoms: C_11  and  N_12 
REMARK    4  A    between atoms: N_12  and  C_15 
REMARK    5  A    between atoms: C_15  and  C_16 
REMARK    6  A    between atoms: C_16  and  C_17 
ROOT
HETATM    1  N   UNL     1      43.575 -16.388   4.345  1.00  0.00    -0.062 N 
HETATM    2  H   UNL     1      44.297 -16.260   3.618  1.00  0.00     0.278 HD
HETATM    3  H   UNL     1      44.132 -16.523   5.206  1.00  0.00     0.278 HD
ENDROOT
BRANCH   1   4
HETATM    4  C   UNL     1      42.840 -15.079   4.573  1.00  0.00     0.335 C 
BRANCH   4   5
HETATM    5  C   UNL     1      43.217 -14.107   3.468  1.00  0.00     0.248 C 
HETATM    6  N   UNL     1      42.414 -13.846   2.409  1.00  0.00    -0.322 N 
HETATM    7  H   UNL     1      42.888 -13.323   1.677  1.00  0.00     0.169 HD
HETATM    8  O   UNL     1      44.347 -13.599   3.526  1.00  0.00    -0.271 OA
BRANCH   6   9
HETATM    9  C   UNL     1      41.120 -14.232   2.108  1.00  0.00     0.085 A 
HETATM   10  C   UNL     1      40.816 -14.752   0.861  1.00  0.00     0.052 A 
HETATM   11  C   UNL     1      41.634 -15.014  -0.350  1.00  0.00     0.072 C 
HETATM   12  N   UNL     1      39.488 -15.072   0.893  1.00  0.00    -0.280 N 
HETATM   13  H   UNL     1      38.920 -15.492   0.161  1.00  0.00     0.189 HD
HETATM   14  N   UNL     1      38.901 -14.767   2.052  1.00  0.00    -0.177 NA
HETATM   15  C   UNL     1      39.862 -14.189   2.780  1.00  0.00     0.079 A 
HETATM   16  C   UNL     1      39.437 -13.557   4.053  1.00  0.00     0.075 C 
ENDBRANCH   6   9
ENDBRANCH   4   5
ENDBRANCH   1   4
BRANCH   1  17
HETATM   17  C   UNL     1      42.746 -17.614   4.047  1.00  0.00     0.194 C 
HETATM   18  C   UNL     1      41.276 -17.241   4.265  1.00  0.00     0.041 C 
BRANCH  17  19
HETATM   19  C   UNL     1      43.109 -18.196   2.623  1.00  0.00     0.007 C 
HETATM   20  C   UNL     1      41.841 -18.140   1.722  1.00  0.00     0.022 C 
HETATM   21  C   UNL     1      44.122 -17.262   1.905  1.00  0.00     0.022 C 
BRANCH  19  22
HETATM   22  C   UNL     1      43.663 -19.633   2.742  1.00  0.00    -0.048 A 
HETATM   23  C   UNL     1      43.463 -20.596   1.734  1.00  0.00     0.008 A 
HETATM   24  C   UNL     1      43.932 -21.906   1.872  1.00  0.00     0.001 A 
HETATM   25  C   UNL     1      44.616 -22.288   3.020  1.00  0.00     0.000 A 
HETATM   26  C   UNL     1      44.835 -21.358   4.027  1.00  0.00     0.001 A 
HETATM   27  C   UNL     1      44.364 -20.049   3.891  1.00  0.00     0.008 A 
ENDBRANCH  19  22
ENDBRANCH  17  19
ENDBRANCH   1  17
TORSDOF 6
ENDMDL
MODEL 2
REMARK VINA RESULT:      -7.6      2.472      3.851
REMARK  6 active torsions:
REMARK  status: ('A' for Active; 'I' for Inactive)
REMARK    1  A    between atoms: C_8  and  N_9 
REMARK       I    between atoms: N_9  and  C_10 
REMARK    2  A    between atoms: C_10  and  C_11 
REMARK    3  A    between atoms: C_11  and  N_12 
REMARK    4  A    between atoms: N_12  and  C_15 
REMARK    5  A    between atoms: C_15  and  C_16 
REMARK    6  A    between atoms: C_16  and  C_17 
ROOT
HETATM    1  N   UNL     1      41.423 -16.050   2.534  1.00  0.00    -0.062 N 
HETATM    2  H   UNL     1      41.062 -15.160   2.911  1.00  0.00     0.278 HD
HETATM    3  H   UNL     1      40.771 -16.752   2.926  1.00  0.00     0.278 HD
ENDROOT
BRANCH   1   4
HETATM    4  C   UNL     1      41.184 -16.109   1.036  1.00  0.00     0.335 C 
BRANCH   4   5
HETATM    5  C   UNL     1      40.003 -15.217   0.694  1.00  0.00     0.248 C 
HETATM    6  N   UNL     1      39.892 -14.559  -0.485  1.00  0.00    -0.322 N 
HETATM    7  H   UNL     1      39.146 -13.868  -0.479  1.00  0.00     0.169 HD
HETATM    8  O   UNL     1      39.152 -15.044   1.579  1.00  0.00    -0.271 OA
BRANCH   6   9
HETATM    9  C   UNL     1      40.653 -14.588  -1.639  1.00  0.00     0.085 A 
HETATM   10  C   UNL     1      41.695 -13.694  -1.816  1.00  0.00     0.052 A 
HETATM   11  C   UNL     1      42.237 -12.597  -0.974  1.00  0.00     0.072 C 
HETATM   12  N   UNL     1      42.268 -14.004  -3.017  1.00  0.00    -0.280 N 
HETATM   13  H   UNL     1      43.069 -13.570  -3.467  1.00  0.00     0.189 HD
HETATM   14  N   UNL     1      41.656 -15.008  -3.648  1.00  0.00    -0.177 NA
HETATM   15  C   UNL     1      40.626 -15.331  -2.858  1.00  0.00     0.079 A 
HETATM   16  C   UNL     1      39.641 -16.291  -3.414  1.00  0.00     0.075 C 
ENDBRANCH   6   9
ENDBRANCH   4   5
ENDBRANCH   1   4
BRANCH   1  17
HETATM   17  C   UNL     1      42.829 -16.293   3.028  1.00  0.00     0.194 C 
HETATM   18  C   UNL     1      43.415 -14.939   3.441  1.00  0.00     0.041 C 
BRANCH  17  19
HETATM   19  C   UNL     1      42.838 -17.419   4.139  1.00  0.00     0.007 C 
HETATM   20  C   UNL     1      43.631 -16.897   5.373  1.00  0.00     0.022 C 
HETATM   21  C   UNL     1      41.402 -17.647   4.683  1.00  0.00     0.022 C 
BRANCH  19  22
HETATM   22  C   UNL     1      43.440 -18.730   3.585  1.00  0.00    -0.048 A 
HETATM   23  C   UNL     1      43.088 -19.237   2.319  1.00  0.00     0.008 A 
HETATM   24  C   UNL     1      43.607 -20.447   1.847  1.00  0.00     0.001 A 
HETATM   25  C   UNL     1      44.494 -21.180   2.625  1.00  0.00     0.000 A 
HETATM   26  C   UNL     1      44.865 -20.702   3.875  1.00  0.00     0.001 A 
HETATM   27  C   UNL     1      44.344 -19.494   4.349  1.00  0.00     0.008 A 
ENDBRANCH  19  22
ENDBRANCH  17  19
ENDBRANCH   1  17
TORSDOF 6
ENDMDL
MODEL 3
REMARK VINA RESULT:      -7.4      2.043      3.195
REMARK  6 active torsions:
REMARK  status: ('A' for Active; 'I' for Inactive)
REMARK    1  A    between atoms: C_8  and  N_9 
REMARK       I    between atoms: N_9  and  C_10 
REMARK    2  A    between atoms: C_10  and  C_11 
REMARK    3  A    between atoms: C_11  and  N_12 
REMARK    4  A    between atoms: N_12  and  C_15 
REMARK    5  A    between atoms: C_15  and  C_16 
REMARK    6  A    between atoms: C_16  and  C_17 
ROOT
HETATM    1  N   UNL     1      43.501 -15.957   2.829  1.00  0.00    -0.062 N 
HETATM    2  H   UNL     1      43.911 -15.918   1.883  1.00  0.00     0.278 HD
HETATM    3  H   UNL     1      44.325 -16.104   3.436  1.00  0.00     0.278 HD
ENDROOT
BRANCH   1   4
HETATM    4  C   UNL     1      42.984 -14.583   3.222  1.00  0.00     0.335 C 
BRANCH   4   5
HETATM    5  C   UNL     1      43.577 -14.205   4.568  1.00  0.00     0.248 C 
HETATM    6  N   UNL     1      43.032 -14.586   5.748  1.00  0.00    -0.322 N 
HETATM    7  H   UNL     1      43.438 -14.100   6.542  1.00  0.00     0.169 HD
HETATM    8  O   UNL     1      44.563 -13.452   4.558  1.00  0.00    -0.271 OA
BRANCH   6   9
HETATM    9  C   UNL     1      41.980 -15.431   6.054  1.00  0.00     0.085 A 
HETATM   10  C   UNL     1      40.673 -14.983   5.966  1.00  0.00     0.052 A 
HETATM   11  C   UNL     1      40.077 -13.677   5.586  1.00  0.00     0.072 C 
HETATM   12  N   UNL     1      39.880 -16.049   6.286  1.00  0.00    -0.280 N 
HETATM   13  H   UNL     1      38.865 -16.098   6.312  1.00  0.00     0.189 HD
HETATM   14  N   UNL     1      40.574 -17.143   6.608  1.00  0.00    -0.177 NA
HETATM   15  C   UNL     1      41.856 -16.766   6.542  1.00  0.00     0.079 A 
HETATM   16  C   UNL     1      42.856 -17.733   7.055  1.00  0.00     0.075 C 
ENDBRANCH   6   9
ENDBRANCH   4   5
ENDBRANCH   1   4
BRANCH   1  17
HETATM   17  C   UNL     1      42.544 -17.121   2.935  1.00  0.00     0.194 C 
HETATM   18  C   UNL     1      41.122 -16.556   2.881  1.00  0.00     0.041 C 
BRANCH  17  19
HETATM   19  C   UNL     1      42.893 -18.223   1.856  1.00  0.00     0.007 C 
HETATM   20  C   UNL     1      41.587 -18.618   1.106  1.00  0.00     0.022 C 
HETATM   21  C   UNL     1      43.797 -17.621   0.747  1.00  0.00     0.022 C 
BRANCH  19  22
HETATM   22  C   UNL     1      43.564 -19.447   2.520  1.00  0.00    -0.048 A 
HETATM   23  C   UNL     1      43.643 -20.696   1.873  1.00  0.00     0.008 A 
HETATM   24  C   UNL     1      44.214 -21.808   2.501  1.00  0.00     0.001 A 
HETATM   25  C   UNL     1      44.724 -21.700   3.789  1.00  0.00     0.000 A 
HETATM   26  C   UNL     1      44.666 -20.479   4.449  1.00  0.00     0.001 A 
HETATM   27  C   UNL     1      44.093 -19.368   3.823  1.00  0.00     0.008 A 
ENDBRANCH  19  22
ENDBRANCH  17  19
ENDBRANCH   1  17
TORSDOF 6
ENDMDL
MODEL 4
REMARK VINA RESULT:      -7.3      2.018      2.742
REMARK  6 active torsions:
REMARK  status: ('A' for Active; 'I' for Inactive)
REMARK    1  A    between atoms: C_8  and  N_9 
REMARK       I    between atoms: N_9  and  C_10 
REMARK    2  A    between atoms: C_10  and  C_11 
REMARK    3  A    between atoms: C_11  and  N_12 
REMARK    4  A    between atoms: N_12  and  C_15 
REMARK    5  A    between atoms: C_15  and  C_16 
REMARK    6  A    between atoms: C_16  and  C_17 
ROOT
HETATM    1  N   UNL     1      42.170 -15.792   3.649  1.00  0.00    -0.062 N 
HETATM    2  H   UNL     1      41.159 -15.784   3.441  1.00  0.00     0.278 HD
HETATM    3  H   UNL     1      42.588 -15.393   2.791  1.00  0.00     0.278 HD
ENDROOT
BRANCH   1   4
HETATM    4  C   UNL     1      42.480 -14.771   4.729  1.00  0.00     0.335 C 
BRANCH   4   5
HETATM    5  C   UNL     1      42.952 -13.487   4.068  1.00  0.00     0.248 C 
HETATM    6  N   UNL     1      42.210 -12.354   4.045  1.00  0.00    -0.322 N 
HETATM    7  H   UNL     1      42.585 -11.654   3.411  1.00  0.00     0.169 HD
HETATM    8  O   UNL     1      44.036 -13.528   3.468  1.00  0.00    -0.271 OA
BRANCH   6   9
HETATM    9  C   UNL     1      41.010 -12.018   4.645  1.00  0.00     0.085 A 
HETATM   10  C   UNL     1      39.817 -12.171   3.960  1.00  0.00     0.052 A 
HETATM   11  C   UNL     1      39.493 -12.655   2.594  1.00  0.00     0.072 C 
HETATM   12  N   UNL     1      38.827 -11.799   4.825  1.00  0.00    -0.280 N 
HETATM   13  H   UNL     1      37.822 -11.797   4.674  1.00  0.00     0.189 HD
HETATM   14  N   UNL     1      39.290 -11.384   6.006  1.00  0.00    -0.177 NA
HETATM   15  C   UNL     1      40.621 -11.442   5.892  1.00  0.00     0.079 A 
HETATM   16  C   UNL     1      41.406 -10.838   6.995  1.00  0.00     0.075 C 
ENDBRANCH   6   9
ENDBRANCH   4   5
ENDBRANCH   1   4
BRANCH   1  17
HETATM   17  C   UNL     1      42.646 -17.208   3.866  1.00  0.00     0.194 C 
HETATM   18  C   UNL     1      41.584 -17.929   4.703  1.00  0.00     0.041 C 
BRANCH  17  19
HETATM   19  C   UNL     1      43.017 -17.885   2.486  1.00  0.00     0.007 C 
HETATM   20  C   UNL     1      41.763 -17.856   1.563  1.00  0.00     0.022 C 
HETATM   21  C   UNL     1      44.061 -17.021   1.729  1.00  0.00     0.022 C 
BRANCH  19  22
HETATM   22  C   UNL     1      43.534 -19.325   2.703  1.00  0.00    -0.048 A 
HETATM   23  C   UNL     1      44.330 -19.673   3.813  1.00  0.00     0.008 A 
HETATM   24  C   UNL     1      44.829 -20.969   3.976  1.00  0.00     0.001 A 
HETATM   25  C   UNL     1      44.542 -21.953   3.037  1.00  0.00     0.000 A 
HETATM   26  C   UNL     1      43.754 -21.641   1.937  1.00  0.00     0.001 A 
HETATM   27  C   UNL     1      43.258 -20.345   1.772  1.00  0.00     0.008 A 
ENDBRANCH  19  22
ENDBRANCH  17  19
ENDBRANCH   1  17
TORSDOF 6
ENDMDL
MODEL 5
REMARK VINA RESULT:      -7.3      1.542      2.734
REMARK  6 active torsions:
REMARK  status: ('A' for Active; 'I' for Inactive)
REMARK    1  A    between atoms: C_8  and  N_9 
REMARK       I    between atoms: N_9  and  C_10 
REMARK    2  A    between atoms: C_10  and  C_11 
REMARK    3  A    between atoms: C_11  and  N_12 
REMARK    4  A    between atoms: N_12  and  C_15 
REMARK    5  A    between atoms: C_15  and  C_16 
REMARK    6  A    between atoms: C_16  and  C_17 
ROOT
HETATM    1  N   UNL     1      42.167 -14.845   5.549  1.00  0.00    -0.062 N 
HETATM    2  H   UNL     1      41.766 -14.622   6.473  1.00  0.00     0.278 HD
HETATM    3  H   UNL     1      41.359 -15.228   5.029  1.00  0.00     0.278 HD
ENDROOT
BRANCH   1   4
HETATM    4  C   UNL     1      42.511 -13.560   4.815  1.00  0.00     0.335 C 
BRANCH   4   5
HETATM    5  C   UNL     1      43.127 -13.913   3.472  1.00  0.00     0.248 C 
HETATM    6  N   UNL     1      42.416 -14.452   2.453  1.00  0.00    -0.322 N 
HETATM    7  H   UNL     1      43.007 -14.797   1.702  1.00  0.00     0.169 HD
HETATM    8  O   UNL     1      44.352 -13.759   3.356  1.00  0.00    -0.271 OA
BRANCH   6   9
HETATM    9  C   UNL     1      41.064 -14.698   2.294  1.00  0.00     0.085 A 
HETATM   10  C   UNL     1      40.623 -15.930   1.841  1.00  0.00     0.052 A 
HETATM   11  C   UNL     1      41.334 -17.171   1.444  1.00  0.00     0.072 C 
HETATM   12  N   UNL     1      39.259 -15.870   1.833  1.00  0.00    -0.280 N 
HETATM   13  H   UNL     1      38.595 -16.595   1.574  1.00  0.00     0.189 HD
HETATM   14  N   UNL     1      38.782 -14.682   2.211  1.00  0.00    -0.177 NA
HETATM   15  C   UNL     1      39.867 -13.931   2.428  1.00  0.00     0.079 A 
HETATM   16  C   UNL     1      39.634 -12.486   2.665  1.00  0.00     0.075 C 
ENDBRANCH   6   9
ENDBRANCH   4   5
ENDBRANCH   1   4
BRANCH   1  17
HETATM   17  C   UNL     1      43.254 -15.884   5.688  1.00  0.00     0.194 C 
HETATM   18  C   UNL     1      44.265 -15.360   6.712  1.00  0.00     0.041 C 
BRANCH  17  19
HETATM   19  C   UNL     1      42.627 -17.302   5.996  1.00  0.00     0.007 C 
HETATM   20  C   UNL     1      42.677 -17.547   7.533  1.00  0.00     0.022 C 
HETATM   21  C   UNL     1      41.109 -17.301   5.665  1.00  0.00     0.022 C 
BRANCH  19  22
HETATM   22  C   UNL     1      43.367 -18.411   5.216  1.00  0.00    -0.048 A 
HETATM   23  C   UNL     1      43.974 -19.503   5.867  1.00  0.00     0.008 A 
HETATM   24  C   UNL     1      44.679 -20.478   5.153  1.00  0.00     0.001 A 
HETATM   25  C   UNL     1      44.793 -20.390   3.772  1.00  0.00     0.000 A 
HETATM   26  C   UNL     1      44.199 -19.328   3.102  1.00  0.00     0.001 A 
HETATM   27  C   UNL     1      43.497 -18.351   3.815  1.00  0.00     0.008 A 
ENDBRANCH  19  22
ENDBRANCH  17  19
ENDBRANCH   1  17
TORSDOF 6
ENDMDL
MODEL 6
REMARK VINA RESULT:      -7.3      2.062      3.873
REMARK  6 active torsions:
REMARK  status: ('A' for Active; 'I' for Inactive)
REMARK    1  A    between atoms: C_8  and  N_9 
REMARK       I    between atoms: N_9  and  C_10 
REMARK    2  A    between atoms: C_10  and  C_11 
REMARK    3  A    between atoms: C_11  and  N_12 
REMARK    4  A    between atoms: N_12  and  C_15 
REMARK    5  A    between atoms: C_15  and  C_16 
REMARK    6  A    between atoms: C_16  and  C_17 
ROOT
HETATM    1  N   UNL     1      42.826 -15.209   2.329  1.00  0.00    -0.062 N 
HETATM    2  H   UNL     1      42.155 -14.562   1.886  1.00  0.00     0.278 HD
HETATM    3  H   UNL     1      43.498 -15.407   1.567  1.00  0.00     0.278 HD
ENDROOT
BRANCH   1   4
HETATM    4  C   UNL     1      43.646 -14.464   3.369  1.00  0.00     0.335 C 
BRANCH   4   5
HETATM    5  C   UNL     1      42.710 -13.624   4.220  1.00  0.00     0.248 C 
HETATM    6  N   UNL     1      42.279 -14.011   5.444  1.00  0.00    -0.322 N 
HETATM    7  H   UNL     1      41.521 -13.430   5.794  1.00  0.00     0.169 HD
HETATM    8  O   UNL     1      42.279 -12.575   3.716  1.00  0.00    -0.271 OA
BRANCH   6   9
HETATM    9  C   UNL     1      42.611 -15.086   6.248  1.00  0.00     0.085 A 
HETATM   10  C   UNL     1      43.848 -15.142   6.869  1.00  0.00     0.052 A 
HETATM   11  C   UNL     1      45.019 -14.228   6.870  1.00  0.00     0.072 C 
HETATM   12  N   UNL     1      43.852 -16.288   7.613  1.00  0.00    -0.280 N 
HETATM   13  H   UNL     1      44.587 -16.649   8.215  1.00  0.00     0.189 HD
HETATM   14  N   UNL     1      42.727 -16.996   7.495  1.00  0.00    -0.177 NA
HETATM   15  C   UNL     1      41.987 -16.317   6.612  1.00  0.00     0.079 A 
HETATM   16  C   UNL     1      40.755 -16.986   6.128  1.00  0.00     0.075 C 
ENDBRANCH   6   9
ENDBRANCH   4   5
ENDBRANCH   1   4
BRANCH   1  17
HETATM   17  C   UNL     1      42.124 -16.472   2.765  1.00  0.00     0.194 C 
HETATM   18  C   UNL     1      40.617 -16.236   2.621  1.00  0.00     0.041 C 
BRANCH  17  19
HETATM   19  C   UNL     1      42.706 -17.723   1.992  1.00  0.00     0.007 C 
HETATM   20  C   UNL     1      41.525 -18.501   1.340  1.00  0.00     0.022 C 
HETATM   21  C   UNL     1      43.562 -17.256   0.783  1.00  0.00     0.022 C 
BRANCH  19  22
HETATM   22  C   UNL     1      43.527 -18.622   2.944  1.00  0.00    -0.048 A 
HETATM   23  C   UNL     1      43.914 -19.929   2.587  1.00  0.00     0.008 A 
HETATM   24  C   UNL     1      44.620 -20.749   3.473  1.00  0.00     0.001 A 
HETATM   25  C   UNL     1      44.961 -20.284   4.737  1.00  0.00     0.000 A 
HETATM   26  C   UNL     1      44.600 -18.997   5.114  1.00  0.00     0.001 A 
HETATM   27  C   UNL     1      43.891 -18.178   4.230  1.00  0.00     0.008 A 
ENDBRANCH  19  22
ENDBRANCH  17  19
ENDBRANCH   1  17
TORSDOF 6
ENDMDL
MODEL 7
REMARK VINA RESULT:      -7.3      1.695      2.642
REMARK  6 active torsions:
REMARK  status: ('A' for Active; 'I' for Inactive)
REMARK    1  A    between atoms: C_8  and  N_9 
REMARK       I    between atoms: N_9  and  C_10 
REMARK    2  A    between atoms: C_10  and  C_11 
REMARK    3  A    between atoms: C_11  and  N_12 
REMARK    4  A    between atoms: N_12  and  C_15 
REMARK    5  A    between atoms: C_15  and  C_16 
REMARK    6  A    between atoms: C_16  and  C_17 
ROOT
HETATM    1  N   UNL     1      42.705 -15.446   4.484  1.00  0.00    -0.062 N 
HETATM    2  H   UNL     1      42.152 -14.874   5.141  1.00  0.00     0.278 HD
HETATM    3  H   UNL     1      41.980 -15.972   3.965  1.00  0.00     0.278 HD
ENDROOT
BRANCH   1   4
HETATM    4  C   UNL     1      43.343 -14.551   3.436  1.00  0.00     0.335 C 
BRANCH   4   5
HETATM    5  C   UNL     1      42.381 -13.423   3.104  1.00  0.00     0.248 C 
HETATM    6  N   UNL     1      41.692 -13.360   1.940  1.00  0.00    -0.322 N 
HETATM    7  H   UNL     1      41.243 -12.459   1.799  1.00  0.00     0.169 HD
HETATM    8  O   UNL     1      42.297 -12.495   3.923  1.00  0.00    -0.271 OA
BRANCH   6   9
HETATM    9  C   UNL     1      41.569 -14.246   0.885  1.00  0.00     0.085 A 
HETATM   10  C   UNL     1      41.804 -13.829  -0.414  1.00  0.00     0.052 A 
HETATM   11  C   UNL     1      42.194 -12.520  -0.998  1.00  0.00     0.072 C 
HETATM   12  N   UNL     1      41.644 -14.930  -1.206  1.00  0.00    -0.280 N 
HETATM   13  H   UNL     1      41.754 -15.006  -2.214  1.00  0.00     0.189 HD
HETATM   14  N   UNL     1      41.289 -16.021  -0.525  1.00  0.00    -0.177 NA
HETATM   15  C   UNL     1      41.168 -15.609   0.742  1.00  0.00     0.079 A 
HETATM   16  C   UNL     1      40.578 -16.576   1.698  1.00  0.00     0.075 C 
ENDBRANCH   6   9
ENDBRANCH   4   5
ENDBRANCH   1   4
BRANCH   1  17
HETATM   17  C   UNL     1      43.608 -16.388   5.243  1.00  0.00     0.194 C 
HETATM   18  C   UNL     1      44.016 -15.690   6.544  1.00  0.00     0.041 C 
BRANCH  17  19
HETATM   19  C   UNL     1      42.921 -17.804   5.404  1.00  0.00     0.007 C 
HETATM   20  C   UNL     1      43.085 -18.273   6.879  1.00  0.00     0.022 C 
HETATM   21  C   UNL     1      41.384 -17.678   5.217  1.00  0.00     0.022 C 
BRANCH  19  22
HETATM   22  C   UNL     1      43.523 -18.821   4.409  1.00  0.00    -0.048 A 
HETATM   23  C   UNL     1      43.129 -18.866   3.057  1.00  0.00     0.008 A 
HETATM   24  C   UNL     1      43.649 -19.820   2.177  1.00  0.00     0.001 A 
HETATM   25  C   UNL     1      44.579 -20.751   2.622  1.00  0.00     0.000 A 
HETATM   26  C   UNL     1      44.992 -20.726   3.948  1.00  0.00     0.001 A 
HETATM   27  C   UNL     1      44.470 -19.775   4.829  1.00  0.00     0.008 A 
ENDBRANCH  19  22
ENDBRANCH  17  19
ENDBRANCH   1  17
TORSDOF 6
ENDMDL
MODEL 8
REMARK VINA RESULT:      -7.2      2.224      3.547
REMARK  6 active torsions:
REMARK  status: ('A' for Active; 'I' for Inactive)
REMARK    1  A    between atoms: C_8  and  N_9 
REMARK       I    between atoms: N_9  and  C_10 
REMARK    2  A    between atoms: C_10  and  C_11 
REMARK    3  A    between atoms: C_11  and  N_12 
REMARK    4  A    between atoms: N_12  and  C_15 
REMARK    5  A    between atoms: C_15  and  C_16 
REMARK    6  A    between atoms: C_16  and  C_17 
ROOT
HETATM    1  N   UNL     1      42.403 -15.217   1.883  1.00  0.00    -0.062 N 
HETATM    2  H   UNL     1      42.124 -15.286   0.892  1.00  0.00     0.278 HD
HETATM    3  H   UNL     1      43.434 -15.157   1.833  1.00  0.00     0.278 HD
ENDROOT
BRANCH   1   4
HETATM    4  C   UNL     1      41.974 -13.871   2.444  1.00  0.00     0.335 C 
BRANCH   4   5
HETATM    5  C   UNL     1      42.842 -13.544   3.648  1.00  0.00     0.248 C 
HETATM    6  N   UNL     1      42.338 -13.074   4.813  1.00  0.00    -0.322 N 
HETATM    7  H   UNL     1      43.060 -12.734   5.443  1.00  0.00     0.169 HD
HETATM    8  O   UNL     1      44.069 -13.654   3.504  1.00  0.00    -0.271 OA
BRANCH   6   9
HETATM    9  C   UNL     1      41.041 -12.889   5.256  1.00  0.00     0.085 A 
HETATM   10  C   UNL     1      40.317 -13.951   5.771  1.00  0.00     0.052 A 
HETATM   11  C   UNL     1      40.639 -15.386   5.976  1.00  0.00     0.072 C 
HETATM   12  N   UNL     1      39.109 -13.442   6.154  1.00  0.00    -0.280 N 
HETATM   13  H   UNL     1      38.327 -13.926   6.589  1.00  0.00     0.189 HD
HETATM   14  N   UNL     1      38.980 -12.139   5.894  1.00  0.00    -0.177 NA
HETATM   15  C   UNL     1      40.119 -11.799   5.282  1.00  0.00     0.079 A 
HETATM   16  C   UNL     1      40.171 -10.440   4.690  1.00  0.00     0.075 C 
ENDBRANCH   6   9
ENDBRANCH   4   5
ENDBRANCH   1   4
BRANCH   1  17
HETATM   17  C   UNL     1      41.975 -16.455   2.634  1.00  0.00     0.194 C 
HETATM   18  C   UNL     1      40.586 -16.849   2.122  1.00  0.00     0.041 C 
BRANCH  17  19
HETATM   19  C   UNL     1      43.091 -17.571   2.539  1.00  0.00     0.007 C 
HETATM   20  C   UNL     1      42.470 -18.844   1.891  1.00  0.00     0.022 C 
HETATM   21  C   UNL     1      44.197 -17.141   1.538  1.00  0.00     0.022 C 
BRANCH  19  22
HETATM   22  C   UNL     1      43.686 -17.872   3.933  1.00  0.00    -0.048 A 
HETATM   23  C   UNL     1      43.680 -16.917   4.969  1.00  0.00     0.008 A 
HETATM   24  C   UNL     1      44.260 -17.186   6.213  1.00  0.00     0.001 A 
HETATM   25  C   UNL     1      44.857 -18.417   6.456  1.00  0.00     0.000 A 
HETATM   26  C   UNL     1      44.870 -19.381   5.457  1.00  0.00     0.001 A 
HETATM   27  C   UNL     1      44.294 -19.112   4.212  1.00  0.00     0.008 A 
ENDBRANCH  19  22
ENDBRANCH  17  19
ENDBRANCH   1  17
TORSDOF 6
ENDMDL
MODEL 9
REMARK VINA RESULT:      -7.2      2.512      3.557
REMARK  6 active torsions:
REMARK  status: ('A' for Active; 'I' for Inactive)
REMARK    1  A    between atoms: C_8  and  N_9 
REMARK       I    between atoms: N_9  and  C_10 
REMARK    2  A    between atoms: C_10  and  C_11 
REMARK    3  A    between atoms: C_11  and  N_12 
REMARK    4  A    between atoms: N_12  and  C_15 
REMARK    5  A    between atoms: C_15  and  C_16 
REMARK    6  A    between atoms: C_16  and  C_17 
ROOT
HETATM    1  N   UNL     1      42.468 -15.504   1.183  1.00  0.00    -0.062 N 
HETATM    2  H   UNL     1      41.842 -16.114   0.635  1.00  0.00     0.278 HD
HETATM    3  H   UNL     1      43.191 -15.232   0.495  1.00  0.00     0.278 HD
ENDROOT
BRANCH   1   4
HETATM    4  C   UNL     1      41.757 -14.204   1.516  1.00  0.00     0.335 C 
BRANCH   4   5
HETATM    5  C   UNL     1      40.422 -14.178   0.791  1.00  0.00     0.248 C 
HETATM    6  N   UNL     1      40.298 -13.836  -0.513  1.00  0.00    -0.322 N 
HETATM    7  H   UNL     1      39.331 -13.690  -0.789  1.00  0.00     0.169 HD
HETATM    8  O   UNL     1      39.409 -14.414   1.467  1.00  0.00    -0.271 OA
BRANCH   6   9
HETATM    9  C   UNL     1      41.234 -13.564  -1.494  1.00  0.00     0.085 A 
HETATM   10  C   UNL     1      41.440 -14.455  -2.534  1.00  0.00     0.052 A 
HETATM   11  C   UNL     1      40.833 -15.767  -2.873  1.00  0.00     0.072 C 
HETATM   12  N   UNL     1      42.381 -13.887  -3.345  1.00  0.00    -0.280 N 
HETATM   13  H   UNL     1      42.769 -14.247  -4.213  1.00  0.00     0.189 HD
HETATM   14  N   UNL     1      42.827 -12.713  -2.893  1.00  0.00    -0.177 NA
HETATM   15  C   UNL     1      42.192 -12.532  -1.730  1.00  0.00     0.079 A 
HETATM   16  C   UNL     1      42.650 -11.394  -0.897  1.00  0.00     0.075 C 
ENDBRANCH   6   9
ENDBRANCH   4   5
ENDBRANCH   1   4
BRANCH   1  17
HETATM   17  C   UNL     1      43.083 -16.278   2.325  1.00  0.00     0.194 C 
HETATM   18  C   UNL     1      43.315 -15.295   3.477  1.00  0.00     0.041 C 
BRANCH  17  19
HETATM   19  C   UNL     1      42.208 -17.550   2.666  1.00  0.00     0.007 C 
HETATM   20  C   UNL     1      41.315 -17.225   3.900  1.00  0.00     0.022 C 
HETATM   21  C   UNL     1      41.189 -17.821   1.526  1.00  0.00     0.022 C 
BRANCH  19  22
HETATM   22  C   UNL     1      43.105 -18.782   2.917  1.00  0.00    -0.048 A 
HETATM   23  C   UNL     1      43.314 -19.766   1.932  1.00  0.00     0.008 A 
HETATM   24  C   UNL     1      44.094 -20.899   2.185  1.00  0.00     0.001 A 
HETATM   25  C   UNL     1      44.688 -21.076   3.429  1.00  0.00     0.000 A 
HETATM   26  C   UNL     1      44.506 -20.118   4.418  1.00  0.00     0.001 A 
HETATM   27  C   UNL     1      43.724 -18.987   4.166  1.00  0.00     0.008 A 
ENDBRANCH  19  22
ENDBRANCH  17  19
ENDBRANCH   1  17
TORSDOF 6
ENDMDL
MODEL 10
REMARK VINA RESULT:      -7.0      2.520      3.835
REMARK  6 active torsions:
REMARK  status: ('A' for Active; 'I' for Inactive)
REMARK    1  A    between atoms: C_8  and  N_9 
REMARK       I    between atoms: N_9  and  C_10 
REMARK    2  A    between atoms: C_10  and  C_11 
REMARK    3  A    between atoms: C_11  and  N_12 
REMARK    4  A    between atoms: N_12  and  C_15 
REMARK    5  A    between atoms: C_15  and  C_16 
REMARK    6  A    between atoms: C_16  and  C_17 
ROOT
HETATM    1  N   UNL     1      41.152 -16.071   2.497  1.00  0.00    -0.062 N 
HETATM    2  H   UNL     1      41.425 -15.506   3.317  1.00  0.00     0.278 HD
HETATM    3  H   UNL     1      40.126 -16.153   2.600  1.00  0.00     0.278 HD
ENDROOT
BRANCH   1   4
HETATM    4  C   UNL     1      41.340 -15.258   1.228  1.00  0.00     0.335 C 
BRANCH   4   5
HETATM    5  C   UNL     1      39.974 -14.849   0.702  1.00  0.00     0.248 C 
HETATM    6  N   UNL     1      39.749 -14.528  -0.594  1.00  0.00    -0.322 N 
HETATM    7  H   UNL     1      38.837 -14.103  -0.739  1.00  0.00     0.169 HD
HETATM    8  O   UNL     1      39.060 -14.743   1.533  1.00  0.00    -0.271 OA
BRANCH   6   9
HETATM    9  C   UNL     1      40.552 -14.587  -1.718  1.00  0.00     0.085 A 
HETATM   10  C   UNL     1      41.570 -13.666  -1.902  1.00  0.00     0.052 A 
HETATM   11  C   UNL     1      42.044 -12.513  -1.095  1.00  0.00     0.072 C 
HETATM   12  N   UNL     1      42.196 -14.014  -3.065  1.00  0.00    -0.280 N 
HETATM   13  H   UNL     1      42.999 -13.574  -3.507  1.00  0.00     0.189 HD
HETATM   14  N   UNL     1      41.641 -15.068  -3.667  1.00  0.00    -0.177 NA
HETATM   15  C   UNL     1      40.595 -15.387  -2.899  1.00  0.00     0.079 A 
HETATM   16  C   UNL     1      39.663 -16.406  -3.442  1.00  0.00     0.075 C 
ENDBRANCH   6   9
ENDBRANCH   4   5
ENDBRANCH   1   4
BRANCH   1  17
HETATM   17  C   UNL     1      41.805 -17.431   2.560  1.00  0.00     0.194 C 
HETATM   18  C   UNL     1      41.531 -18.137   1.229  1.00  0.00     0.041 C 
BRANCH  17  19
HETATM   19  C   UNL     1      43.326 -17.295   2.971  1.00  0.00     0.007 C 
HETATM   20  C   UNL     1      44.166 -17.013   1.691  1.00  0.00     0.022 C 
HETATM   21  C   UNL     1      43.535 -16.027   3.844  1.00  0.00     0.022 C 
BRANCH  19  22
HETATM   22  C   UNL     1      43.812 -18.564   3.705  1.00  0.00    -0.048 A 
HETATM   23  C   UNL     1      44.301 -19.687   3.010  1.00  0.00     0.008 A 
HETATM   24  C   UNL     1      44.698 -20.848   3.683  1.00  0.00     0.001 A 
HETATM   25  C   UNL     1      44.619 -20.915   5.068  1.00  0.00     0.000 A 
HETATM   26  C   UNL     1      44.147 -19.820   5.782  1.00  0.00     0.001 A 
HETATM   27  C   UNL     1      43.748 -18.662   5.109  1.00  0.00     0.008 A 
ENDBRANCH  19  22
ENDBRANCH  17  19
ENDBRANCH   1  17
TORSDOF 6
ENDMDL
