MODEL 1
REMARK VINA RESULT:      -8.5      0.000      0.000
REMARK  4 active torsions:
REMARK  status: ('A' for Active; 'I' for Inactive)
REMARK    1  A    between atoms: C_6  and  C_7 
REMARK    2  A    between atoms: C_7  and  C_8 
REMARK    3  A    between atoms: C_18  and  N_19 
REMARK    4  A    between atoms: C_21  and  C_22 
ROOT
HETATM    1  C   UNL     1      44.908 -18.415   5.854  1.00  0.00     0.049 C 
HETATM    2  C   UNL     1      44.244 -18.785   4.558  1.00  0.00    -0.044 A 
HETATM    3  C   UNL     1      43.378 -17.923   3.828  1.00  0.00     0.033 A 
HETATM    4  C   UNL     1      42.833 -18.436   2.655  1.00  0.00     0.112 A 
HETATM    5  S   UNL     1      41.795 -17.349   1.860  1.00  0.00    -0.063 SA
HETATM    6  C   UNL     1      41.998 -16.157   3.068  1.00  0.00     0.085 A 
HETATM    7  C   UNL     1      42.909 -16.573   4.025  1.00  0.00     0.060 A 
HETATM    8  N   UNL     1      43.047 -19.653   2.117  1.00  0.00    -0.236 NA
HETATM    9  C   UNL     1      43.891 -20.448   2.814  1.00  0.00     0.142 A 
HETATM   10  C   UNL     1      44.495 -20.054   4.009  1.00  0.00     0.044 A 
ENDROOT
BRANCH   6  11
HETATM   11  C   UNL     1      41.349 -14.856   2.978  1.00  0.00     0.201 C 
HETATM   12  O   UNL     1      41.533 -13.966   3.812  1.00  0.00    -0.286 OA
BRANCH  11  13
HETATM   13  C   UNL     1      40.393 -14.541   1.880  1.00  0.00     0.018 A 
HETATM   14  C   UNL     1      40.910 -14.048   0.673  1.00  0.00     0.055 A 
HETATM   15  C   UNL     1      40.013 -13.723  -0.322  1.00  0.00     0.106 A 
HETATM   16  C   UNL     1      38.656 -13.862  -0.151  1.00  0.00     0.105 A 
HETATM   17  O   UNL     1      40.333 -13.237  -1.551  1.00  0.00    -0.323 OA
HETATM   18  O   UNL     1      37.953 -13.482  -1.251  1.00  0.00    -0.323 OA
HETATM   19  C   UNL     1      38.114 -14.328   1.029  1.00  0.00     0.040 A 
HETATM   20  C   UNL     1      39.021 -13.077  -2.131  1.00  0.00     0.352 A 
HETATM   21  C   UNL     1      38.997 -14.662   2.063  1.00  0.00     0.018 A 
ENDBRANCH  11  13
ENDBRANCH   6  11
BRANCH   7  22
HETATM   22  N   UNL     1      43.295 -15.769   5.048  1.00  0.00    -0.397 N 
HETATM   23  H   UNL     1      43.328 -16.169   5.991  1.00  0.00     0.156 HD
HETATM   24  H   UNL     1      43.021 -14.793   5.075  1.00  0.00     0.156 HD
ENDBRANCH   7  22
BRANCH   9  25
HETATM   25  C   UNL     1      44.203 -21.840   2.277  1.00  0.00     0.434 C 
HETATM   26  F   UNL     1      44.260 -22.814   3.227  1.00  0.00    -0.165 F 
HETATM   27  F   UNL     1      43.280 -22.263   1.364  1.00  0.00    -0.165 F 
HETATM   28  F   UNL     1      45.403 -21.888   1.625  1.00  0.00    -0.165 F 
ENDBRANCH   9  25
TORSDOF 4
ENDMDL
MODEL 2
REMARK VINA RESULT:      -8.5      3.106      4.050
REMARK  4 active torsions:
REMARK  status: ('A' for Active; 'I' for Inactive)
REMARK    1  A    between atoms: C_6  and  C_7 
REMARK    2  A    between atoms: C_7  and  C_8 
REMARK    3  A    between atoms: C_18  and  N_19 
REMARK    4  A    between atoms: C_21  and  C_22 
ROOT
HETATM    1  C   UNL     1      44.346 -19.232   6.599  1.00  0.00     0.049 C 
HETATM    2  C   UNL     1      44.149 -19.204   5.108  1.00  0.00    -0.044 A 
HETATM    3  C   UNL     1      43.824 -18.035   4.366  1.00  0.00     0.033 A 
HETATM    4  C   UNL     1      43.659 -18.195   2.994  1.00  0.00     0.112 A 
HETATM    5  S   UNL     1      43.251 -16.753   2.190  1.00  0.00    -0.063 SA
HETATM    6  C   UNL     1      43.240 -15.858   3.646  1.00  0.00     0.085 A 
HETATM    7  C   UNL     1      43.617 -16.651   4.717  1.00  0.00     0.060 A 
HETATM    8  N   UNL     1      43.791 -19.330   2.280  1.00  0.00    -0.236 NA
HETATM    9  C   UNL     1      44.124 -20.425   3.001  1.00  0.00     0.142 A 
HETATM   10  C   UNL     1      44.308 -20.399   4.385  1.00  0.00     0.044 A 
ENDROOT
BRANCH   6  11
HETATM   11  C   UNL     1      42.967 -14.427   3.664  1.00  0.00     0.201 C 
HETATM   12  O   UNL     1      43.642 -13.616   3.027  1.00  0.00    -0.286 OA
BRANCH  11  13
HETATM   13  C   UNL     1      41.865 -13.860   4.491  1.00  0.00     0.018 A 
HETATM   14  C   UNL     1      42.134 -12.719   5.261  1.00  0.00     0.055 A 
HETATM   15  C   UNL     1      41.119 -12.225   6.052  1.00  0.00     0.106 A 
HETATM   16  C   UNL     1      39.882 -12.824   6.103  1.00  0.00     0.105 A 
HETATM   17  O   UNL     1      41.199 -11.133   6.857  1.00  0.00    -0.323 OA
HETATM   18  O   UNL     1      39.030 -12.183   6.946  1.00  0.00    -0.323 OA
HETATM   19  C   UNL     1      39.589 -13.956   5.372  1.00  0.00     0.040 A 
HETATM   20  C   UNL     1      39.874 -11.117   7.429  1.00  0.00     0.352 A 
HETATM   21  C   UNL     1      40.600 -14.487   4.562  1.00  0.00     0.018 A 
ENDBRANCH  11  13
ENDBRANCH   6  11
BRANCH   7  22
HETATM   22  N   UNL     1      43.757 -16.148   5.970  1.00  0.00    -0.397 N 
HETATM   23  H   UNL     1      44.435 -16.595   6.596  1.00  0.00     0.156 HD
HETATM   24  H   UNL     1      42.956 -15.803   6.486  1.00  0.00     0.156 HD
ENDBRANCH   7  22
BRANCH   9  25
HETATM   25  C   UNL     1      44.307 -21.755   2.279  1.00  0.00     0.434 C 
HETATM   26  F   UNL     1      45.358 -21.789   1.413  1.00  0.00    -0.165 F 
HETATM   27  F   UNL     1      44.503 -22.793   3.144  1.00  0.00    -0.165 F 
HETATM   28  F   UNL     1      43.209 -22.101   1.543  1.00  0.00    -0.165 F 
ENDBRANCH   9  25
TORSDOF 4
ENDMDL
MODEL 3
REMARK VINA RESULT:      -8.4      1.193      1.688
REMARK  4 active torsions:
REMARK  status: ('A' for Active; 'I' for Inactive)
REMARK    1  A    between atoms: C_6  and  C_7 
REMARK    2  A    between atoms: C_7  and  C_8 
REMARK    3  A    between atoms: C_18  and  N_19 
REMARK    4  A    between atoms: C_21  and  C_22 
ROOT
HETATM    1  C   UNL     1      45.001 -18.520   5.984  1.00  0.00     0.049 C 
HETATM    2  C   UNL     1      44.318 -18.860   4.689  1.00  0.00    -0.044 A 
HETATM    3  C   UNL     1      43.397 -18.005   4.023  1.00  0.00     0.033 A 
HETATM    4  C   UNL     1      42.842 -18.488   2.841  1.00  0.00     0.112 A 
HETATM    5  S   UNL     1      41.738 -17.412   2.124  1.00  0.00    -0.063 SA
HETATM    6  C   UNL     1      41.923 -16.269   3.381  1.00  0.00     0.085 A 
HETATM    7  C   UNL     1      42.876 -16.687   4.294  1.00  0.00     0.060 A 
HETATM    8  N   UNL     1      43.093 -19.668   2.241  1.00  0.00    -0.236 NA
HETATM    9  C   UNL     1      43.989 -20.456   2.879  1.00  0.00     0.142 A 
HETATM   10  C   UNL     1      44.608 -20.091   4.076  1.00  0.00     0.044 A 
ENDROOT
BRANCH   6  11
HETATM   11  C   UNL     1      41.216 -14.994   3.368  1.00  0.00     0.201 C 
HETATM   12  O   UNL     1      40.687 -14.521   4.377  1.00  0.00    -0.286 OA
BRANCH  11  13
HETATM   13  C   UNL     1      41.066 -14.204   2.115  1.00  0.00     0.018 A 
HETATM   14  C   UNL     1      42.110 -13.342   1.746  1.00  0.00     0.055 A 
HETATM   15  C   UNL     1      41.944 -12.587   0.605  1.00  0.00     0.106 A 
HETATM   16  C   UNL     1      40.797 -12.656  -0.151  1.00  0.00     0.105 A 
HETATM   17  O   UNL     1      42.846 -11.705   0.099  1.00  0.00    -0.323 OA
HETATM   18  O   UNL     1      40.836 -11.828  -1.229  1.00  0.00    -0.323 OA
HETATM   19  C   UNL     1      39.746 -13.480   0.192  1.00  0.00     0.040 A 
HETATM   20  C   UNL     1      42.134 -11.220  -1.059  1.00  0.00     0.352 A 
HETATM   21  C   UNL     1      39.880 -14.257   1.349  1.00  0.00     0.018 A 
ENDBRANCH  11  13
ENDBRANCH   6  11
BRANCH   7  22
HETATM   22  N   UNL     1      43.255 -15.914   5.343  1.00  0.00    -0.397 N 
HETATM   23  H   UNL     1      42.633 -15.865   6.156  1.00  0.00     0.156 HD
HETATM   24  H   UNL     1      43.732 -15.032   5.195  1.00  0.00     0.156 HD
ENDBRANCH   7  22
BRANCH   9  25
HETATM   25  C   UNL     1      44.346 -21.807   2.270  1.00  0.00     0.434 C 
HETATM   26  F   UNL     1      43.444 -22.276   1.364  1.00  0.00    -0.165 F 
HETATM   27  F   UNL     1      45.548 -21.783   1.622  1.00  0.00    -0.165 F 
HETATM   28  F   UNL     1      44.465 -22.787   3.215  1.00  0.00    -0.165 F 
ENDBRANCH   9  25
TORSDOF 4
ENDMDL
MODEL 4
REMARK VINA RESULT:      -8.3      1.956      2.667
REMARK  4 active torsions:
REMARK  status: ('A' for Active; 'I' for Inactive)
REMARK    1  A    between atoms: C_6  and  C_7 
REMARK    2  A    between atoms: C_7  and  C_8 
REMARK    3  A    between atoms: C_18  and  N_19 
REMARK    4  A    between atoms: C_21  and  C_22 
ROOT
HETATM    1  C   UNL     1      42.086 -17.400   6.393  1.00  0.00     0.049 C 
HETATM    2  C   UNL     1      42.478 -17.884   5.024  1.00  0.00    -0.044 A 
HETATM    3  C   UNL     1      41.969 -17.345   3.810  1.00  0.00     0.033 A 
HETATM    4  C   UNL     1      42.426 -17.928   2.631  1.00  0.00     0.112 A 
HETATM    5  S   UNL     1      41.751 -17.238   1.231  1.00  0.00    -0.063 SA
HETATM    6  C   UNL     1      40.789 -16.156   2.139  1.00  0.00     0.085 A 
HETATM    7  C   UNL     1      41.046 -16.283   3.494  1.00  0.00     0.060 A 
HETATM    8  N   UNL     1      43.314 -18.933   2.506  1.00  0.00    -0.236 NA
HETATM    9  C   UNL     1      43.803 -19.415   3.672  1.00  0.00     0.142 A 
HETATM   10  C   UNL     1      43.418 -18.924   4.921  1.00  0.00     0.044 A 
ENDROOT
BRANCH   6  11
HETATM   11  C   UNL     1      39.917 -15.182   1.496  1.00  0.00     0.201 C 
HETATM   12  O   UNL     1      38.721 -15.077   1.779  1.00  0.00    -0.286 OA
BRANCH  11  13
HETATM   13  C   UNL     1      40.422 -14.275   0.428  1.00  0.00     0.018 A 
HETATM   14  C   UNL     1      41.447 -13.374   0.755  1.00  0.00     0.055 A 
HETATM   15  C   UNL     1      41.880 -12.513  -0.230  1.00  0.00     0.106 A 
HETATM   16  C   UNL     1      41.331 -12.516  -1.491  1.00  0.00     0.105 A 
HETATM   17  O   UNL     1      42.860 -11.579  -0.094  1.00  0.00    -0.323 OA
HETATM   18  O   UNL     1      41.898 -11.587  -2.306  1.00  0.00    -0.323 OA
HETATM   19  C   UNL     1      40.312 -13.377  -1.840  1.00  0.00     0.040 A 
HETATM   20  C   UNL     1      42.860 -10.990  -1.411  1.00  0.00     0.352 A 
HETATM   21  C   UNL     1      39.844 -14.262  -0.861  1.00  0.00     0.018 A 
ENDBRANCH  11  13
ENDBRANCH   6  11
BRANCH   7  22
HETATM   22  N   UNL     1      40.460 -15.477   4.415  1.00  0.00    -0.397 N 
HETATM   23  H   UNL     1      39.684 -15.859   4.966  1.00  0.00     0.156 HD
HETATM   24  H   UNL     1      40.327 -14.489   4.234  1.00  0.00     0.156 HD
ENDBRANCH   7  22
BRANCH   9  25
HETATM   25  C   UNL     1      44.823 -20.547   3.631  1.00  0.00     0.434 C 
HETATM   26  F   UNL     1      45.440 -20.711   2.427  1.00  0.00    -0.165 F 
HETATM   27  F   UNL     1      45.825 -20.376   4.543  1.00  0.00    -0.165 F 
HETATM   28  F   UNL     1      44.266 -21.759   3.930  1.00  0.00    -0.165 F 
ENDBRANCH   9  25
TORSDOF 4
ENDMDL
MODEL 5
REMARK VINA RESULT:      -8.3      3.868      4.300
REMARK  4 active torsions:
REMARK  status: ('A' for Active; 'I' for Inactive)
REMARK    1  A    between atoms: C_6  and  C_7 
REMARK    2  A    between atoms: C_7  and  C_8 
REMARK    3  A    between atoms: C_18  and  N_19 
REMARK    4  A    between atoms: C_21  and  C_22 
ROOT
HETATM    1  C   UNL     1      43.742 -18.507   1.398  1.00  0.00     0.049 C 
HETATM    2  C   UNL     1      43.961 -18.975   2.810  1.00  0.00    -0.044 A 
HETATM    3  C   UNL     1      43.884 -18.131   3.953  1.00  0.00     0.033 A 
HETATM    4  C   UNL     1      44.135 -18.728   5.185  1.00  0.00     0.112 A 
HETATM    5  S   UNL     1      44.043 -17.644   6.492  1.00  0.00    -0.063 SA
HETATM    6  C   UNL     1      43.701 -16.321   5.466  1.00  0.00     0.085 A 
HETATM    7  C   UNL     1      43.590 -16.733   4.148  1.00  0.00     0.060 A 
HETATM    8  N   UNL     1      44.424 -20.022   5.424  1.00  0.00    -0.236 NA
HETATM    9  C   UNL     1      44.469 -20.812   4.326  1.00  0.00     0.142 A 
HETATM   10  C   UNL     1      44.246 -20.333   3.034  1.00  0.00     0.044 A 
ENDROOT
BRANCH   6  11
HETATM   11  C   UNL     1      43.463 -14.983   5.992  1.00  0.00     0.201 C 
HETATM   12  O   UNL     1      44.306 -14.372   6.651  1.00  0.00    -0.286 OA
BRANCH  11  13
HETATM   13  C   UNL     1      42.159 -14.291   5.788  1.00  0.00     0.018 A 
HETATM   14  C   UNL     1      42.165 -12.894   5.662  1.00  0.00     0.055 A 
HETATM   15  C   UNL     1      40.950 -12.260   5.512  1.00  0.00     0.106 A 
HETATM   16  C   UNL     1      39.764 -12.957   5.495  1.00  0.00     0.105 A 
HETATM   17  O   UNL     1      40.765 -10.920   5.375  1.00  0.00    -0.323 OA
HETATM   18  O   UNL     1      38.687 -12.142   5.342  1.00  0.00    -0.323 OA
HETATM   19  C   UNL     1      39.723 -14.328   5.632  1.00  0.00     0.040 A 
HETATM   20  C   UNL     1      39.327 -10.851   5.277  1.00  0.00     0.352 A 
HETATM   21  C   UNL     1      40.939 -15.003   5.792  1.00  0.00     0.018 A 
ENDBRANCH  11  13
ENDBRANCH   6  11
BRANCH   7  22
HETATM   22  N   UNL     1      43.247 -15.875   3.153  1.00  0.00    -0.397 N 
HETATM   23  H   UNL     1      42.598 -16.207   2.432  1.00  0.00     0.156 HD
HETATM   24  H   UNL     1      43.926 -15.230   2.764  1.00  0.00     0.156 HD
ENDBRANCH   7  22
BRANCH   9  25
HETATM   25  C   UNL     1      44.778 -22.295   4.498  1.00  0.00     0.434 C 
HETATM   26  F   UNL     1      44.933 -22.980   3.331  1.00  0.00    -0.165 F 
HETATM   27  F   UNL     1      45.925 -22.506   5.209  1.00  0.00    -0.165 F 
HETATM   28  F   UNL     1      43.799 -22.952   5.188  1.00  0.00    -0.165 F 
ENDBRANCH   9  25
TORSDOF 4
ENDMDL
MODEL 6
REMARK VINA RESULT:      -8.2      1.378      1.697
REMARK  4 active torsions:
REMARK  status: ('A' for Active; 'I' for Inactive)
REMARK    1  A    between atoms: C_6  and  C_7 
REMARK    2  A    between atoms: C_7  and  C_8 
REMARK    3  A    between atoms: C_18  and  N_19 
REMARK    4  A    between atoms: C_21  and  C_22 
ROOT
HETATM    1  C   UNL     1      43.987 -18.235   7.522  1.00  0.00     0.049 C 
HETATM    2  C   UNL     1      44.043 -18.781   6.122  1.00  0.00    -0.044 A 
HETATM    3  C   UNL     1      43.792 -18.011   4.952  1.00  0.00     0.033 A 
HETATM    4  C   UNL     1      43.869 -18.683   3.736  1.00  0.00     0.112 A 
HETATM    5  S   UNL     1      43.534 -17.693   2.395  1.00  0.00    -0.063 SA
HETATM    6  C   UNL     1      43.235 -16.331   3.382  1.00  0.00     0.085 A 
HETATM    7  C   UNL     1      43.463 -16.626   4.716  1.00  0.00     0.060 A 
HETATM    8  N   UNL     1      44.173 -19.980   3.536  1.00  0.00    -0.236 NA
HETATM    9  C   UNL     1      44.431 -20.689   4.659  1.00  0.00     0.142 A 
HETATM   10  C   UNL     1      44.379 -20.134   5.939  1.00  0.00     0.044 A 
ENDROOT
BRANCH   6  11
HETATM   11  C   UNL     1      42.894 -15.032   2.815  1.00  0.00     0.201 C 
HETATM   12  O   UNL     1      43.622 -14.045   2.938  1.00  0.00    -0.286 OA
BRANCH  11  13
HETATM   13  C   UNL     1      41.616 -14.820   2.078  1.00  0.00     0.018 A 
HETATM   14  C   UNL     1      41.670 -14.182   0.830  1.00  0.00     0.055 A 
HETATM   15  C   UNL     1      40.479 -13.956   0.175  1.00  0.00     0.106 A 
HETATM   16  C   UNL     1      39.271 -14.328   0.716  1.00  0.00     0.105 A 
HETATM   17  O   UNL     1      40.341 -13.356  -1.038  1.00  0.00    -0.323 OA
HETATM   18  O   UNL     1      38.222 -14.009  -0.089  1.00  0.00    -0.323 OA
HETATM   19  C   UNL     1      39.181 -14.941   1.947  1.00  0.00     0.040 A 
HETATM   20  C   UNL     1      38.907 -13.385  -1.195  1.00  0.00     0.352 A 
HETATM   21  C   UNL     1      40.372 -15.181   2.643  1.00  0.00     0.018 A 
ENDBRANCH  11  13
ENDBRANCH   6  11
BRANCH   7  22
HETATM   22  N   UNL     1      43.366 -15.684   5.688  1.00  0.00    -0.397 N 
HETATM   23  H   UNL     1      43.139 -14.724   5.409  1.00  0.00     0.156 HD
HETATM   24  H   UNL     1      43.988 -15.694   6.488  1.00  0.00     0.156 HD
ENDBRANCH   7  22
BRANCH   9  25
HETATM   25  C   UNL     1      44.797 -22.163   4.531  1.00  0.00     0.434 C 
HETATM   26  F   UNL     1      43.896 -23.021   5.087  1.00  0.00    -0.165 F 
HETATM   27  F   UNL     1      44.929 -22.554   3.229  1.00  0.00    -0.165 F 
HETATM   28  F   UNL     1      45.996 -22.453   5.119  1.00  0.00    -0.165 F 
ENDBRANCH   9  25
TORSDOF 4
ENDMDL
MODEL 7
REMARK VINA RESULT:      -8.2      2.771      3.815
REMARK  4 active torsions:
REMARK  status: ('A' for Active; 'I' for Inactive)
REMARK    1  A    between atoms: C_6  and  C_7 
REMARK    2  A    between atoms: C_7  and  C_8 
REMARK    3  A    between atoms: C_18  and  N_19 
REMARK    4  A    between atoms: C_21  and  C_22 
ROOT
HETATM    1  C   UNL     1      43.133 -19.722   2.082  1.00  0.00     0.049 C 
HETATM    2  C   UNL     1      43.037 -18.669   3.151  1.00  0.00    -0.044 A 
HETATM    3  C   UNL     1      42.211 -17.514   3.063  1.00  0.00     0.033 A 
HETATM    4  C   UNL     1      42.259 -16.631   4.138  1.00  0.00     0.112 A 
HETATM    5  S   UNL     1      41.260 -15.270   3.940  1.00  0.00    -0.063 SA
HETATM    6  C   UNL     1      40.747 -15.780   2.392  1.00  0.00     0.085 A 
HETATM    7  C   UNL     1      41.287 -17.016   2.074  1.00  0.00     0.060 A 
HETATM    8  N   UNL     1      42.985 -16.754   5.266  1.00  0.00    -0.236 NA
HETATM    9  C   UNL     1      43.746 -17.871   5.340  1.00  0.00     0.142 A 
HETATM   10  C   UNL     1      43.793 -18.829   4.325  1.00  0.00     0.044 A 
ENDROOT
BRANCH   6  11
HETATM   11  C   UNL     1      39.781 -15.016   1.613  1.00  0.00     0.201 C 
HETATM   12  O   UNL     1      38.566 -15.101   1.798  1.00  0.00    -0.286 OA
BRANCH  11  13
HETATM   13  C   UNL     1      40.218 -14.106   0.517  1.00  0.00     0.018 A 
HETATM   14  C   UNL     1      41.381 -13.345   0.711  1.00  0.00     0.055 A 
HETATM   15  C   UNL     1      41.754 -12.478  -0.293  1.00  0.00     0.106 A 
HETATM   16  C   UNL     1      41.017 -12.343  -1.446  1.00  0.00     0.105 A 
HETATM   17  O   UNL     1      42.846 -11.669  -0.278  1.00  0.00    -0.323 OA
HETATM   18  O   UNL     1      41.556 -11.433  -2.302  1.00  0.00    -0.323 OA
HETATM   19  C   UNL     1      39.861 -13.063  -1.661  1.00  0.00     0.040 A 
HETATM   20  C   UNL     1      42.710 -11.003  -1.551  1.00  0.00     0.352 A 
HETATM   21  C   UNL     1      39.450 -13.949  -0.659  1.00  0.00     0.018 A 
ENDBRANCH  11  13
ENDBRANCH   6  11
BRANCH   7  22
HETATM   22  N   UNL     1      40.966 -17.667   0.927  1.00  0.00    -0.397 N 
HETATM   23  H   UNL     1      41.725 -17.911   0.283  1.00  0.00     0.156 HD
HETATM   24  H   UNL     1      40.116 -17.445   0.422  1.00  0.00     0.156 HD
ENDBRANCH   7  22
BRANCH   9  25
HETATM   25  C   UNL     1      44.594 -18.104   6.585  1.00  0.00     0.434 C 
HETATM   26  F   UNL     1      44.349 -19.280   7.226  1.00  0.00    -0.165 F 
HETATM   27  F   UNL     1      45.932 -18.101   6.309  1.00  0.00    -0.165 F 
HETATM   28  F   UNL     1      44.418 -17.126   7.523  1.00  0.00    -0.165 F 
ENDBRANCH   9  25
TORSDOF 4
ENDMDL
MODEL 8
REMARK VINA RESULT:      -7.9      2.519      3.358
REMARK  4 active torsions:
REMARK  status: ('A' for Active; 'I' for Inactive)
REMARK    1  A    between atoms: C_6  and  C_7 
REMARK    2  A    between atoms: C_7  and  C_8 
REMARK    3  A    between atoms: C_18  and  N_19 
REMARK    4  A    between atoms: C_21  and  C_22 
ROOT
HETATM    1  C   UNL     1      43.716 -19.221   1.966  1.00  0.00     0.049 C 
HETATM    2  C   UNL     1      43.507 -18.307   3.141  1.00  0.00    -0.044 A 
HETATM    3  C   UNL     1      43.083 -16.953   3.036  1.00  0.00     0.033 A 
HETATM    4  C   UNL     1      42.960 -16.245   4.228  1.00  0.00     0.112 A 
HETATM    5  S   UNL     1      42.471 -14.632   4.009  1.00  0.00    -0.063 SA
HETATM    6  C   UNL     1      42.439 -14.796   2.308  1.00  0.00     0.085 A 
HETATM    7  C   UNL     1      42.732 -16.096   1.931  1.00  0.00     0.060 A 
HETATM    8  N   UNL     1      43.176 -16.702   5.477  1.00  0.00    -0.236 NA
HETATM    9  C   UNL     1      43.556 -17.998   5.556  1.00  0.00     0.142 A 
HETATM   10  C   UNL     1      43.725 -18.812   4.435  1.00  0.00     0.044 A 
ENDROOT
BRANCH   6  11
HETATM   11  C   UNL     1      42.042 -13.696   1.439  1.00  0.00     0.201 C 
HETATM   12  O   UNL     1      42.644 -12.620   1.415  1.00  0.00    -0.286 OA
BRANCH  11  13
HETATM   13  C   UNL     1      40.853 -13.804   0.547  1.00  0.00     0.018 A 
HETATM   14  C   UNL     1      41.050 -13.678  -0.837  1.00  0.00     0.055 A 
HETATM   15  C   UNL     1      39.938 -13.740  -1.649  1.00  0.00     0.106 A 
HETATM   16  C   UNL     1      38.673 -13.910  -1.138  1.00  0.00     0.105 A 
HETATM   17  O   UNL     1      39.940 -13.640  -3.005  1.00  0.00    -0.323 OA
HETATM   18  O   UNL     1      37.721 -13.939  -2.108  1.00  0.00    -0.323 OA
HETATM   19  C   UNL     1      38.444 -14.020   0.218  1.00  0.00     0.040 A 
HETATM   20  C   UNL     1      38.530 -13.758  -3.289  1.00  0.00     0.352 A 
HETATM   21  C   UNL     1      39.550 -13.955   1.072  1.00  0.00     0.018 A 
ENDBRANCH  11  13
ENDBRANCH   6  11
BRANCH   7  22
HETATM   22  N   UNL     1      42.694 -16.494   0.634  1.00  0.00    -0.397 N 
HETATM   23  H   UNL     1      42.977 -15.821  -0.086  1.00  0.00     0.156 HD
HETATM   24  H   UNL     1      41.956 -17.101   0.295  1.00  0.00     0.156 HD
ENDBRANCH   7  22
BRANCH   9  25
HETATM   25  C   UNL     1      43.813 -18.608   6.930  1.00  0.00     0.434 C 
HETATM   26  F   UNL     1      43.017 -18.123   7.923  1.00  0.00    -0.165 F 
HETATM   27  F   UNL     1      43.635 -19.962   6.938  1.00  0.00    -0.165 F 
HETATM   28  F   UNL     1      45.097 -18.410   7.353  1.00  0.00    -0.165 F 
ENDBRANCH   9  25
TORSDOF 4
ENDMDL
MODEL 9
REMARK VINA RESULT:      -7.8      4.874      8.097
REMARK  4 active torsions:
REMARK  status: ('A' for Active; 'I' for Inactive)
REMARK    1  A    between atoms: C_6  and  C_7 
REMARK    2  A    between atoms: C_7  and  C_8 
REMARK    3  A    between atoms: C_18  and  N_19 
REMARK    4  A    between atoms: C_21  and  C_22 
ROOT
HETATM    1  C   UNL     1      40.400 -11.998   4.820  1.00  0.00     0.049 C 
HETATM    2  C   UNL     1      40.161 -13.153   3.888  1.00  0.00    -0.044 A 
HETATM    3  C   UNL     1      40.861 -14.390   3.953  1.00  0.00     0.033 A 
HETATM    4  C   UNL     1      40.526 -15.345   2.998  1.00  0.00     0.112 A 
HETATM    5  S   UNL     1      41.425 -16.782   3.134  1.00  0.00    -0.063 SA
HETATM    6  C   UNL     1      42.329 -16.177   4.452  1.00  0.00     0.085 A 
HETATM    7  C   UNL     1      41.888 -14.917   4.818  1.00  0.00     0.060 A 
HETATM    8  N   UNL     1      39.596 -15.242   2.028  1.00  0.00    -0.236 NA
HETATM    9  C   UNL     1      38.926 -14.067   1.999  1.00  0.00     0.142 A 
HETATM   10  C   UNL     1      39.175 -13.025   2.895  1.00  0.00     0.044 A 
ENDROOT
BRANCH   6  11
HETATM   11  C   UNL     1      43.343 -16.983   5.121  1.00  0.00     0.201 C 
HETATM   12  O   UNL     1      43.956 -16.584   6.113  1.00  0.00    -0.286 OA
BRANCH  11  13
HETATM   13  C   UNL     1      43.720 -18.332   4.613  1.00  0.00     0.018 A 
HETATM   14  C   UNL     1      43.931 -19.356   5.548  1.00  0.00     0.055 A 
HETATM   15  C   UNL     1      44.317 -20.590   5.070  1.00  0.00     0.106 A 
HETATM   16  C   UNL     1      44.502 -20.823   3.727  1.00  0.00     0.105 A 
HETATM   17  O   UNL     1      44.563 -21.693   5.826  1.00  0.00    -0.323 OA
HETATM   18  O   UNL     1      44.886 -22.102   3.472  1.00  0.00    -0.323 OA
HETATM   19  C   UNL     1      44.319 -19.834   2.784  1.00  0.00     0.040 A 
HETATM   20  C   UNL     1      44.932 -22.645   4.807  1.00  0.00     0.352 A 
HETATM   21  C   UNL     1      43.933 -18.567   3.236  1.00  0.00     0.018 A 
ENDBRANCH  11  13
ENDBRANCH   6  11
BRANCH   7  22
HETATM   22  N   UNL     1      42.400 -14.258   5.889  1.00  0.00    -0.397 N 
HETATM   23  H   UNL     1      42.388 -13.234   5.876  1.00  0.00     0.156 HD
HETATM   24  H   UNL     1      43.220 -14.607   6.372  1.00  0.00     0.156 HD
ENDBRANCH   7  22
BRANCH   9  25
HETATM   25  C   UNL     1      37.846 -13.861   0.943  1.00  0.00     0.434 C 
HETATM   26  F   UNL     1      36.819 -14.754   1.000  1.00  0.00    -0.165 F 
HETATM   27  F   UNL     1      37.270 -12.625   1.024  1.00  0.00    -0.165 F 
HETATM   28  F   UNL     1      38.341 -13.945  -0.328  1.00  0.00    -0.165 F 
ENDBRANCH   9  25
TORSDOF 4
ENDMDL
MODEL 10
REMARK VINA RESULT:      -7.7      3.822      4.022
REMARK  4 active torsions:
REMARK  status: ('A' for Active; 'I' for Inactive)
REMARK    1  A    between atoms: C_6  and  C_7 
REMARK    2  A    between atoms: C_7  and  C_8 
REMARK    3  A    between atoms: C_18  and  N_19 
REMARK    4  A    between atoms: C_21  and  C_22 
ROOT
HETATM    1  C   UNL     1      44.069 -19.058   7.097  1.00  0.00     0.049 C 
HETATM    2  C   UNL     1      43.826 -18.515   5.716  1.00  0.00    -0.044 A 
HETATM    3  C   UNL     1      43.504 -17.157   5.436  1.00  0.00     0.033 A 
HETATM    4  C   UNL     1      43.292 -16.831   4.100  1.00  0.00     0.112 A 
HETATM    5  S   UNL     1      42.891 -15.197   3.859  1.00  0.00    -0.063 SA
HETATM    6  C   UNL     1      42.945 -14.860   5.533  1.00  0.00     0.085 A 
HETATM    7  C   UNL     1      43.337 -15.979   6.250  1.00  0.00     0.060 A 
HETATM    8  N   UNL     1      43.377 -17.651   3.034  1.00  0.00    -0.236 NA
HETATM    9  C   UNL     1      43.708 -18.931   3.320  1.00  0.00     0.142 A 
HETATM   10  C   UNL     1      43.937 -19.387   4.619  1.00  0.00     0.044 A 
ENDROOT
BRANCH   6  11
HETATM   11  C   UNL     1      42.703 -13.522   6.055  1.00  0.00     0.201 C 
HETATM   12  O   UNL     1      43.494 -12.953   6.810  1.00  0.00    -0.286 OA
BRANCH  11  13
HETATM   13  C   UNL     1      41.456 -12.775   5.726  1.00  0.00     0.018 A 
HETATM   14  C   UNL     1      41.574 -11.444   5.300  1.00  0.00     0.055 A 
HETATM   15  C   UNL     1      40.413 -10.751   5.035  1.00  0.00     0.106 A 
HETATM   16  C   UNL     1      39.173 -11.326   5.188  1.00  0.00     0.105 A 
HETATM   17  O   UNL     1      40.337  -9.460   4.613  1.00  0.00    -0.323 OA
HETATM   18  O   UNL     1      38.163 -10.470   4.879  1.00  0.00    -0.323 OA
HETATM   19  C   UNL     1      39.021 -12.627   5.620  1.00  0.00     0.040 A 
HETATM   20  C   UNL     1      38.907  -9.286   4.525  1.00  0.00     0.352 A 
HETATM   21  C   UNL     1      40.181 -13.357   5.903  1.00  0.00     0.018 A 
ENDBRANCH  11  13
ENDBRANCH   6  11
BRANCH   7  22
HETATM   22  N   UNL     1      43.528 -15.941   7.594  1.00  0.00    -0.397 N 
HETATM   23  H   UNL     1      42.924 -15.327   8.150  1.00  0.00     0.156 HD
HETATM   24  H   UNL     1      44.460 -15.992   7.990  1.00  0.00     0.156 HD
ENDBRANCH   7  22
BRANCH   9  25
HETATM   25  C   UNL     1      43.840 -19.931   2.177  1.00  0.00     0.434 C 
HETATM   26  F   UNL     1      44.886 -20.794   2.296  1.00  0.00    -0.165 F 
HETATM   27  F   UNL     1      42.727 -20.711   2.039  1.00  0.00    -0.165 F 
HETATM   28  F   UNL     1      44.001 -19.317   0.966  1.00  0.00    -0.165 F 
ENDBRANCH   9  25
TORSDOF 4
ENDMDL
