MODEL 1
REMARK VINA RESULT:      -8.1      0.000      0.000
REMARK  4 active torsions:
REMARK  status: ('A' for Active; 'I' for Inactive)
REMARK    1  A    between atoms: C_2  and  C_3 
REMARK    2  A    between atoms: C_8  and  C_9 
REMARK       I    between atoms: C_9  and  N_10 
REMARK    3  A    between atoms: C_20  and  C_21 
REMARK    4  A    between atoms: C_23  and  O_24 
ROOT
HETATM    1  C   UNL     1      40.975 -15.041   0.451  1.00  0.00     0.258 C 
HETATM    2  N   UNL     1      41.165 -15.358   1.801  1.00  0.00    -0.340 N 
HETATM    3  C   UNL     1      41.127 -14.441   2.931  1.00  0.00     0.123 C 
HETATM    4  C   UNL     1      41.086 -15.342   4.195  1.00  0.00     0.221 C 
HETATM    5  N   UNL     1      42.204 -14.914   5.158  1.00  0.00    -0.064 N 
HETATM    6  H   UNL     1      42.170 -15.498   6.004  1.00  0.00     0.280 HD
HETATM    7  C   UNL     1      43.618 -14.995   4.600  1.00  0.00     0.236 C 
HETATM    8  C   UNL     1      43.636 -14.313   3.239  1.00  0.00     0.034 C 
HETATM    9  C   UNL     1      42.347 -13.496   3.040  1.00  0.00     0.014 C 
HETATM   10  C   UNL     1      42.149 -12.602   4.284  1.00  0.00     0.034 C 
HETATM   11  C   UNL     1      41.962 -13.456   5.547  1.00  0.00     0.236 C 
HETATM   12  C   UNL     1      41.043 -16.819   3.710  1.00  0.00     0.070 C 
HETATM   13  C   UNL     1      40.761 -16.695   2.204  1.00  0.00     0.138 C 
HETATM   14  O   UNL     1      41.155 -15.875  -0.430  1.00  0.00    -0.267 OA
ENDROOT
BRANCH   1  15
HETATM   15  C   UNL     1      40.362 -13.768   0.166  1.00  0.00     0.090 C 
HETATM   16  C   UNL     1      40.844 -12.591  -0.459  1.00  0.00     0.080 C 
HETATM   17  N   UNL     1      39.914 -11.624  -0.429  1.00  0.00    -0.132 NA
HETATM   18  O   UNL     1      38.769 -12.208   0.064  1.00  0.00    -0.217 OA
HETATM   19  C   UNL     1      39.027 -13.500   0.386  1.00  0.00     0.092 C 
HETATM   20  C   UNL     1      37.884 -14.307   0.857  1.00  0.00     0.080 C 
BRANCH  16  21
HETATM   21  C   UNL     1      42.175 -12.311  -1.069  1.00  0.00     0.058 C 
HETATM   22  C   UNL     1      42.384 -13.006  -2.407  1.00  0.00     0.011 C 
ENDBRANCH  16  21
ENDBRANCH   1  15
BRANCH  12  23
HETATM   23  C   UNL     1      42.164 -17.754   4.106  1.00  0.00    -0.048 A 
HETATM   24  C   UNL     1      42.281 -18.143   5.455  1.00  0.00     0.044 A 
HETATM   25  C   UNL     1      43.321 -18.977   5.856  1.00  0.00     0.066 A 
HETATM   26  C   UNL     1      44.252 -19.447   4.943  1.00  0.00     0.036 A 
HETATM   27  C   UNL     1      44.132 -19.102   3.600  1.00  0.00     0.003 A 
HETATM   28  C   UNL     1      43.095 -18.263   3.183  1.00  0.00     0.008 A 
BRANCH  25  29
HETATM   29  O   UNL     1      43.466 -19.348   7.157  1.00  0.00    -0.361 OA
HETATM   30  H   UNL     1      42.623 -19.694   7.493  1.00  0.00     0.217 HD
ENDBRANCH  25  29
ENDBRANCH  12  23
TORSDOF 4
ENDMDL
MODEL 2
REMARK VINA RESULT:      -8.0      0.936      1.305
REMARK  4 active torsions:
REMARK  status: ('A' for Active; 'I' for Inactive)
REMARK    1  A    between atoms: C_2  and  C_3 
REMARK    2  A    between atoms: C_8  and  C_9 
REMARK       I    between atoms: C_9  and  N_10 
REMARK    3  A    between atoms: C_20  and  C_21 
REMARK    4  A    between atoms: C_23  and  O_24 
ROOT
HETATM    1  C   UNL     1      41.061 -14.917   0.320  1.00  0.00     0.258 C 
HETATM    2  N   UNL     1      41.174 -15.239   1.677  1.00  0.00    -0.340 N 
HETATM    3  C   UNL     1      41.093 -14.324   2.805  1.00  0.00     0.123 C 
HETATM    4  C   UNL     1      40.969 -15.225   4.064  1.00  0.00     0.221 C 
HETATM    5  N   UNL     1      42.042 -14.819   5.085  1.00  0.00    -0.064 N 
HETATM    6  H   UNL     1      41.953 -15.404   5.927  1.00  0.00     0.280 HD
HETATM    7  C   UNL     1      43.482 -14.925   4.603  1.00  0.00     0.236 C 
HETATM    8  C   UNL     1      43.584 -14.243   3.246  1.00  0.00     0.034 C 
HETATM    9  C   UNL     1      42.323 -13.401   2.981  1.00  0.00     0.014 C 
HETATM   10  C   UNL     1      42.076 -12.505   4.215  1.00  0.00     0.034 C 
HETATM   11  C   UNL     1      41.807 -13.358   5.464  1.00  0.00     0.236 C 
HETATM   12  C   UNL     1      40.925 -16.701   3.574  1.00  0.00     0.070 C 
HETATM   13  C   UNL     1      40.725 -16.570   2.055  1.00  0.00     0.138 C 
HETATM   14  O   UNL     1      41.272 -15.753  -0.553  1.00  0.00    -0.267 OA
ENDROOT
BRANCH   1  15
HETATM   15  C   UNL     1      40.488 -13.633   0.006  1.00  0.00     0.090 C 
HETATM   16  C   UNL     1      41.023 -12.464  -0.591  1.00  0.00     0.080 C 
HETATM   17  N   UNL     1      40.111 -11.480  -0.607  1.00  0.00    -0.132 NA
HETATM   18  O   UNL     1      38.930 -12.044  -0.176  1.00  0.00    -0.217 OA
HETATM   19  C   UNL     1      39.147 -13.341   0.155  1.00  0.00     0.092 C 
HETATM   20  C   UNL     1      37.967 -14.128   0.564  1.00  0.00     0.080 C 
BRANCH  16  21
HETATM   21  C   UNL     1      42.389 -12.208  -1.129  1.00  0.00     0.058 C 
HETATM   22  C   UNL     1      42.651 -12.895  -2.462  1.00  0.00     0.011 C 
ENDBRANCH  16  21
ENDBRANCH   1  15
BRANCH  12  23
HETATM   23  C   UNL     1      42.006 -17.656   4.026  1.00  0.00    -0.048 A 
HETATM   24  C   UNL     1      42.876 -18.204   3.063  1.00  0.00     0.044 A 
HETATM   25  C   UNL     1      43.862 -19.111   3.443  1.00  0.00     0.066 A 
HETATM   26  C   UNL     1      44.014 -19.486   4.770  1.00  0.00     0.036 A 
HETATM   27  C   UNL     1      43.187 -18.928   5.739  1.00  0.00     0.003 A 
HETATM   28  C   UNL     1      42.191 -18.018   5.372  1.00  0.00     0.008 A 
BRANCH  25  29
HETATM   29  O   UNL     1      44.698 -19.669   2.527  1.00  0.00    -0.361 OA
HETATM   30  H   UNL     1      44.390 -19.454   1.631  1.00  0.00     0.217 HD
ENDBRANCH  25  29
ENDBRANCH  12  23
TORSDOF 4
ENDMDL
MODEL 3
REMARK VINA RESULT:      -7.8      1.151      2.371
REMARK  4 active torsions:
REMARK  status: ('A' for Active; 'I' for Inactive)
REMARK    1  A    between atoms: C_2  and  C_3 
REMARK    2  A    between atoms: C_8  and  C_9 
REMARK       I    between atoms: C_9  and  N_10 
REMARK    3  A    between atoms: C_20  and  C_21 
REMARK    4  A    between atoms: C_23  and  O_24 
ROOT
HETATM    1  C   UNL     1      41.082 -15.224  -0.016  1.00  0.00     0.258 C 
HETATM    2  N   UNL     1      41.150 -15.452   1.363  1.00  0.00    -0.340 N 
HETATM    3  C   UNL     1      41.018 -14.464   2.423  1.00  0.00     0.123 C 
HETATM    4  C   UNL     1      40.861 -15.280   3.735  1.00  0.00     0.221 C 
HETATM    5  N   UNL     1      41.892 -14.790   4.763  1.00  0.00    -0.064 N 
HETATM    6  H   UNL     1      41.781 -15.317   5.639  1.00  0.00     0.280 HD
HETATM    7  C   UNL     1      43.349 -14.907   4.338  1.00  0.00     0.236 C 
HETATM    8  C   UNL     1      43.491 -14.316   2.943  1.00  0.00     0.034 C 
HETATM    9  C   UNL     1      42.229 -13.513   2.577  1.00  0.00     0.014 C 
HETATM   10  C   UNL     1      41.928 -12.540   3.739  1.00  0.00     0.034 C 
HETATM   11  C   UNL     1      41.626 -13.310   5.033  1.00  0.00     0.236 C 
HETATM   12  C   UNL     1      40.853 -16.786   3.346  1.00  0.00     0.070 C 
HETATM   13  C   UNL     1      40.705 -16.761   1.815  1.00  0.00     0.138 C 
HETATM   14  O   UNL     1      41.334 -16.114  -0.822  1.00  0.00    -0.267 OA
ENDROOT
BRANCH   1  15
HETATM   15  C   UNL     1      40.504 -13.972  -0.436  1.00  0.00     0.090 C 
HETATM   16  C   UNL     1      39.214 -13.409  -0.270  1.00  0.00     0.080 C 
HETATM   17  N   UNL     1      39.125 -12.233  -0.910  1.00  0.00    -0.132 NA
HETATM   18  O   UNL     1      40.395 -11.941  -1.356  1.00  0.00    -0.217 OA
HETATM   19  C   UNL     1      41.227 -12.965  -1.040  1.00  0.00     0.092 C 
HETATM   20  C   UNL     1      42.654 -12.787  -1.373  1.00  0.00     0.080 C 
BRANCH  16  21
HETATM   21  C   UNL     1      38.023 -13.946   0.448  1.00  0.00     0.058 C 
HETATM   22  C   UNL     1      36.939 -12.904   0.682  1.00  0.00     0.011 C 
ENDBRANCH  16  21
ENDBRANCH   1  15
BRANCH  12  23
HETATM   23  C   UNL     1      41.929 -17.693   3.899  1.00  0.00    -0.048 A 
HETATM   24  C   UNL     1      42.845 -18.283   3.006  1.00  0.00     0.044 A 
HETATM   25  C   UNL     1      43.828 -19.147   3.481  1.00  0.00     0.066 A 
HETATM   26  C   UNL     1      43.932 -19.437   4.833  1.00  0.00     0.036 A 
HETATM   27  C   UNL     1      43.058 -18.835   5.733  1.00  0.00     0.003 A 
HETATM   28  C   UNL     1      42.064 -17.968   5.271  1.00  0.00     0.008 A 
BRANCH  25  29
HETATM   29  O   UNL     1      44.710 -19.746   2.635  1.00  0.00    -0.361 OA
HETATM   30  H   UNL     1      45.546 -19.913   3.101  1.00  0.00     0.217 HD
ENDBRANCH  25  29
ENDBRANCH  12  23
TORSDOF 4
ENDMDL
MODEL 4
REMARK VINA RESULT:      -7.6      2.885      5.315
REMARK  4 active torsions:
REMARK  status: ('A' for Active; 'I' for Inactive)
REMARK    1  A    between atoms: C_2  and  C_3 
REMARK    2  A    between atoms: C_8  and  C_9 
REMARK       I    between atoms: C_9  and  N_10 
REMARK    3  A    between atoms: C_20  and  C_21 
REMARK    4  A    between atoms: C_23  and  O_24 
ROOT
HETATM    1  C   UNL     1      40.063 -12.854  -0.935  1.00  0.00     0.258 C 
HETATM    2  N   UNL     1      40.720 -13.217   0.246  1.00  0.00    -0.340 N 
HETATM    3  C   UNL     1      41.385 -14.481   0.527  1.00  0.00     0.123 C 
HETATM    4  C   UNL     1      42.199 -14.241   1.827  1.00  0.00     0.221 C 
HETATM    5  N   UNL     1      41.853 -15.334   2.850  1.00  0.00    -0.064 N 
HETATM    6  H   UNL     1      42.402 -15.188   3.707  1.00  0.00     0.280 HD
HETATM    7  C   UNL     1      40.387 -15.415   3.253  1.00  0.00     0.236 C 
HETATM    8  C   UNL     1      39.542 -15.418   1.987  1.00  0.00     0.034 C 
HETATM    9  C   UNL     1      40.431 -15.677   0.757  1.00  0.00     0.014 C 
HETATM   10  C   UNL     1      41.294 -16.927   1.044  1.00  0.00     0.034 C 
HETATM   11  C   UNL     1      42.223 -16.686   2.243  1.00  0.00     0.236 C 
HETATM   12  C   UNL     1      42.002 -12.752   2.230  1.00  0.00     0.070 C 
HETATM   13  C   UNL     1      41.334 -12.130   0.992  1.00  0.00     0.138 C 
HETATM   14  O   UNL     1      39.427 -11.808  -1.015  1.00  0.00    -0.267 OA
ENDROOT
BRANCH   1  15
HETATM   15  C   UNL     1      40.340 -13.655  -2.101  1.00  0.00     0.090 C 
HETATM   16  C   UNL     1      39.533 -14.511  -2.890  1.00  0.00     0.080 C 
HETATM   17  N   UNL     1      40.264 -15.107  -3.844  1.00  0.00    -0.132 NA
HETATM   18  O   UNL     1      41.510 -14.522  -3.793  1.00  0.00    -0.217 OA
HETATM   19  C   UNL     1      41.545 -13.628  -2.774  1.00  0.00     0.092 C 
HETATM   20  C   UNL     1      42.786 -12.844  -2.620  1.00  0.00     0.080 C 
BRANCH  16  21
HETATM   21  C   UNL     1      38.082 -14.832  -2.770  1.00  0.00     0.058 C 
HETATM   22  C   UNL     1      37.368 -14.911  -4.112  1.00  0.00     0.011 C 
ENDBRANCH  16  21
ENDBRANCH   1  15
BRANCH  12  23
HETATM   23  C   UNL     1      41.368 -12.430   3.565  1.00  0.00    -0.048 A 
HETATM   24  C   UNL     1      40.010 -12.058   3.600  1.00  0.00     0.044 A 
HETATM   25  C   UNL     1      39.406 -11.726   4.810  1.00  0.00     0.066 A 
HETATM   26  C   UNL     1      40.120 -11.762   5.999  1.00  0.00     0.036 A 
HETATM   27  C   UNL     1      41.453 -12.162   5.986  1.00  0.00     0.003 A 
HETATM   28  C   UNL     1      42.074 -12.495   4.780  1.00  0.00     0.008 A 
BRANCH  25  29
HETATM   29  O   UNL     1      38.102 -11.342   4.866  1.00  0.00    -0.361 OA
HETATM   30  H   UNL     1      38.026 -10.408   4.608  1.00  0.00     0.217 HD
ENDBRANCH  25  29
ENDBRANCH  12  23
TORSDOF 4
ENDMDL
MODEL 5
REMARK VINA RESULT:      -7.5      0.807      2.031
REMARK  4 active torsions:
REMARK  status: ('A' for Active; 'I' for Inactive)
REMARK    1  A    between atoms: C_2  and  C_3 
REMARK    2  A    between atoms: C_8  and  C_9 
REMARK       I    between atoms: C_9  and  N_10 
REMARK    3  A    between atoms: C_20  and  C_21 
REMARK    4  A    between atoms: C_23  and  O_24 
ROOT
HETATM    1  C   UNL     1      41.307 -15.210   0.223  1.00  0.00     0.258 C 
HETATM    2  N   UNL     1      41.330 -15.348   1.615  1.00  0.00    -0.340 N 
HETATM    3  C   UNL     1      41.088 -14.307   2.604  1.00  0.00     0.123 C 
HETATM    4  C   UNL     1      40.926 -15.049   3.958  1.00  0.00     0.221 C 
HETATM    5  N   UNL     1      41.878 -14.429   4.992  1.00  0.00    -0.064 N 
HETATM    6  H   UNL     1      41.762 -14.908   5.895  1.00  0.00     0.280 HD
HETATM    7  C   UNL     1      43.357 -14.475   4.635  1.00  0.00     0.236 C 
HETATM    8  C   UNL     1      43.521 -13.963   3.210  1.00  0.00     0.034 C 
HETATM    9  C   UNL     1      42.228 -13.270   2.744  1.00  0.00     0.014 C 
HETATM   10  C   UNL     1      41.814 -12.249   3.828  1.00  0.00     0.034 C 
HETATM   11  C   UNL     1      41.505 -12.956   5.156  1.00  0.00     0.236 C 
HETATM   12  C   UNL     1      41.031 -16.573   3.666  1.00  0.00     0.070 C 
HETATM   13  C   UNL     1      40.949 -16.653   2.133  1.00  0.00     0.138 C 
HETATM   14  O   UNL     1      41.651 -16.129  -0.513  1.00  0.00    -0.267 OA
ENDROOT
BRANCH   1  15
HETATM   15  C   UNL     1      40.669 -14.028  -0.299  1.00  0.00     0.090 C 
HETATM   16  C   UNL     1      39.340 -13.544  -0.224  1.00  0.00     0.080 C 
HETATM   17  N   UNL     1      39.204 -12.418  -0.941  1.00  0.00    -0.132 NA
HETATM   18  O   UNL     1      40.472 -12.069  -1.350  1.00  0.00    -0.217 OA
HETATM   19  C   UNL     1      41.353 -13.013  -0.936  1.00  0.00     0.092 C 
HETATM   20  C   UNL     1      42.779 -12.760  -1.219  1.00  0.00     0.080 C 
BRANCH  16  21
HETATM   21  C   UNL     1      38.154 -14.116   0.477  1.00  0.00     0.058 C 
HETATM   22  C   UNL     1      37.065 -13.090   0.754  1.00  0.00     0.011 C 
ENDBRANCH  16  21
ENDBRANCH   1  15
BRANCH  12  23
HETATM   23  C   UNL     1      42.138 -17.371   4.319  1.00  0.00    -0.048 A 
HETATM   24  C   UNL     1      42.105 -17.564   5.714  1.00  0.00     0.044 A 
HETATM   25  C   UNL     1      43.126 -18.267   6.348  1.00  0.00     0.066 A 
HETATM   26  C   UNL     1      44.185 -18.795   5.626  1.00  0.00     0.036 A 
HETATM   27  C   UNL     1      44.216 -18.644   4.243  1.00  0.00     0.003 A 
HETATM   28  C   UNL     1      43.200 -17.939   3.593  1.00  0.00     0.008 A 
BRANCH  25  29
HETATM   29  O   UNL     1      43.126 -18.448   7.697  1.00  0.00    -0.361 OA
HETATM   30  H   UNL     1      43.307 -19.380   7.901  1.00  0.00     0.217 HD
ENDBRANCH  25  29
ENDBRANCH  12  23
TORSDOF 4
ENDMDL
MODEL 6
REMARK VINA RESULT:      -7.5      2.353      6.737
REMARK  4 active torsions:
REMARK  status: ('A' for Active; 'I' for Inactive)
REMARK    1  A    between atoms: C_2  and  C_3 
REMARK    2  A    between atoms: C_8  and  C_9 
REMARK       I    between atoms: C_9  and  N_10 
REMARK    3  A    between atoms: C_20  and  C_21 
REMARK    4  A    between atoms: C_23  and  O_24 
ROOT
HETATM    1  C   UNL     1      42.331 -14.918   4.854  1.00  0.00     0.258 C 
HETATM    2  N   UNL     1      42.011 -15.648   3.704  1.00  0.00    -0.340 N 
HETATM    3  C   UNL     1      42.245 -17.065   3.470  1.00  0.00     0.123 C 
HETATM    4  C   UNL     1      41.432 -17.416   2.194  1.00  0.00     0.221 C 
HETATM    5  N   UNL     1      42.355 -18.111   1.182  1.00  0.00    -0.064 N 
HETATM    6  H   UNL     1      41.816 -18.360   0.342  1.00  0.00     0.280 HD
HETATM    7  C   UNL     1      43.563 -17.303   0.731  1.00  0.00     0.236 C 
HETATM    8  C   UNL     1      44.256 -16.747   1.968  1.00  0.00     0.034 C 
HETATM    9  C   UNL     1      43.725 -17.447   3.232  1.00  0.00     0.014 C 
HETATM   10  C   UNL     1      43.793 -18.973   2.999  1.00  0.00     0.034 C 
HETATM   11  C   UNL     1      42.890 -19.389   1.828  1.00  0.00     0.236 C 
HETATM   12  C   UNL     1      40.679 -16.128   1.756  1.00  0.00     0.070 C 
HETATM   13  C   UNL     1      40.852 -15.183   2.957  1.00  0.00     0.138 C 
HETATM   14  O   UNL     1      42.203 -13.699   4.891  1.00  0.00    -0.267 OA
ENDROOT
BRANCH   1  15
HETATM   15  C   UNL     1      42.614 -15.680   6.044  1.00  0.00     0.090 C 
HETATM   16  C   UNL     1      43.704 -15.673   6.950  1.00  0.00     0.080 C 
HETATM   17  N   UNL     1      43.553 -16.628   7.880  1.00  0.00    -0.132 NA
HETATM   18  O   UNL     1      42.293 -17.153   7.691  1.00  0.00    -0.217 OA
HETATM   19  C   UNL     1      41.718 -16.560   6.616  1.00  0.00     0.092 C 
HETATM   20  C   UNL     1      40.325 -16.944   6.311  1.00  0.00     0.080 C 
BRANCH  16  21
HETATM   21  C   UNL     1      44.924 -14.817   6.968  1.00  0.00     0.058 C 
HETATM   22  C   UNL     1      44.727 -13.501   7.706  1.00  0.00     0.011 C 
ENDBRANCH  16  21
ENDBRANCH   1  15
BRANCH  12  23
HETATM   23  C   UNL     1      40.968 -15.537   0.394  1.00  0.00    -0.048 A 
HETATM   24  C   UNL     1      41.567 -14.265   0.318  1.00  0.00     0.044 A 
HETATM   25  C   UNL     1      41.817 -13.680  -0.921  1.00  0.00     0.066 A 
HETATM   26  C   UNL     1      41.492 -14.337  -2.099  1.00  0.00     0.036 A 
HETATM   27  C   UNL     1      40.932 -15.609  -2.043  1.00  0.00     0.003 A 
HETATM   28  C   UNL     1      40.673 -16.207  -0.807  1.00  0.00     0.008 A 
BRANCH  25  29
HETATM   29  O   UNL     1      42.375 -12.443  -1.019  1.00  0.00    -0.361 OA
HETATM   30  H   UNL     1      42.685 -12.156  -0.143  1.00  0.00     0.217 HD
ENDBRANCH  25  29
ENDBRANCH  12  23
TORSDOF 4
ENDMDL
MODEL 7
REMARK VINA RESULT:      -7.4      3.262      7.330
REMARK  4 active torsions:
REMARK  status: ('A' for Active; 'I' for Inactive)
REMARK    1  A    between atoms: C_2  and  C_3 
REMARK    2  A    between atoms: C_8  and  C_9 
REMARK       I    between atoms: C_9  and  N_10 
REMARK    3  A    between atoms: C_20  and  C_21 
REMARK    4  A    between atoms: C_23  and  O_24 
ROOT
HETATM    1  C   UNL     1      44.016 -18.440   6.169  1.00  0.00     0.258 C 
HETATM    2  N   UNL     1      42.917 -17.740   5.658  1.00  0.00    -0.340 N 
HETATM    3  C   UNL     1      42.116 -18.091   4.495  1.00  0.00     0.123 C 
HETATM    4  C   UNL     1      40.864 -17.175   4.560  1.00  0.00     0.221 C 
HETATM    5  N   UNL     1      40.699 -16.447   3.218  1.00  0.00    -0.064 N 
HETATM    6  H   UNL     1      39.861 -15.851   3.251  1.00  0.00     0.280 HD
HETATM    7  C   UNL     1      41.870 -15.569   2.799  1.00  0.00     0.236 C 
HETATM    8  C   UNL     1      43.152 -16.377   2.947  1.00  0.00     0.034 C 
HETATM    9  C   UNL     1      42.818 -17.868   3.134  1.00  0.00     0.014 C 
HETATM   10  C   UNL     1      41.837 -18.283   2.016  1.00  0.00     0.034 C 
HETATM   11  C   UNL     1      40.520 -17.500   2.125  1.00  0.00     0.236 C 
HETATM   12  C   UNL     1      40.976 -16.329   5.860  1.00  0.00     0.070 C 
HETATM   13  C   UNL     1      42.124 -17.003   6.630  1.00  0.00     0.138 C 
HETATM   14  O   UNL     1      44.694 -17.982   7.083  1.00  0.00    -0.267 OA
ENDROOT
BRANCH   1  15
HETATM   15  C   UNL     1      44.181 -19.799   5.719  1.00  0.00     0.090 C 
HETATM   16  C   UNL     1      44.706 -20.357   4.527  1.00  0.00     0.080 C 
HETATM   17  N   UNL     1      44.581 -21.693   4.533  1.00  0.00    -0.132 NA
HETATM   18  O   UNL     1      44.130 -22.030   5.790  1.00  0.00    -0.217 OA
HETATM   19  C   UNL     1      43.926 -20.900   6.511  1.00  0.00     0.092 C 
HETATM   20  C   UNL     1      43.516 -21.075   7.919  1.00  0.00     0.080 C 
BRANCH  16  21
HETATM   21  C   UNL     1      45.302 -19.681   3.339  1.00  0.00     0.058 C 
HETATM   22  C   UNL     1      44.979 -20.375   2.024  1.00  0.00     0.011 C 
ENDBRANCH  16  21
ENDBRANCH   1  15
BRANCH  12  23
HETATM   23  C   UNL     1      41.037 -14.822   5.752  1.00  0.00    -0.048 A 
HETATM   24  C   UNL     1      39.833 -14.099   5.641  1.00  0.00     0.044 A 
HETATM   25  C   UNL     1      39.858 -12.713   5.508  1.00  0.00     0.066 A 
HETATM   26  C   UNL     1      41.058 -12.019   5.490  1.00  0.00     0.036 A 
HETATM   27  C   UNL     1      42.255 -12.713   5.634  1.00  0.00     0.003 A 
HETATM   28  C   UNL     1      42.246 -14.104   5.766  1.00  0.00     0.008 A 
BRANCH  25  29
HETATM   29  O   UNL     1      38.709 -11.996   5.377  1.00  0.00    -0.361 OA
HETATM   30  H   UNL     1      38.766 -11.430   4.589  1.00  0.00     0.217 HD
ENDBRANCH  25  29
ENDBRANCH  12  23
TORSDOF 4
ENDMDL
MODEL 8
REMARK VINA RESULT:      -7.1      1.779      3.162
REMARK  4 active torsions:
REMARK  status: ('A' for Active; 'I' for Inactive)
REMARK    1  A    between atoms: C_2  and  C_3 
REMARK    2  A    between atoms: C_8  and  C_9 
REMARK       I    between atoms: C_9  and  N_10 
REMARK    3  A    between atoms: C_20  and  C_21 
REMARK    4  A    between atoms: C_23  and  O_24 
ROOT
HETATM    1  C   UNL     1      39.977 -13.149   2.714  1.00  0.00     0.258 C 
HETATM    2  N   UNL     1      41.038 -14.036   2.929  1.00  0.00    -0.340 N 
HETATM    3  C   UNL     1      41.748 -14.814   1.924  1.00  0.00     0.123 C 
HETATM    4  C   UNL     1      43.006 -15.372   2.644  1.00  0.00     0.221 C 
HETATM    5  N   UNL     1      43.073 -16.893   2.439  1.00  0.00    -0.064 N 
HETATM    6  H   UNL     1      43.914 -17.264   2.901  1.00  0.00     0.280 HD
HETATM    7  C   UNL     1      41.879 -17.679   2.960  1.00  0.00     0.236 C 
HETATM    8  C   UNL     1      40.608 -17.011   2.454  1.00  0.00     0.034 C 
HETATM    9  C   UNL     1      40.947 -16.003   1.341  1.00  0.00     0.014 C 
HETATM   10  C   UNL     1      41.841 -16.717   0.303  1.00  0.00     0.034 C 
HETATM   11  C   UNL     1      43.166 -17.166   0.939  1.00  0.00     0.236 C 
HETATM   12  C   UNL     1      42.995 -14.814   4.096  1.00  0.00     0.070 C 
HETATM   13  C   UNL     1      41.904 -13.730   4.056  1.00  0.00     0.138 C 
HETATM   14  O   UNL     1      39.371 -12.642   3.651  1.00  0.00    -0.267 OA
ENDROOT
BRANCH   1  15
HETATM   15  C   UNL     1      39.772 -12.703   1.358  1.00  0.00     0.090 C 
HETATM   16  C   UNL     1      40.549 -11.903   0.485  1.00  0.00     0.080 C 
HETATM   17  N   UNL     1      39.901 -11.696  -0.672  1.00  0.00    -0.132 NA
HETATM   18  O   UNL     1      38.777 -12.491  -0.629  1.00  0.00    -0.217 OA
HETATM   19  C   UNL     1      38.719 -13.121   0.571  1.00  0.00     0.092 C 
HETATM   20  C   UNL     1      37.615 -14.082   0.763  1.00  0.00     0.080 C 
BRANCH  16  21
HETATM   21  C   UNL     1      41.887 -11.280   0.698  1.00  0.00     0.058 C 
HETATM   22  C   UNL     1      42.594 -10.910  -0.598  1.00  0.00     0.011 C 
ENDBRANCH  16  21
ENDBRANCH   1  15
BRANCH  12  23
HETATM   23  C   UNL     1      42.932 -15.784   5.254  1.00  0.00    -0.048 A 
HETATM   24  C   UNL     1      44.098 -16.487   5.615  1.00  0.00     0.044 A 
HETATM   25  C   UNL     1      44.065 -17.411   6.657  1.00  0.00     0.066 A 
HETATM   26  C   UNL     1      42.895 -17.650   7.363  1.00  0.00     0.036 A 
HETATM   27  C   UNL     1      41.743 -16.938   7.043  1.00  0.00     0.003 A 
HETATM   28  C   UNL     1      41.760 -16.010   5.998  1.00  0.00     0.008 A 
BRANCH  25  29
HETATM   29  O   UNL     1      45.173 -18.118   7.009  1.00  0.00    -0.361 OA
HETATM   30  H   UNL     1      45.205 -18.946   6.502  1.00  0.00     0.217 HD
ENDBRANCH  25  29
ENDBRANCH  12  23
TORSDOF 4
ENDMDL
MODEL 9
REMARK VINA RESULT:      -7.1      2.715      6.825
REMARK  4 active torsions:
REMARK  status: ('A' for Active; 'I' for Inactive)
REMARK    1  A    between atoms: C_2  and  C_3 
REMARK    2  A    between atoms: C_8  and  C_9 
REMARK       I    between atoms: C_9  and  N_10 
REMARK    3  A    between atoms: C_20  and  C_21 
REMARK    4  A    between atoms: C_23  and  O_24 
ROOT
HETATM    1  C   UNL     1      43.055 -15.215   4.965  1.00  0.00     0.258 C 
HETATM    2  N   UNL     1      41.838 -14.621   4.616  1.00  0.00    -0.340 N 
HETATM    3  C   UNL     1      40.827 -15.155   3.714  1.00  0.00     0.123 C 
HETATM    4  C   UNL     1      39.571 -14.267   3.925  1.00  0.00     0.221 C 
HETATM    5  N   UNL     1      39.086 -13.745   2.564  1.00  0.00    -0.064 N 
HETATM    6  H   UNL     1      38.244 -13.169   2.698  1.00  0.00     0.280 HD
HETATM    7  C   UNL     1      40.093 -12.912   1.784  1.00  0.00     0.236 C 
HETATM    8  C   UNL     1      41.418 -13.661   1.758  1.00  0.00     0.034 C 
HETATM    9  C   UNL     1      41.211 -15.117   2.216  1.00  0.00     0.014 C 
HETATM   10  C   UNL     1      40.037 -15.711   1.407  1.00  0.00     0.034 C 
HETATM   11  C   UNL     1      38.734 -14.949   1.692  1.00  0.00     0.236 C 
HETATM   12  C   UNL     1      39.912 -13.239   5.041  1.00  0.00     0.070 C 
HETATM   13  C   UNL     1      41.232 -13.768   5.627  1.00  0.00     0.138 C 
HETATM   14  O   UNL     1      43.887 -14.615   5.637  1.00  0.00    -0.267 OA
ENDROOT
BRANCH   1  15
HETATM   15  C   UNL     1      43.193 -16.622   4.681  1.00  0.00     0.090 C 
HETATM   16  C   UNL     1      43.615 -17.329   3.528  1.00  0.00     0.080 C 
HETATM   17  N   UNL     1      43.504 -18.653   3.717  1.00  0.00    -0.132 NA
HETATM   18  O   UNL     1      43.169 -18.824   5.042  1.00  0.00    -0.217 OA
HETATM   19  C   UNL     1      43.019 -17.610   5.627  1.00  0.00     0.092 C 
HETATM   20  C   UNL     1      42.736 -17.602   7.076  1.00  0.00     0.080 C 
BRANCH  16  21
HETATM   21  C   UNL     1      44.098 -16.813   2.215  1.00  0.00     0.058 C 
HETATM   22  C   UNL     1      43.710 -17.698   1.039  1.00  0.00     0.011 C 
ENDBRANCH  16  21
ENDBRANCH   1  15
BRANCH  12  23
HETATM   23  C   UNL     1      39.870 -11.762   4.716  1.00  0.00    -0.048 A 
HETATM   24  C   UNL     1      41.078 -11.041   4.672  1.00  0.00     0.044 A 
HETATM   25  C   UNL     1      41.069  -9.674   4.406  1.00  0.00     0.066 A 
HETATM   26  C   UNL     1      39.880  -8.999   4.173  1.00  0.00     0.036 A 
HETATM   27  C   UNL     1      38.680  -9.703   4.178  1.00  0.00     0.003 A 
HETATM   28  C   UNL     1      38.673 -11.075   4.446  1.00  0.00     0.008 A 
BRANCH  25  29
HETATM   29  O   UNL     1      42.223  -8.952   4.380  1.00  0.00    -0.361 OA
HETATM   30  H   UNL     1      42.481  -8.784   3.458  1.00  0.00     0.217 HD
ENDBRANCH  25  29
ENDBRANCH  12  23
TORSDOF 4
ENDMDL
MODEL 10
REMARK VINA RESULT:      -7.0      2.922      4.949
REMARK  4 active torsions:
REMARK  status: ('A' for Active; 'I' for Inactive)
REMARK    1  A    between atoms: C_2  and  C_3 
REMARK    2  A    between atoms: C_8  and  C_9 
REMARK       I    between atoms: C_9  and  N_10 
REMARK    3  A    between atoms: C_20  and  C_21 
REMARK    4  A    between atoms: C_23  and  O_24 
ROOT
HETATM    1  C   UNL     1      39.989 -12.565  -0.834  1.00  0.00     0.258 C 
HETATM    2  N   UNL     1      40.680 -12.994   0.305  1.00  0.00    -0.340 N 
HETATM    3  C   UNL     1      41.379 -14.258   0.482  1.00  0.00     0.123 C 
HETATM    4  C   UNL     1      42.217 -14.092   1.779  1.00  0.00     0.221 C 
HETATM    5  N   UNL     1      41.917 -15.262   2.728  1.00  0.00    -0.064 N 
HETATM    6  H   UNL     1      42.482 -15.163   3.582  1.00  0.00     0.280 HD
HETATM    7  C   UNL     1      40.463 -15.406   3.154  1.00  0.00     0.236 C 
HETATM    8  C   UNL     1      39.590 -15.340   1.909  1.00  0.00     0.034 C 
HETATM    9  C   UNL     1      40.458 -15.490   0.646  1.00  0.00     0.014 C 
HETATM   10  C   UNL     1      41.353 -16.736   0.826  1.00  0.00     0.034 C 
HETATM   11  C   UNL     1      42.304 -16.559   2.020  1.00  0.00     0.236 C 
HETATM   12  C   UNL     1      41.996 -12.640   2.290  1.00  0.00     0.070 C 
HETATM   13  C   UNL     1      41.286 -11.948   1.113  1.00  0.00     0.138 C 
HETATM   14  O   UNL     1      39.329 -11.531  -0.826  1.00  0.00    -0.267 OA
ENDROOT
BRANCH   1  15
HETATM   15  C   UNL     1      40.258 -13.275  -2.059  1.00  0.00     0.090 C 
HETATM   16  C   UNL     1      41.430 -13.426  -2.842  1.00  0.00     0.080 C 
HETATM   17  N   UNL     1      41.169 -14.129  -3.954  1.00  0.00    -0.132 NA
HETATM   18  O   UNL     1      39.874 -14.582  -3.827  1.00  0.00    -0.217 OA
HETATM   19  C   UNL     1      39.342 -14.101  -2.677  1.00  0.00     0.092 C 
HETATM   20  C   UNL     1      37.978 -14.553  -2.336  1.00  0.00     0.080 C 
BRANCH  16  21
HETATM   21  C   UNL     1      42.806 -12.903  -2.609  1.00  0.00     0.058 C 
HETATM   22  C   UNL     1      42.855 -11.393  -2.421  1.00  0.00     0.011 C 
ENDBRANCH  16  21
ENDBRANCH   1  15
BRANCH  12  23
HETATM   23  C   UNL     1      41.385 -12.428   3.657  1.00  0.00    -0.048 A 
HETATM   24  C   UNL     1      40.028 -12.061   3.746  1.00  0.00     0.044 A 
HETATM   25  C   UNL     1      39.445 -11.828   4.989  1.00  0.00     0.066 A 
HETATM   26  C   UNL     1      40.179 -11.960   6.158  1.00  0.00     0.036 A 
HETATM   27  C   UNL     1      41.511 -12.357   6.091  1.00  0.00     0.003 A 
HETATM   28  C   UNL     1      42.110 -12.591   4.851  1.00  0.00     0.008 A 
BRANCH  25  29
HETATM   29  O   UNL     1      38.142 -11.451   5.097  1.00  0.00    -0.361 OA
HETATM   30  H   UNL     1      38.089 -10.484   5.180  1.00  0.00     0.217 HD
ENDBRANCH  25  29
ENDBRANCH  12  23
TORSDOF 4
ENDMDL
