MODEL 1
REMARK VINA RESULT:      -8.0      0.000      0.000
REMARK  6 active torsions:
REMARK  status: ('A' for Active; 'I' for Inactive)
REMARK    1  A    between atoms: C_5  and  N_6 
REMARK    2  A    between atoms: N_6  and  C_7 
REMARK    3  A    between atoms: C_7  and  C_8 
REMARK    4  A    between atoms: N_10  and  C_12 
REMARK    5  A    between atoms: C_12  and  C_13 
REMARK    6  A    between atoms: C_14  and  O_15 
ROOT
HETATM    1  C   UNL     1      41.981 -17.378   1.029  1.00  0.00     0.031 C 
HETATM    2  C   UNL     1      41.257 -16.951   2.305  1.00  0.00     0.241 C 
HETATM    3  N   UNL     1      41.309 -15.442   2.312  1.00  0.00    -0.067 N 
HETATM    4  H   UNL     1      40.343 -15.112   2.498  1.00  0.00     0.280 HD
HETATM    5  C   UNL     1      41.721 -14.971   0.945  1.00  0.00     0.235 C 
HETATM    6  C   UNL     1      41.661 -16.223   0.080  1.00  0.00     0.035 C 
ENDROOT
BRANCH   1   7
HETATM    7  C   UNL     1      43.493 -17.593   1.224  1.00  0.00     0.127 C 
BRANCH   7   8
HETATM    8  N   UNL     1      43.754 -18.275   2.485  1.00  0.00    -0.376 N 
HETATM    9  H   UNL     1      44.394 -17.754   3.096  1.00  0.00     0.161 HD
BRANCH   8  10
HETATM   10  C   UNL     1      43.973 -19.639   2.653  1.00  0.00     0.101 A 
HETATM   11  N   UNL     1      44.421 -20.182   3.797  1.00  0.00    -0.347 N 
HETATM   12  C   UNL     1      44.642 -21.504   3.960  1.00  0.00     0.007 A 
HETATM   13  H   UNL     1      44.579 -19.578   4.593  1.00  0.00     0.167 HD
HETATM   14  C   UNL     1      45.093 -22.006   5.295  1.00  0.00     0.068 C 
HETATM   15  C   UNL     1      44.429 -22.371   2.890  1.00  0.00     0.025 A 
HETATM   16  C   UNL     1      43.992 -21.858   1.678  1.00  0.00     0.006 A 
HETATM   17  C   UNL     1      43.765 -20.492   1.559  1.00  0.00     0.048 A 
ENDBRANCH   8  10
ENDBRANCH   7   8
ENDBRANCH   1   7
BRANCH   3  18
HETATM   18  C   UNL     1      42.084 -14.811   3.444  1.00  0.00     0.276 C 
BRANCH  18  19
HETATM   19  C   UNL     1      42.144 -15.669   4.677  1.00  0.00     0.002 A 
HETATM   20  C   UNL     1      41.013 -15.855   5.482  1.00  0.00     0.073 A 
HETATM   21  C   UNL     1      41.061 -16.652   6.624  1.00  0.00     0.038 A 
HETATM   22  C   UNL     1      42.255 -17.284   6.973  1.00  0.00     0.022 A 
HETATM   23  C   UNL     1      43.389 -17.106   6.183  1.00  0.00     0.011 A 
HETATM   24 BR   UNL     1      45.001 -17.981   6.636  1.00  0.00    -0.051 Br
HETATM   25  C   UNL     1      43.343 -16.297   5.047  1.00  0.00     0.030 A 
BRANCH  20  26
HETATM   26  O   UNL     1      39.843 -15.258   5.098  1.00  0.00    -0.360 OA
HETATM   27  H   UNL     1      40.002 -14.816   4.237  1.00  0.00     0.217 HD
ENDBRANCH  20  26
ENDBRANCH  18  19
ENDBRANCH   3  18
TORSDOF 6
ENDMDL
MODEL 2
REMARK VINA RESULT:      -7.9      2.615      4.758
REMARK  6 active torsions:
REMARK  status: ('A' for Active; 'I' for Inactive)
REMARK    1  A    between atoms: C_5  and  N_6 
REMARK    2  A    between atoms: N_6  and  C_7 
REMARK    3  A    between atoms: C_7  and  C_8 
REMARK    4  A    between atoms: N_10  and  C_12 
REMARK    5  A    between atoms: C_12  and  C_13 
REMARK    6  A    between atoms: C_14  and  O_15 
ROOT
HETATM    1  C   UNL     1      44.306 -16.952   6.587  1.00  0.00     0.031 C 
HETATM    2  C   UNL     1      43.680 -16.385   5.313  1.00  0.00     0.241 C 
HETATM    3  N   UNL     1      42.200 -16.655   5.437  1.00  0.00    -0.067 N 
HETATM    4  H   UNL     1      41.716 -15.761   5.226  1.00  0.00     0.280 HD
HETATM    5  C   UNL     1      41.900 -17.038   6.859  1.00  0.00     0.235 C 
HETATM    6  C   UNL     1      43.190 -16.739   7.610  1.00  0.00     0.035 C 
ENDROOT
BRANCH   1   7
HETATM    7  C   UNL     1      44.729 -18.427   6.459  1.00  0.00     0.127 C 
BRANCH   7   8
HETATM    8  N   UNL     1      44.771 -18.827   5.058  1.00  0.00    -0.376 N 
HETATM    9  H   UNL     1      44.213 -18.214   4.452  1.00  0.00     0.161 HD
BRANCH   8  10
HETATM   10  C   UNL     1      44.708 -20.129   4.573  1.00  0.00     0.101 A 
HETATM   11  N   UNL     1      44.466 -20.430   3.286  1.00  0.00    -0.347 N 
HETATM   12  C   UNL     1      44.397 -21.692   2.813  1.00  0.00     0.007 A 
HETATM   13  H   UNL     1      44.356 -19.673   2.623  1.00  0.00     0.167 HD
HETATM   14  C   UNL     1      44.174 -21.909   1.350  1.00  0.00     0.068 C 
HETATM   15  C   UNL     1      44.553 -22.761   3.693  1.00  0.00     0.025 A 
HETATM   16  C   UNL     1      44.777 -22.508   5.038  1.00  0.00     0.006 A 
HETATM   17  C   UNL     1      44.854 -21.192   5.478  1.00  0.00     0.048 A 
ENDBRANCH   8  10
ENDBRANCH   7   8
ENDBRANCH   1   7
BRANCH   3  18
HETATM   18  C   UNL     1      41.608 -17.588   4.408  1.00  0.00     0.276 C 
BRANCH  18  19
HETATM   19  C   UNL     1      41.422 -16.948   3.060  1.00  0.00     0.002 A 
HETATM   20  C   UNL     1      42.306 -17.211   2.007  1.00  0.00     0.073 A 
HETATM   21  C   UNL     1      42.137 -16.624   0.755  1.00  0.00     0.038 A 
HETATM   22  C   UNL     1      41.062 -15.760   0.540  1.00  0.00     0.022 A 
HETATM   23  C   UNL     1      40.175 -15.487   1.579  1.00  0.00     0.011 A 
HETATM   24 BR   UNL     1      38.703 -14.340   1.285  1.00  0.00    -0.051 Br
HETATM   25  C   UNL     1      40.354 -16.065   2.837  1.00  0.00     0.030 A 
BRANCH  20  26
HETATM   26  O   UNL     1      43.330 -18.092   2.230  1.00  0.00    -0.360 OA
HETATM   27  H   UNL     1      43.652 -17.950   3.146  1.00  0.00     0.217 HD
ENDBRANCH  20  26
ENDBRANCH  18  19
ENDBRANCH   3  18
TORSDOF 6
ENDMDL
MODEL 3
REMARK VINA RESULT:      -7.8      4.151      4.889
REMARK  6 active torsions:
REMARK  status: ('A' for Active; 'I' for Inactive)
REMARK    1  A    between atoms: C_5  and  N_6 
REMARK    2  A    between atoms: N_6  and  C_7 
REMARK    3  A    between atoms: C_7  and  C_8 
REMARK    4  A    between atoms: N_10  and  C_12 
REMARK    5  A    between atoms: C_12  and  C_13 
REMARK    6  A    between atoms: C_14  and  O_15 
ROOT
HETATM    1  C   UNL     1      42.103 -16.018   5.256  1.00  0.00     0.031 C 
HETATM    2  C   UNL     1      42.779 -15.983   6.626  1.00  0.00     0.241 C 
HETATM    3  N   UNL     1      43.296 -14.574   6.786  1.00  0.00    -0.067 N 
HETATM    4  H   UNL     1      42.982 -14.246   7.720  1.00  0.00     0.280 HD
HETATM    5  C   UNL     1      42.657 -13.708   5.736  1.00  0.00     0.235 C 
HETATM    6  C   UNL     1      41.573 -14.589   5.128  1.00  0.00     0.035 C 
ENDROOT
BRANCH   1   7
HETATM    7  C   UNL     1      43.055 -16.409   4.110  1.00  0.00     0.127 C 
BRANCH   7   8
HETATM    8  N   UNL     1      43.977 -17.450   4.546  1.00  0.00    -0.376 N 
HETATM    9  H   UNL     1      44.916 -17.091   4.753  1.00  0.00     0.161 HD
BRANCH   8  10
HETATM   10  C   UNL     1      44.087 -18.729   4.008  1.00  0.00     0.101 A 
HETATM   11  N   UNL     1      44.537 -19.788   4.700  1.00  0.00    -0.347 N 
HETATM   12  C   UNL     1      44.652 -21.028   4.179  1.00  0.00     0.007 A 
HETATM   13  H   UNL     1      44.780 -19.664   5.675  1.00  0.00     0.167 HD
HETATM   14  C   UNL     1      45.117 -22.146   5.058  1.00  0.00     0.068 C 
HETATM   15  C   UNL     1      44.319 -21.242   2.843  1.00  0.00     0.025 A 
HETATM   16  C   UNL     1      43.874 -20.176   2.075  1.00  0.00     0.006 A 
HETATM   17  C   UNL     1      43.758 -18.920   2.657  1.00  0.00     0.048 A 
ENDBRANCH   8  10
ENDBRANCH   7   8
ENDBRANCH   1   7
BRANCH   3  18
HETATM   18  C   UNL     1      44.795 -14.424   6.883  1.00  0.00     0.276 C 
BRANCH  18  19
HETATM   19  C   UNL     1      45.224 -13.296   7.779  1.00  0.00     0.002 A 
HETATM   20  C   UNL     1      46.401 -12.580   7.526  1.00  0.00     0.073 A 
HETATM   21  C   UNL     1      46.803 -11.532   8.351  1.00  0.00     0.038 A 
HETATM   22  C   UNL     1      46.017 -11.180   9.449  1.00  0.00     0.022 A 
HETATM   23  C   UNL     1      44.844 -11.885   9.715  1.00  0.00     0.011 A 
HETATM   24 BR   UNL     1      43.762 -11.395  11.184  1.00  0.00    -0.051 Br
HETATM   25  C   UNL     1      44.450 -12.944   8.895  1.00  0.00     0.030 A 
BRANCH  20  26
HETATM   26  O   UNL     1      47.135 -12.917   6.422  1.00  0.00    -0.360 OA
HETATM   27  H   UNL     1      48.075 -12.982   6.696  1.00  0.00     0.217 HD
ENDBRANCH  20  26
ENDBRANCH  18  19
ENDBRANCH   3  18
TORSDOF 6
ENDMDL
MODEL 4
REMARK VINA RESULT:      -7.6      3.213      6.597
REMARK  6 active torsions:
REMARK  status: ('A' for Active; 'I' for Inactive)
REMARK    1  A    between atoms: C_5  and  N_6 
REMARK    2  A    between atoms: N_6  and  C_7 
REMARK    3  A    between atoms: C_7  and  C_8 
REMARK    4  A    between atoms: N_10  and  C_12 
REMARK    5  A    between atoms: C_12  and  C_13 
REMARK    6  A    between atoms: C_14  and  O_15 
ROOT
HETATM    1  C   UNL     1      39.985 -15.259   1.960  1.00  0.00     0.031 C 
HETATM    2  C   UNL     1      40.613 -16.648   2.063  1.00  0.00     0.241 C 
HETATM    3  N   UNL     1      41.615 -16.556   3.189  1.00  0.00    -0.067 N 
HETATM    4  H   UNL     1      41.437 -17.367   3.813  1.00  0.00     0.280 HD
HETATM    5  C   UNL     1      41.354 -15.292   3.960  1.00  0.00     0.235 C 
HETATM    6  C   UNL     1      40.027 -14.784   3.413  1.00  0.00     0.035 C 
ENDROOT
BRANCH   1   7
HETATM    7  C   UNL     1      40.734 -14.316   1.000  1.00  0.00     0.127 C 
BRANCH   7   8
HETATM    8  N   UNL     1      39.848 -13.861  -0.064  1.00  0.00    -0.376 N 
HETATM    9  H   UNL     1      38.925 -13.575   0.282  1.00  0.00     0.161 HD
BRANCH   8  10
HETATM   10  C   UNL     1      39.704 -14.443  -1.320  1.00  0.00     0.101 A 
HETATM   11  N   UNL     1      38.561 -14.414  -2.023  1.00  0.00    -0.347 N 
HETATM   12  C   UNL     1      38.416 -14.985  -3.238  1.00  0.00     0.007 A 
HETATM   13  H   UNL     1      37.767 -13.916  -1.641  1.00  0.00     0.167 HD
HETATM   14  C   UNL     1      37.111 -14.846  -3.956  1.00  0.00     0.068 C 
HETATM   15  C   UNL     1      39.489 -15.672  -3.803  1.00  0.00     0.025 A 
HETATM   16  C   UNL     1      40.685 -15.756  -3.107  1.00  0.00     0.006 A 
HETATM   17  C   UNL     1      40.792 -15.142  -1.864  1.00  0.00     0.048 A 
ENDBRANCH   8  10
ENDBRANCH   7   8
ENDBRANCH   1   7
BRANCH   3  18
HETATM   18  C   UNL     1      43.062 -16.761   2.807  1.00  0.00     0.276 C 
BRANCH  18  19
HETATM   19  C   UNL     1      43.633 -18.058   3.307  1.00  0.00     0.002 A 
HETATM   20  C   UNL     1      44.091 -18.184   4.625  1.00  0.00     0.073 A 
HETATM   21  C   UNL     1      44.618 -19.385   5.096  1.00  0.00     0.038 A 
HETATM   22  C   UNL     1      44.687 -20.487   4.243  1.00  0.00     0.022 A 
HETATM   23  C   UNL     1      44.238 -20.376   2.929  1.00  0.00     0.011 A 
HETATM   24 BR   UNL     1      44.305 -21.873   1.779  1.00  0.00    -0.051 Br
HETATM   25  C   UNL     1      43.723 -19.169   2.454  1.00  0.00     0.030 A 
BRANCH  20  26
HETATM   26  O   UNL     1      43.976 -17.102   5.454  1.00  0.00    -0.360 OA
HETATM   27  H   UNL     1      44.739 -17.116   6.071  1.00  0.00     0.217 HD
ENDBRANCH  20  26
ENDBRANCH  18  19
ENDBRANCH   3  18
TORSDOF 6
ENDMDL
MODEL 5
REMARK VINA RESULT:      -7.6      4.384      7.330
REMARK  6 active torsions:
REMARK  status: ('A' for Active; 'I' for Inactive)
REMARK    1  A    between atoms: C_5  and  N_6 
REMARK    2  A    between atoms: N_6  and  C_7 
REMARK    3  A    between atoms: C_7  and  C_8 
REMARK    4  A    between atoms: N_10  and  C_12 
REMARK    5  A    between atoms: C_12  and  C_13 
REMARK    6  A    between atoms: C_14  and  O_15 
ROOT
HETATM    1  C   UNL     1      43.751 -13.999   5.310  1.00  0.00     0.031 C 
HETATM    2  C   UNL     1      43.273 -14.943   4.207  1.00  0.00     0.241 C 
HETATM    3  N   UNL     1      41.836 -15.260   4.543  1.00  0.00    -0.067 N 
HETATM    4  H   UNL     1      41.287 -15.110   3.674  1.00  0.00     0.280 HD
HETATM    5  C   UNL     1      41.361 -14.284   5.583  1.00  0.00     0.235 C 
HETATM    6  C   UNL     1      42.469 -13.242   5.657  1.00  0.00     0.035 C 
ENDROOT
BRANCH   1   7
HETATM    7  C   UNL     1      44.364 -14.728   6.520  1.00  0.00     0.127 C 
BRANCH   7   8
HETATM    8  N   UNL     1      43.959 -14.083   7.763  1.00  0.00    -0.376 N 
HETATM    9  H   UNL     1      42.949 -13.905   7.809  1.00  0.00     0.161 HD
BRANCH   8  10
HETATM   10  C   UNL     1      44.634 -13.055   8.414  1.00  0.00     0.101 A 
HETATM   11  N   UNL     1      44.127 -12.382   9.460  1.00  0.00    -0.347 N 
HETATM   12  C   UNL     1      44.776 -11.380  10.089  1.00  0.00     0.007 A 
HETATM   13  H   UNL     1      43.221 -12.653   9.820  1.00  0.00     0.167 HD
HETATM   14  C   UNL     1      44.137 -10.733  11.278  1.00  0.00     0.068 C 
HETATM   15  C   UNL     1      46.030 -10.982   9.630  1.00  0.00     0.025 A 
HETATM   16  C   UNL     1      46.588 -11.626   8.536  1.00  0.00     0.006 A 
HETATM   17  C   UNL     1      45.890 -12.662   7.928  1.00  0.00     0.048 A 
ENDBRANCH   8  10
ENDBRANCH   7   8
ENDBRANCH   1   7
BRANCH   3  18
HETATM   18  C   UNL     1      41.533 -16.704   4.866  1.00  0.00     0.276 C 
BRANCH  18  19
HETATM   19  C   UNL     1      42.252 -17.677   3.974  1.00  0.00     0.002 A 
HETATM   20  C   UNL     1      42.006 -17.712   2.596  1.00  0.00     0.073 A 
HETATM   21  C   UNL     1      42.672 -18.609   1.764  1.00  0.00     0.038 A 
HETATM   22  C   UNL     1      43.608 -19.489   2.310  1.00  0.00     0.022 A 
HETATM   23  C   UNL     1      43.861 -19.468   3.680  1.00  0.00     0.011 A 
HETATM   24 BR   UNL     1      45.147 -20.638   4.419  1.00  0.00    -0.051 Br
HETATM   25  C   UNL     1      43.183 -18.578   4.514  1.00  0.00     0.030 A 
BRANCH  20  26
HETATM   26  O   UNL     1      41.114 -16.814   2.078  1.00  0.00    -0.360 OA
HETATM   27  H   UNL     1      41.224 -15.968   2.564  1.00  0.00     0.217 HD
ENDBRANCH  20  26
ENDBRANCH  18  19
ENDBRANCH   3  18
TORSDOF 6
ENDMDL
MODEL 6
REMARK VINA RESULT:      -7.5      2.917      6.308
REMARK  6 active torsions:
REMARK  status: ('A' for Active; 'I' for Inactive)
REMARK    1  A    between atoms: C_5  and  N_6 
REMARK    2  A    between atoms: N_6  and  C_7 
REMARK    3  A    between atoms: C_7  and  C_8 
REMARK    4  A    between atoms: N_10  and  C_12 
REMARK    5  A    between atoms: C_12  and  C_13 
REMARK    6  A    between atoms: C_14  and  O_15 
ROOT
HETATM    1  C   UNL     1      40.139 -15.173   2.492  1.00  0.00     0.031 C 
HETATM    2  C   UNL     1      40.731 -16.581   2.516  1.00  0.00     0.241 C 
HETATM    3  N   UNL     1      41.786 -16.557   3.596  1.00  0.00    -0.067 N 
HETATM    4  H   UNL     1      41.614 -17.384   4.199  1.00  0.00     0.280 HD
HETATM    5  C   UNL     1      41.596 -15.315   4.423  1.00  0.00     0.235 C 
HETATM    6  C   UNL     1      40.259 -14.753   3.958  1.00  0.00     0.035 C 
ENDROOT
BRANCH   1   7
HETATM    7  C   UNL     1      40.869 -14.215   1.532  1.00  0.00     0.127 C 
BRANCH   7   8
HETATM    8  N   UNL     1      41.452 -14.955   0.420  1.00  0.00    -0.376 N 
HETATM    9  H   UNL     1      42.442 -15.183   0.568  1.00  0.00     0.161 HD
BRANCH   8  10
HETATM   10  C   UNL     1      41.239 -14.709  -0.933  1.00  0.00     0.101 A 
HETATM   11  N   UNL     1      40.491 -15.500  -1.720  1.00  0.00    -0.347 N 
HETATM   12  C   UNL     1      40.288 -15.269  -3.035  1.00  0.00     0.007 A 
HETATM   13  H   UNL     1      40.029 -16.301  -1.308  1.00  0.00     0.167 HD
HETATM   14  C   UNL     1      39.394 -16.189  -3.805  1.00  0.00     0.068 C 
HETATM   15  C   UNL     1      40.899 -14.173  -3.639  1.00  0.00     0.025 A 
HETATM   16  C   UNL     1      41.704 -13.338  -2.878  1.00  0.00     0.006 A 
HETATM   17  C   UNL     1      41.874 -13.607  -1.525  1.00  0.00     0.048 A 
ENDBRANCH   8  10
ENDBRANCH   7   8
ENDBRANCH   1   7
BRANCH   3  18
HETATM   18  C   UNL     1      43.207 -16.784   3.140  1.00  0.00     0.276 C 
BRANCH  18  19
HETATM   19  C   UNL     1      43.751 -18.129   3.535  1.00  0.00     0.002 A 
HETATM   20  C   UNL     1      44.239 -18.359   4.827  1.00  0.00     0.073 A 
HETATM   21  C   UNL     1      44.742 -19.604   5.200  1.00  0.00     0.038 A 
HETATM   22  C   UNL     1      44.756 -20.647   4.273  1.00  0.00     0.022 A 
HETATM   23  C   UNL     1      44.276 -20.432   2.982  1.00  0.00     0.011 A 
HETATM   24 BR   UNL     1      44.267 -21.847   1.731  1.00  0.00    -0.051 Br
HETATM   25  C   UNL     1      43.785 -19.180   2.606  1.00  0.00     0.030 A 
BRANCH  20  26
HETATM   26  O   UNL     1      44.179 -17.334   5.731  1.00  0.00    -0.360 OA
HETATM   27  H   UNL     1      43.973 -17.721   6.609  1.00  0.00     0.217 HD
ENDBRANCH  20  26
ENDBRANCH  18  19
ENDBRANCH   3  18
TORSDOF 6
ENDMDL
MODEL 7
REMARK VINA RESULT:      -7.4      1.724      2.482
REMARK  6 active torsions:
REMARK  status: ('A' for Active; 'I' for Inactive)
REMARK    1  A    between atoms: C_5  and  N_6 
REMARK    2  A    between atoms: N_6  and  C_7 
REMARK    3  A    between atoms: C_7  and  C_8 
REMARK    4  A    between atoms: N_10  and  C_12 
REMARK    5  A    between atoms: C_12  and  C_13 
REMARK    6  A    between atoms: C_14  and  O_15 
ROOT
HETATM    1  C   UNL     1      40.493 -15.645   1.589  1.00  0.00     0.031 C 
HETATM    2  C   UNL     1      39.589 -14.729   2.413  1.00  0.00     0.241 C 
HETATM    3  N   UNL     1      40.478 -14.143   3.484  1.00  0.00    -0.067 N 
HETATM    4  H   UNL     1      40.317 -13.117   3.476  1.00  0.00     0.280 HD
HETATM    5  C   UNL     1      41.911 -14.405   3.114  1.00  0.00     0.235 C 
HETATM    6  C   UNL     1      41.841 -14.930   1.686  1.00  0.00     0.035 C 
ENDROOT
BRANCH   1   7
HETATM    7  C   UNL     1      40.542 -17.092   2.112  1.00  0.00     0.127 C 
BRANCH   7   8
HETATM    8  N   UNL     1      41.652 -17.817   1.505  1.00  0.00    -0.376 N 
HETATM    9  H   UNL     1      41.384 -18.306   0.643  1.00  0.00     0.161 HD
BRANCH   8  10
HETATM   10  C   UNL     1      42.608 -18.570   2.179  1.00  0.00     0.101 A 
HETATM   11  N   UNL     1      42.999 -19.794   1.786  1.00  0.00    -0.347 N 
HETATM   12  C   UNL     1      43.921 -20.530   2.442  1.00  0.00     0.007 A 
HETATM   13  H   UNL     1      42.605 -20.182   0.939  1.00  0.00     0.167 HD
HETATM   14  C   UNL     1      44.318 -21.861   1.886  1.00  0.00     0.068 C 
HETATM   15  C   UNL     1      44.494 -20.028   3.608  1.00  0.00     0.025 A 
HETATM   16  C   UNL     1      44.107 -18.780   4.073  1.00  0.00     0.006 A 
HETATM   17  C   UNL     1      43.164 -18.051   3.358  1.00  0.00     0.048 A 
ENDBRANCH   8  10
ENDBRANCH   7   8
ENDBRANCH   1   7
BRANCH   3  18
HETATM   18  C   UNL     1      40.130 -14.509   4.907  1.00  0.00     0.276 C 
BRANCH  18  19
HETATM   19  C   UNL     1      41.276 -15.121   5.662  1.00  0.00     0.002 A 
HETATM   20  C   UNL     1      41.213 -16.441   6.126  1.00  0.00     0.073 A 
HETATM   21  C   UNL     1      42.274 -17.015   6.824  1.00  0.00     0.038 A 
HETATM   22  C   UNL     1      43.427 -16.266   7.062  1.00  0.00     0.022 A 
HETATM   23  C   UNL     1      43.504 -14.950   6.609  1.00  0.00     0.011 A 
HETATM   24 BR   UNL     1      45.072 -13.940   6.905  1.00  0.00    -0.051 Br
HETATM   25  C   UNL     1      42.435 -14.372   5.922  1.00  0.00     0.030 A 
BRANCH  20  26
HETATM   26  O   UNL     1      40.089 -17.169   5.847  1.00  0.00    -0.360 OA
HETATM   27  H   UNL     1      39.850 -17.002   4.910  1.00  0.00     0.217 HD
ENDBRANCH  20  26
ENDBRANCH  18  19
ENDBRANCH   3  18
TORSDOF 6
ENDMDL
MODEL 8
REMARK VINA RESULT:      -7.4      3.737      5.778
REMARK  6 active torsions:
REMARK  status: ('A' for Active; 'I' for Inactive)
REMARK    1  A    between atoms: C_5  and  N_6 
REMARK    2  A    between atoms: N_6  and  C_7 
REMARK    3  A    between atoms: C_7  and  C_8 
REMARK    4  A    between atoms: N_10  and  C_12 
REMARK    5  A    between atoms: C_12  and  C_13 
REMARK    6  A    between atoms: C_14  and  O_15 
ROOT
HETATM    1  C   UNL     1      42.401 -16.042   2.957  1.00  0.00     0.031 C 
HETATM    2  C   UNL     1      41.994 -14.972   1.945  1.00  0.00     0.241 C 
HETATM    3  N   UNL     1      40.991 -15.638   1.034  1.00  0.00    -0.067 N 
HETATM    4  H   UNL     1      40.175 -14.999   0.972  1.00  0.00     0.280 HD
HETATM    5  C   UNL     1      40.545 -16.924   1.672  1.00  0.00     0.235 C 
HETATM    6  C   UNL     1      41.117 -16.863   3.082  1.00  0.00     0.035 C 
ENDROOT
BRANCH   1   7
HETATM    7  C   UNL     1      43.610 -16.884   2.509  1.00  0.00     0.127 C 
BRANCH   7   8
HETATM    8  N   UNL     1      43.926 -17.896   3.509  1.00  0.00    -0.376 N 
HETATM    9  H   UNL     1      44.664 -17.600   4.157  1.00  0.00     0.161 HD
BRANCH   8  10
HETATM   10  C   UNL     1      44.038 -19.265   3.286  1.00  0.00     0.101 A 
HETATM   11  N   UNL     1      44.543 -20.124   4.187  1.00  0.00    -0.347 N 
HETATM   12  C   UNL     1      44.660 -21.451   3.971  1.00  0.00     0.007 A 
HETATM   13  H   UNL     1      44.828 -19.769   5.090  1.00  0.00     0.167 HD
HETATM   14  C   UNL     1      45.189 -22.322   5.066  1.00  0.00     0.068 C 
HETATM   15  C   UNL     1      44.269 -21.982   2.743  1.00  0.00     0.025 A 
HETATM   16  C   UNL     1      43.766 -21.135   1.766  1.00  0.00     0.006 A 
HETATM   17  C   UNL     1      43.651 -19.777   2.038  1.00  0.00     0.048 A 
ENDBRANCH   8  10
ENDBRANCH   7   8
ENDBRANCH   1   7
BRANCH   3  18
HETATM   18  C   UNL     1      41.399 -15.776  -0.414  1.00  0.00     0.276 C 
BRANCH  18  19
HETATM   19  C   UNL     1      40.649 -14.854  -1.334  1.00  0.00     0.002 A 
HETATM   20  C   UNL     1      40.955 -14.791  -2.699  1.00  0.00     0.073 A 
HETATM   21  C   UNL     1      40.261 -13.942  -3.559  1.00  0.00     0.038 A 
HETATM   22  C   UNL     1      39.236 -13.140  -3.054  1.00  0.00     0.022 A 
HETATM   23  C   UNL     1      38.922 -13.190  -1.697  1.00  0.00     0.011 A 
HETATM   24 BR   UNL     1      37.518 -12.127  -1.014  1.00  0.00    -0.051 Br
HETATM   25  C   UNL     1      39.627 -14.031  -0.835  1.00  0.00     0.030 A 
BRANCH  20  26
HETATM   26  O   UNL     1      41.936 -15.615  -3.179  1.00  0.00    -0.360 OA
HETATM   27  H   UNL     1      41.508 -16.441  -3.489  1.00  0.00     0.217 HD
ENDBRANCH  20  26
ENDBRANCH  18  19
ENDBRANCH   3  18
TORSDOF 6
ENDMDL
MODEL 9
REMARK VINA RESULT:      -7.4      2.854      5.913
REMARK  6 active torsions:
REMARK  status: ('A' for Active; 'I' for Inactive)
REMARK    1  A    between atoms: C_5  and  N_6 
REMARK    2  A    between atoms: N_6  and  C_7 
REMARK    3  A    between atoms: C_7  and  C_8 
REMARK    4  A    between atoms: N_10  and  C_12 
REMARK    5  A    between atoms: C_12  and  C_13 
REMARK    6  A    between atoms: C_14  and  O_15 
ROOT
HETATM    1  C   UNL     1      40.891 -15.979   5.188  1.00  0.00     0.031 C 
HETATM    2  C   UNL     1      41.556 -16.431   6.488  1.00  0.00     0.241 C 
HETATM    3  N   UNL     1      42.702 -15.473   6.710  1.00  0.00    -0.067 N 
HETATM    4  H   UNL     1      42.628 -15.145   7.692  1.00  0.00     0.280 HD
HETATM    5  C   UNL     1      42.523 -14.294   5.796  1.00  0.00     0.235 C 
HETATM    6  C   UNL     1      41.123 -14.468   5.224  1.00  0.00     0.035 C 
ENDROOT
BRANCH   1   7
HETATM    7  C   UNL     1      41.480 -16.646   3.932  1.00  0.00     0.127 C 
BRANCH   7   8
HETATM    8  N   UNL     1      40.454 -16.804   2.909  1.00  0.00    -0.376 N 
HETATM    9  H   UNL     1      40.402 -17.761   2.541  1.00  0.00     0.161 HD
BRANCH   8  10
HETATM   10  C   UNL     1      40.167 -15.905   1.886  1.00  0.00     0.101 A 
HETATM   11  N   UNL     1      38.983 -15.286   1.755  1.00  0.00    -0.347 N 
HETATM   12  C   UNL     1      38.699 -14.419   0.759  1.00  0.00     0.007 A 
HETATM   13  H   UNL     1      38.267 -15.452   2.451  1.00  0.00     0.167 HD
HETATM   14  C   UNL     1      37.363 -13.747   0.740  1.00  0.00     0.068 C 
HETATM   15  C   UNL     1      39.661 -14.157  -0.215  1.00  0.00     0.025 A 
HETATM   16  C   UNL     1      40.892 -14.791  -0.141  1.00  0.00     0.006 A 
HETATM   17  C   UNL     1      41.145 -15.666   0.909  1.00  0.00     0.048 A 
ENDBRANCH   8  10
ENDBRANCH   7   8
ENDBRANCH   1   7
BRANCH   3  18
HETATM   18  C   UNL     1      44.085 -16.077   6.679  1.00  0.00     0.276 C 
BRANCH  18  19
HETATM   19  C   UNL     1      44.080 -17.577   6.593  1.00  0.00     0.002 A 
HETATM   20  C   UNL     1      43.824 -18.365   7.722  1.00  0.00     0.073 A 
HETATM   21  C   UNL     1      43.814 -19.756   7.648  1.00  0.00     0.038 A 
HETATM   22  C   UNL     1      44.056 -20.382   6.424  1.00  0.00     0.022 A 
HETATM   23  C   UNL     1      44.315 -19.612   5.292  1.00  0.00     0.011 A 
HETATM   24 BR   UNL     1      44.618 -20.453   3.628  1.00  0.00    -0.051 Br
HETATM   25  C   UNL     1      44.339 -18.218   5.371  1.00  0.00     0.030 A 
BRANCH  20  26
HETATM   26  O   UNL     1      43.549 -17.729   8.902  1.00  0.00    -0.360 OA
HETATM   27  H   UNL     1      44.333 -17.190   9.140  1.00  0.00     0.217 HD
ENDBRANCH  20  26
ENDBRANCH  18  19
ENDBRANCH   3  18
TORSDOF 6
ENDMDL
MODEL 10
REMARK VINA RESULT:      -7.2      2.708      4.103
REMARK  6 active torsions:
REMARK  status: ('A' for Active; 'I' for Inactive)
REMARK    1  A    between atoms: C_5  and  N_6 
REMARK    2  A    between atoms: N_6  and  C_7 
REMARK    3  A    between atoms: C_7  and  C_8 
REMARK    4  A    between atoms: N_10  and  C_12 
REMARK    5  A    between atoms: C_12  and  C_13 
REMARK    6  A    between atoms: C_14  and  O_15 
ROOT
HETATM    1  C   UNL     1      43.582 -16.746   4.908  1.00  0.00     0.031 C 
HETATM    2  C   UNL     1      42.930 -15.386   5.154  1.00  0.00     0.241 C 
HETATM    3  N   UNL     1      41.998 -15.591   6.324  1.00  0.00    -0.067 N 
HETATM    4  H   UNL     1      42.195 -14.826   6.998  1.00  0.00     0.280 HD
HETATM    5  C   UNL     1      42.332 -16.902   6.978  1.00  0.00     0.235 C 
HETATM    6  C   UNL     1      43.637 -17.331   6.319  1.00  0.00     0.035 C 
ENDROOT
BRANCH   1   7
HETATM    7  C   UNL     1      42.799 -17.633   3.921  1.00  0.00     0.127 C 
BRANCH   7   8
HETATM    8  N   UNL     1      43.713 -18.327   3.023  1.00  0.00    -0.376 N 
HETATM    9  H   UNL     1      43.671 -17.973   2.060  1.00  0.00     0.161 HD
BRANCH   8  10
HETATM   10  C   UNL     1      43.959 -19.696   2.996  1.00  0.00     0.101 A 
HETATM   11  N   UNL     1      44.464 -20.379   4.037  1.00  0.00    -0.347 N 
HETATM   12  C   UNL     1      44.710 -21.706   4.011  1.00  0.00     0.007 A 
HETATM   13  H   UNL     1      44.648 -19.884   4.900  1.00  0.00     0.167 HD
HETATM   14  C   UNL     1      45.226 -22.373   5.247  1.00  0.00     0.068 C 
HETATM   15  C   UNL     1      44.462 -22.426   2.844  1.00  0.00     0.025 A 
HETATM   16  C   UNL     1      43.965 -21.764   1.731  1.00  0.00     0.006 A 
HETATM   17  C   UNL     1      43.714 -20.400   1.807  1.00  0.00     0.048 A 
ENDBRANCH   8  10
ENDBRANCH   7   8
ENDBRANCH   1   7
BRANCH   3  18
HETATM   18  C   UNL     1      40.528 -15.397   6.041  1.00  0.00     0.276 C 
BRANCH  18  19
HETATM   19  C   UNL     1      40.244 -14.241   5.123  1.00  0.00     0.002 A 
HETATM   20  C   UNL     1      40.322 -12.920   5.580  1.00  0.00     0.073 A 
HETATM   21  C   UNL     1      40.064 -11.844   4.733  1.00  0.00     0.038 A 
HETATM   22  C   UNL     1      39.727 -12.083   3.400  1.00  0.00     0.022 A 
HETATM   23  C   UNL     1      39.643 -13.393   2.931  1.00  0.00     0.011 A 
HETATM   24 BR   UNL     1      39.214 -13.721   1.121  1.00  0.00    -0.051 Br
HETATM   25  C   UNL     1      39.889 -14.470   3.785  1.00  0.00     0.030 A 
BRANCH  20  26
HETATM   26  O   UNL     1      40.693 -12.708   6.880  1.00  0.00    -0.360 OA
HETATM   27  H   UNL     1      40.921 -13.578   7.271  1.00  0.00     0.217 HD
ENDBRANCH  20  26
ENDBRANCH  18  19
ENDBRANCH   3  18
TORSDOF 6
ENDMDL
