MODEL 1
REMARK VINA RESULT:      -8.7      0.000      0.000
REMARK  13 active torsions:
REMARK  status: ('A' for Active; 'I' for Inactive)
REMARK    1  A    between atoms: C_2  and  O_3 
REMARK    2  A    between atoms: O_3  and  C_4 
REMARK    3  A    between atoms: C_5  and  O_6 
REMARK    4  A    between atoms: C_9  and  C_10 
REMARK    5  A    between atoms: N_11  and  C_12 
REMARK    6  A    between atoms: C_12  and  C_13 
REMARK    7  A    between atoms: C_13  and  N_14 
REMARK    8  A    between atoms: C_20  and  O_21 
REMARK    9  A    between atoms: C_22  and  C_23 
REMARK   10  A    between atoms: C_23  and  C_24 
REMARK   11  A    between atoms: C_28  and  O_29 
REMARK   12  A    between atoms: O_29  and  C_30 
REMARK   13  A    between atoms: C_30  and  C_31 
ROOT
HETATM    1  C   UNL     1      40.353 -13.375   4.854  1.00  0.00     0.161 A 
HETATM    2  N   UNL     1      40.092 -12.245   5.753  1.00  0.00    -0.332 N 
HETATM    3  C   UNL     1      40.426 -11.055   5.151  1.00  0.00     0.278 A 
HETATM    4  O   UNL     1      40.203  -9.931   5.566  1.00  0.00    -0.265 OA
HETATM    5  C   UNL     1      41.052 -11.363   3.851  1.00  0.00     0.146 A 
HETATM    6  C   UNL     1      40.981 -12.689   3.678  1.00  0.00     0.059 A 
ENDROOT
BRANCH   6   7
HETATM    7  C   UNL     1      41.223 -13.309   2.351  1.00  0.00     0.194 C 
HETATM    8  O   UNL     1      41.049 -12.687   1.309  1.00  0.00    -0.287 OA
BRANCH   7   9
HETATM    9  C   UNL     1      41.556 -14.746   2.282  1.00  0.00     0.021 A 
HETATM   10  C   UNL     1      40.550 -15.711   2.102  1.00  0.00    -0.045 A 
HETATM   11  C   UNL     1      39.110 -15.342   1.877  1.00  0.00     0.049 C 
HETATM   12  C   UNL     1      40.922 -17.064   2.078  1.00  0.00     0.044 A 
HETATM   13  C   UNL     1      42.254 -17.454   2.242  1.00  0.00     0.069 A 
HETATM   14  C   UNL     1      43.247 -16.485   2.353  1.00  0.00     0.038 A 
HETATM   15  C   UNL     1      42.900 -15.131   2.352  1.00  0.00     0.019 A 
BRANCH  13  16
HETATM   16  O   UNL     1      42.462 -18.803   2.232  1.00  0.00    -0.347 OA
BRANCH  16  17
HETATM   17  C   UNL     1      43.784 -19.235   1.906  1.00  0.00     0.214 C 
BRANCH  17  18
HETATM   18  C   UNL     1      44.179 -20.292   2.905  1.00  0.00    -0.034 A 
HETATM   19  C   UNL     1      44.283 -21.635   2.518  1.00  0.00     0.009 A 
HETATM   20  C   UNL     1      44.624 -22.616   3.452  1.00  0.00     0.001 A 
HETATM   21  C   UNL     1      44.855 -22.266   4.780  1.00  0.00     0.000 A 
HETATM   22  C   UNL     1      44.743 -20.935   5.179  1.00  0.00     0.001 A 
HETATM   23  C   UNL     1      44.403 -19.952   4.247  1.00  0.00     0.009 A 
ENDBRANCH  17  18
ENDBRANCH  16  17
ENDBRANCH  13  16
ENDBRANCH   7   9
ENDBRANCH   6   7
BRANCH   1  24
HETATM   24  C   UNL     1      41.157 -14.439   5.573  1.00  0.00    -0.028 A 
HETATM   25  C   UNL     1      40.612 -15.698   5.885  1.00  0.00     0.012 A 
HETATM   26  C   UNL     1      41.400 -16.680   6.483  1.00  0.00     0.040 A 
HETATM   27  C   UNL     1      42.741 -16.421   6.733  1.00  0.00     0.099 A 
HETATM   28  C   UNL     1      43.323 -15.197   6.397  1.00  0.00     0.102 A 
HETATM   29  C   UNL     1      42.521 -14.198   5.845  1.00  0.00     0.049 A 
BRANCH  27  30
HETATM   30  O   UNL     1      43.493 -17.413   7.296  1.00  0.00    -0.358 OA
HETATM   31  H   UNL     1      43.713 -17.102   8.196  1.00  0.00     0.218 HD
ENDBRANCH  27  30
BRANCH  28  32
HETATM   32  O   UNL     1      44.667 -15.097   6.644  1.00  0.00    -0.349 OA
BRANCH  32  33
HETATM   33  C   UNL     1      45.179 -13.775   6.835  1.00  0.00     0.171 C 
HETATM   34  C   UNL     1      44.814 -13.322   8.237  1.00  0.00     0.034 C 
ENDBRANCH  32  33
ENDBRANCH  28  32
ENDBRANCH   1  24
BRANCH   5  35
HETATM   35  O   UNL     1      41.490 -10.403   2.990  1.00  0.00    -0.355 OA
HETATM   36  H   UNL     1      42.442 -10.546   2.836  1.00  0.00     0.218 HD
ENDBRANCH   5  35
BRANCH   2  37
HETATM   37  C   UNL     1      39.466 -12.431   7.069  1.00  0.00     0.155 C 
BRANCH  37  38
HETATM   38  C   UNL     1      39.517 -11.249   8.064  1.00  0.00     0.254 C 
BRANCH  38  39
HETATM   39  N   UNL     1      40.687 -11.320   9.022  1.00  0.00    -0.077 N 
HETATM   40  H   UNL     1      40.920 -12.332   9.087  1.00  0.00     0.279 HD
HETATM   41  C   UNL     1      41.902 -10.567   8.581  1.00  0.00     0.269 C 
HETATM   42  C   UNL     1      40.281 -10.947  10.421  1.00  0.00     0.269 C 
ENDBRANCH  38  39
ENDBRANCH  37  38
ENDBRANCH   2  37
TORSDOF 13
ENDMDL
MODEL 2
REMARK VINA RESULT:      -8.6      4.298      7.621
REMARK  13 active torsions:
REMARK  status: ('A' for Active; 'I' for Inactive)
REMARK    1  A    between atoms: C_2  and  O_3 
REMARK    2  A    between atoms: O_3  and  C_4 
REMARK    3  A    between atoms: C_5  and  O_6 
REMARK    4  A    between atoms: C_9  and  C_10 
REMARK    5  A    between atoms: N_11  and  C_12 
REMARK    6  A    between atoms: C_12  and  C_13 
REMARK    7  A    between atoms: C_13  and  N_14 
REMARK    8  A    between atoms: C_20  and  O_21 
REMARK    9  A    between atoms: C_22  and  C_23 
REMARK   10  A    between atoms: C_23  and  C_24 
REMARK   11  A    between atoms: C_28  and  O_29 
REMARK   12  A    between atoms: O_29  and  C_30 
REMARK   13  A    between atoms: C_30  and  C_31 
ROOT
HETATM    1  C   UNL     1      40.282 -13.615  -0.599  1.00  0.00     0.161 A 
HETATM    2  N   UNL     1      40.517 -12.201  -0.914  1.00  0.00    -0.332 N 
HETATM    3  C   UNL     1      39.787 -11.387  -0.080  1.00  0.00     0.278 A 
HETATM    4  O   UNL     1      39.863 -10.175   0.017  1.00  0.00    -0.265 OA
HETATM    5  C   UNL     1      38.925 -12.246   0.755  1.00  0.00     0.146 A 
HETATM    6  C   UNL     1      39.234 -13.517   0.470  1.00  0.00     0.059 A 
ENDROOT
BRANCH   6   7
HETATM    7  C   UNL     1      38.793 -14.633   1.344  1.00  0.00     0.194 C 
HETATM    8  O   UNL     1      37.609 -14.825   1.594  1.00  0.00    -0.287 OA
BRANCH   7   9
HETATM    9  C   UNL     1      39.813 -15.450   2.032  1.00  0.00     0.021 A 
HETATM   10  C   UNL     1      40.341 -15.051   3.272  1.00  0.00    -0.045 A 
HETATM   11  C   UNL     1      39.839 -13.840   4.009  1.00  0.00     0.049 C 
HETATM   12  C   UNL     1      41.332 -15.850   3.862  1.00  0.00     0.044 A 
HETATM   13  C   UNL     1      41.801 -17.007   3.235  1.00  0.00     0.069 A 
HETATM   14  C   UNL     1      41.223 -17.426   2.039  1.00  0.00     0.038 A 
HETATM   15  C   UNL     1      40.215 -16.658   1.449  1.00  0.00     0.019 A 
BRANCH  13  16
HETATM   16  O   UNL     1      42.790 -17.665   3.908  1.00  0.00    -0.347 OA
BRANCH  16  17
HETATM   17  C   UNL     1      43.967 -17.968   3.160  1.00  0.00     0.214 C 
BRANCH  17  18
HETATM   18  C   UNL     1      44.097 -19.469   3.101  1.00  0.00    -0.034 A 
HETATM   19  C   UNL     1      44.674 -20.178   4.165  1.00  0.00     0.009 A 
HETATM   20  C   UNL     1      44.817 -21.565   4.096  1.00  0.00     0.001 A 
HETATM   21  C   UNL     1      44.395 -22.255   2.963  1.00  0.00     0.000 A 
HETATM   22  C   UNL     1      43.831 -21.561   1.894  1.00  0.00     0.001 A 
HETATM   23  C   UNL     1      43.685 -20.173   1.960  1.00  0.00     0.009 A 
ENDBRANCH  17  18
ENDBRANCH  16  17
ENDBRANCH  13  16
ENDBRANCH   7   9
ENDBRANCH   6   7
BRANCH   1  24
HETATM   24  C   UNL     1      39.944 -14.381  -1.861  1.00  0.00    -0.028 A 
HETATM   25  C   UNL     1      40.842 -15.300  -2.434  1.00  0.00     0.012 A 
HETATM   26  C   UNL     1      40.474 -16.042  -3.556  1.00  0.00     0.040 A 
HETATM   27  C   UNL     1      39.196 -15.897  -4.080  1.00  0.00     0.099 A 
HETATM   28  C   UNL     1      38.267 -15.025  -3.510  1.00  0.00     0.102 A 
HETATM   29  C   UNL     1      38.655 -14.246  -2.419  1.00  0.00     0.049 A 
BRANCH  27  30
HETATM   30  O   UNL     1      38.856 -16.657  -5.164  1.00  0.00    -0.358 OA
HETATM   31  H   UNL     1      38.504 -17.494  -4.802  1.00  0.00     0.218 HD
ENDBRANCH  27  30
BRANCH  28  32
HETATM   32  O   UNL     1      37.027 -15.023  -4.091  1.00  0.00    -0.349 OA
BRANCH  32  33
HETATM   33  C   UNL     1      36.465 -13.741  -4.382  1.00  0.00     0.171 C 
HETATM   34  C   UNL     1      35.385 -13.922  -5.432  1.00  0.00     0.034 C 
ENDBRANCH  32  33
ENDBRANCH  28  32
ENDBRANCH   1  24
BRANCH   5  35
HETATM   35  O   UNL     1      38.079 -11.754   1.702  1.00  0.00    -0.355 OA
HETATM   36  H   UNL     1      37.372 -12.409   1.846  1.00  0.00     0.218 HD
ENDBRANCH   5  35
BRANCH   2  37
HETATM   37  C   UNL     1      41.491 -11.787  -1.932  1.00  0.00     0.155 C 
BRANCH  37  38
HETATM   38  C   UNL     1      42.908 -11.396  -1.455  1.00  0.00     0.254 C 
BRANCH  38  39
HETATM   39  N   UNL     1      43.386 -10.071  -2.011  1.00  0.00    -0.077 N 
HETATM   40  H   UNL     1      44.293 -10.286  -2.474  1.00  0.00     0.279 HD
HETATM   41  C   UNL     1      42.466  -9.445  -3.010  1.00  0.00     0.269 C 
HETATM   42  C   UNL     1      43.753  -9.109  -0.916  1.00  0.00     0.269 C 
ENDBRANCH  38  39
ENDBRANCH  37  38
ENDBRANCH   2  37
TORSDOF 13
ENDMDL
MODEL 3
REMARK VINA RESULT:      -8.3      2.367      7.630
REMARK  13 active torsions:
REMARK  status: ('A' for Active; 'I' for Inactive)
REMARK    1  A    between atoms: C_2  and  O_3 
REMARK    2  A    between atoms: O_3  and  C_4 
REMARK    3  A    between atoms: C_5  and  O_6 
REMARK    4  A    between atoms: C_9  and  C_10 
REMARK    5  A    between atoms: N_11  and  C_12 
REMARK    6  A    between atoms: C_12  and  C_13 
REMARK    7  A    between atoms: C_13  and  N_14 
REMARK    8  A    between atoms: C_20  and  O_21 
REMARK    9  A    between atoms: C_22  and  C_23 
REMARK   10  A    between atoms: C_23  and  C_24 
REMARK   11  A    between atoms: C_28  and  O_29 
REMARK   12  A    between atoms: O_29  and  C_30 
REMARK   13  A    between atoms: C_30  and  C_31 
ROOT
HETATM    1  C   UNL     1      42.060 -14.819   2.848  1.00  0.00     0.161 A 
HETATM    2  N   UNL     1      42.299 -16.081   2.138  1.00  0.00    -0.332 N 
HETATM    3  C   UNL     1      41.120 -16.601   1.658  1.00  0.00     0.278 A 
HETATM    4  O   UNL     1      40.987 -17.553   0.909  1.00  0.00    -0.265 OA
HETATM    5  C   UNL     1      40.016 -15.755   2.148  1.00  0.00     0.146 A 
HETATM    6  C   UNL     1      40.564 -14.725   2.805  1.00  0.00     0.059 A 
ENDROOT
BRANCH   6   7
HETATM    7  C   UNL     1      39.769 -13.520   3.153  1.00  0.00     0.194 C 
HETATM    8  O   UNL     1      38.784 -13.189   2.502  1.00  0.00    -0.287 OA
BRANCH   7   9
HETATM    9  C   UNL     1      40.252 -12.629   4.227  1.00  0.00     0.021 A 
HETATM   10  C   UNL     1      40.901 -11.420   3.923  1.00  0.00    -0.045 A 
HETATM   11  C   UNL     1      41.056 -10.920   2.513  1.00  0.00     0.049 C 
HETATM   12  C   UNL     1      41.368 -10.630   4.985  1.00  0.00     0.044 A 
HETATM   13  C   UNL     1      41.211 -11.032   6.314  1.00  0.00     0.069 A 
HETATM   14  C   UNL     1      40.508 -12.199   6.602  1.00  0.00     0.038 A 
HETATM   15  C   UNL     1      40.012 -12.986   5.559  1.00  0.00     0.019 A 
BRANCH  13  16
HETATM   16  O   UNL     1      41.746 -10.182   7.238  1.00  0.00    -0.347 OA
BRANCH  16  17
HETATM   17  C   UNL     1      41.392 -10.427   8.599  1.00  0.00     0.214 C 
BRANCH  17  18
HETATM   18  C   UNL     1      42.667 -10.675   9.365  1.00  0.00    -0.034 A 
HETATM   19  C   UNL     1      42.854 -10.115  10.637  1.00  0.00     0.009 A 
HETATM   20  C   UNL     1      44.047 -10.323  11.333  1.00  0.00     0.001 A 
HETATM   21  C   UNL     1      45.064 -11.085  10.763  1.00  0.00     0.000 A 
HETATM   22  C   UNL     1      44.894 -11.636   9.495  1.00  0.00     0.001 A 
HETATM   23  C   UNL     1      43.703 -11.430   8.796  1.00  0.00     0.009 A 
ENDBRANCH  17  18
ENDBRANCH  16  17
ENDBRANCH  13  16
ENDBRANCH   7   9
ENDBRANCH   6   7
BRANCH   1  24
HETATM   24  C   UNL     1      42.734 -14.848   4.205  1.00  0.00    -0.028 A 
HETATM   25  C   UNL     1      43.637 -13.847   4.607  1.00  0.00     0.012 A 
HETATM   26  C   UNL     1      44.186 -13.864   5.889  1.00  0.00     0.040 A 
HETATM   27  C   UNL     1      43.803 -14.857   6.782  1.00  0.00     0.099 A 
HETATM   28  C   UNL     1      42.878 -15.841   6.427  1.00  0.00     0.102 A 
HETATM   29  C   UNL     1      42.369 -15.851   5.128  1.00  0.00     0.049 A 
BRANCH  27  30
HETATM   30  O   UNL     1      44.339 -14.832   8.038  1.00  0.00    -0.358 OA
HETATM   31  H   UNL     1      44.484 -13.888   8.247  1.00  0.00     0.218 HD
ENDBRANCH  27  30
BRANCH  28  32
HETATM   32  O   UNL     1      42.547 -16.723   7.421  1.00  0.00    -0.349 OA
BRANCH  32  33
HETATM   33  C   UNL     1      42.900 -18.091   7.198  1.00  0.00     0.171 C 
HETATM   34  C   UNL     1      44.136 -18.403   8.021  1.00  0.00     0.034 C 
ENDBRANCH  32  33
ENDBRANCH  28  32
ENDBRANCH   1  24
BRANCH   5  35
HETATM   35  O   UNL     1      38.709 -15.987   1.844  1.00  0.00    -0.355 OA
HETATM   36  H   UNL     1      38.590 -15.841   0.888  1.00  0.00     0.218 HD
ENDBRANCH   5  35
BRANCH   2  37
HETATM   37  C   UNL     1      43.655 -16.603   1.924  1.00  0.00     0.155 C 
BRANCH  37  38
HETATM   38  C   UNL     1      43.793 -18.054   1.408  1.00  0.00     0.254 C 
BRANCH  38  39
HETATM   39  N   UNL     1      43.365 -19.095   2.420  1.00  0.00    -0.077 N 
HETATM   40  H   UNL     1      42.361 -18.891   2.607  1.00  0.00     0.279 HD
HETATM   41  C   UNL     1      43.496 -20.511   1.954  1.00  0.00     0.269 C 
HETATM   42  C   UNL     1      44.034 -18.885   3.750  1.00  0.00     0.269 C 
ENDBRANCH  38  39
ENDBRANCH  37  38
ENDBRANCH   2  37
TORSDOF 13
ENDMDL
MODEL 4
REMARK VINA RESULT:      -8.1      2.353      5.261
REMARK  13 active torsions:
REMARK  status: ('A' for Active; 'I' for Inactive)
REMARK    1  A    between atoms: C_2  and  O_3 
REMARK    2  A    between atoms: O_3  and  C_4 
REMARK    3  A    between atoms: C_5  and  O_6 
REMARK    4  A    between atoms: C_9  and  C_10 
REMARK    5  A    between atoms: N_11  and  C_12 
REMARK    6  A    between atoms: C_12  and  C_13 
REMARK    7  A    between atoms: C_13  and  N_14 
REMARK    8  A    between atoms: C_20  and  O_21 
REMARK    9  A    between atoms: C_22  and  C_23 
REMARK   10  A    between atoms: C_23  and  C_24 
REMARK   11  A    between atoms: C_28  and  O_29 
REMARK   12  A    between atoms: O_29  and  C_30 
REMARK   13  A    between atoms: C_30  and  C_31 
ROOT
HETATM    1  C   UNL     1      40.752 -12.150   3.803  1.00  0.00     0.161 A 
HETATM    2  N   UNL     1      39.760 -11.117   4.127  1.00  0.00    -0.332 N 
HETATM    3  C   UNL     1      39.375 -11.206   5.443  1.00  0.00     0.278 A 
HETATM    4  O   UNL     1      38.681 -10.418   6.062  1.00  0.00    -0.265 OA
HETATM    5  C   UNL     1      40.013 -12.403   6.025  1.00  0.00     0.146 A 
HETATM    6  C   UNL     1      40.817 -12.920   5.088  1.00  0.00     0.059 A 
ENDROOT
BRANCH   6   7
HETATM    7  C   UNL     1      41.847 -13.934   5.429  1.00  0.00     0.194 C 
HETATM    8  O   UNL     1      42.653 -13.753   6.335  1.00  0.00    -0.287 OA
BRANCH   7   9
HETATM    9  C   UNL     1      41.987 -15.130   4.574  1.00  0.00     0.021 A 
HETATM   10  C   UNL     1      42.922 -15.161   3.525  1.00  0.00    -0.045 A 
HETATM   11  C   UNL     1      43.888 -14.036   3.273  1.00  0.00     0.049 C 
HETATM   12  C   UNL     1      42.986 -16.311   2.724  1.00  0.00     0.044 A 
HETATM   13  C   UNL     1      42.137 -17.398   2.944  1.00  0.00     0.069 A 
HETATM   14  C   UNL     1      41.261 -17.380   4.027  1.00  0.00     0.038 A 
HETATM   15  C   UNL     1      41.202 -16.254   4.853  1.00  0.00     0.019 A 
BRANCH  13  16
HETATM   16  O   UNL     1      42.288 -18.433   2.067  1.00  0.00    -0.347 OA
BRANCH  16  17
HETATM   17  C   UNL     1      43.630 -18.790   1.738  1.00  0.00     0.214 C 
BRANCH  17  18
HETATM   18  C   UNL     1      44.021 -19.953   2.614  1.00  0.00    -0.034 A 
HETATM   19  C   UNL     1      44.427 -19.742   3.940  1.00  0.00     0.009 A 
HETATM   20  C   UNL     1      44.814 -20.818   4.741  1.00  0.00     0.001 A 
HETATM   21  C   UNL     1      44.809 -22.111   4.224  1.00  0.00     0.000 A 
HETATM   22  C   UNL     1      44.420 -22.332   2.904  1.00  0.00     0.001 A 
HETATM   23  C   UNL     1      44.031 -21.258   2.100  1.00  0.00     0.009 A 
ENDBRANCH  17  18
ENDBRANCH  16  17
ENDBRANCH  13  16
ENDBRANCH   7   9
ENDBRANCH   6   7
BRANCH   1  24
HETATM   24  C   UNL     1      40.341 -12.891   2.547  1.00  0.00    -0.028 A 
HETATM   25  C   UNL     1      39.330 -13.870   2.560  1.00  0.00     0.012 A 
HETATM   26  C   UNL     1      38.926 -14.483   1.375  1.00  0.00     0.040 A 
HETATM   27  C   UNL     1      39.502 -14.092   0.173  1.00  0.00     0.099 A 
HETATM   28  C   UNL     1      40.478 -13.095   0.122  1.00  0.00     0.102 A 
HETATM   29  C   UNL     1      40.917 -12.519   1.314  1.00  0.00     0.049 A 
BRANCH  27  30
HETATM   30  O   UNL     1      39.067 -14.694  -0.973  1.00  0.00    -0.358 OA
HETATM   31  H   UNL     1      38.094 -14.751  -0.892  1.00  0.00     0.218 HD
ENDBRANCH  27  30
BRANCH  28  32
HETATM   32  O   UNL     1      40.918 -12.767  -1.133  1.00  0.00    -0.349 OA
BRANCH  32  33
HETATM   33  C   UNL     1      42.201 -13.277  -1.509  1.00  0.00     0.171 C 
HETATM   34  C   UNL     1      42.707 -12.468  -2.689  1.00  0.00     0.034 C 
ENDBRANCH  32  33
ENDBRANCH  28  32
ENDBRANCH   1  24
BRANCH   5  35
HETATM   35  O   UNL     1      39.848 -12.777   7.324  1.00  0.00    -0.355 OA
HETATM   36  H   UNL     1      40.234 -12.084   7.890  1.00  0.00     0.218 HD
ENDBRANCH   5  35
BRANCH   2  37
HETATM   37  C   UNL     1      39.357 -10.099   3.148  1.00  0.00     0.155 C 
BRANCH  37  38
HETATM   38  C   UNL     1      37.916 -10.167   2.592  1.00  0.00     0.254 C 
BRANCH  38  39
HETATM   39  N   UNL     1      37.831 -10.806   1.222  1.00  0.00    -0.077 N 
HETATM   40  H   UNL     1      38.521 -11.585   1.246  1.00  0.00     0.279 HD
HETATM   41  C   UNL     1      36.485 -11.358   0.873  1.00  0.00     0.269 C 
HETATM   42  C   UNL     1      38.349  -9.890   0.149  1.00  0.00     0.269 C 
ENDBRANCH  38  39
ENDBRANCH  37  38
ENDBRANCH   2  37
TORSDOF 13
ENDMDL
MODEL 5
REMARK VINA RESULT:      -8.0      2.288      5.414
REMARK  13 active torsions:
REMARK  status: ('A' for Active; 'I' for Inactive)
REMARK    1  A    between atoms: C_2  and  O_3 
REMARK    2  A    between atoms: O_3  and  C_4 
REMARK    3  A    between atoms: C_5  and  O_6 
REMARK    4  A    between atoms: C_9  and  C_10 
REMARK    5  A    between atoms: N_11  and  C_12 
REMARK    6  A    between atoms: C_12  and  C_13 
REMARK    7  A    between atoms: C_13  and  N_14 
REMARK    8  A    between atoms: C_20  and  O_21 
REMARK    9  A    between atoms: C_22  and  C_23 
REMARK   10  A    between atoms: C_23  and  C_24 
REMARK   11  A    between atoms: C_28  and  O_29 
REMARK   12  A    between atoms: O_29  and  C_30 
REMARK   13  A    between atoms: C_30  and  C_31 
ROOT
HETATM    1  C   UNL     1      41.896 -12.773   2.758  1.00  0.00     0.161 A 
HETATM    2  N   UNL     1      41.600 -11.812   1.689  1.00  0.00    -0.332 N 
HETATM    3  C   UNL     1      40.898 -10.737   2.180  1.00  0.00     0.278 A 
HETATM    4  O   UNL     1      40.624  -9.706   1.590  1.00  0.00    -0.265 OA
HETATM    5  C   UNL     1      40.584 -11.005   3.596  1.00  0.00     0.146 A 
HETATM    6  C   UNL     1      41.180 -12.158   3.924  1.00  0.00     0.059 A 
ENDROOT
BRANCH   6   7
HETATM    7  C   UNL     1      41.341 -12.568   5.342  1.00  0.00     0.194 C 
HETATM    8  O   UNL     1      40.895 -11.891   6.262  1.00  0.00    -0.287 OA
BRANCH   7   9
HETATM    9  C   UNL     1      42.168 -13.750   5.658  1.00  0.00     0.021 A 
HETATM   10  C   UNL     1      41.577 -15.007   5.874  1.00  0.00    -0.045 A 
HETATM   11  C   UNL     1      40.102 -15.243   5.705  1.00  0.00     0.049 C 
HETATM   12  C   UNL     1      42.410 -16.086   6.204  1.00  0.00     0.044 A 
HETATM   13  C   UNL     1      43.792 -15.925   6.332  1.00  0.00     0.069 A 
HETATM   14  C   UNL     1      44.371 -14.690   6.051  1.00  0.00     0.038 A 
HETATM   15  C   UNL     1      43.560 -13.609   5.694  1.00  0.00     0.019 A 
BRANCH  13  16
HETATM   16  O   UNL     1      44.471 -17.053   6.692  1.00  0.00    -0.347 OA
BRANCH  16  17
HETATM   17  C   UNL     1      43.680 -18.140   7.172  1.00  0.00     0.214 C 
BRANCH  17  18
HETATM   18  C   UNL     1      44.093 -19.376   6.415  1.00  0.00    -0.034 A 
HETATM   19  C   UNL     1      43.749 -20.650   6.888  1.00  0.00     0.009 A 
HETATM   20  C   UNL     1      44.156 -21.795   6.199  1.00  0.00     0.001 A 
HETATM   21  C   UNL     1      44.917 -21.678   5.039  1.00  0.00     0.000 A 
HETATM   22  C   UNL     1      45.277 -20.417   4.566  1.00  0.00     0.001 A 
HETATM   23  C   UNL     1      44.870 -19.271   5.251  1.00  0.00     0.009 A 
ENDBRANCH  17  18
ENDBRANCH  16  17
ENDBRANCH  13  16
ENDBRANCH   7   9
ENDBRANCH   6   7
BRANCH   1  24
HETATM   24  C   UNL     1      41.493 -14.170   2.331  1.00  0.00    -0.028 A 
HETATM   25  C   UNL     1      40.157 -14.608   2.390  1.00  0.00     0.012 A 
HETATM   26  C   UNL     1      39.808 -15.874   1.922  1.00  0.00     0.040 A 
HETATM   27  C   UNL     1      40.784 -16.687   1.359  1.00  0.00     0.099 A 
HETATM   28  C   UNL     1      42.110 -16.265   1.248  1.00  0.00     0.102 A 
HETATM   29  C   UNL     1      42.467 -15.019   1.762  1.00  0.00     0.049 A 
BRANCH  27  30
HETATM   30  O   UNL     1      40.405 -17.912   0.887  1.00  0.00    -0.358 OA
HETATM   31  H   UNL     1      39.675 -17.742   0.260  1.00  0.00     0.218 HD
ENDBRANCH  27  30
BRANCH  28  32
HETATM   32  O   UNL     1      42.955 -17.141   0.619  1.00  0.00    -0.349 OA
BRANCH  32  33
HETATM   33  C   UNL     1      43.980 -17.724   1.429  1.00  0.00     0.171 C 
HETATM   34  C   UNL     1      43.491 -19.076   1.915  1.00  0.00     0.034 C 
ENDBRANCH  32  33
ENDBRANCH  28  32
ENDBRANCH   1  24
BRANCH   5  35
HETATM   35  O   UNL     1      39.903 -10.130   4.386  1.00  0.00    -0.355 OA
HETATM   36  H   UNL     1      38.951 -10.326   4.305  1.00  0.00     0.218 HD
ENDBRANCH   5  35
BRANCH   2  37
HETATM   37  C   UNL     1      42.105 -11.997   0.322  1.00  0.00     0.155 C 
BRANCH  37  38
HETATM   38  C   UNL     1      41.072 -12.034  -0.827  1.00  0.00     0.254 C 
BRANCH  38  39
HETATM   39  N   UNL     1      40.031 -13.121  -0.665  1.00  0.00    -0.077 N 
HETATM   40  H   UNL     1      40.165 -13.478   0.303  1.00  0.00     0.279 HD
HETATM   41  C   UNL     1      38.616 -12.660  -0.824  1.00  0.00     0.269 C 
HETATM   42  C   UNL     1      40.327 -14.309  -1.537  1.00  0.00     0.269 C 
ENDBRANCH  38  39
ENDBRANCH  37  38
ENDBRANCH   2  37
TORSDOF 13
ENDMDL
MODEL 6
REMARK VINA RESULT:      -8.0      2.402      5.307
REMARK  13 active torsions:
REMARK  status: ('A' for Active; 'I' for Inactive)
REMARK    1  A    between atoms: C_2  and  O_3 
REMARK    2  A    between atoms: O_3  and  C_4 
REMARK    3  A    between atoms: C_5  and  O_6 
REMARK    4  A    between atoms: C_9  and  C_10 
REMARK    5  A    between atoms: N_11  and  C_12 
REMARK    6  A    between atoms: C_12  and  C_13 
REMARK    7  A    between atoms: C_13  and  N_14 
REMARK    8  A    between atoms: C_20  and  O_21 
REMARK    9  A    between atoms: C_22  and  C_23 
REMARK   10  A    between atoms: C_23  and  C_24 
REMARK   11  A    between atoms: C_28  and  O_29 
REMARK   12  A    between atoms: O_29  and  C_30 
REMARK   13  A    between atoms: C_30  and  C_31 
ROOT
HETATM    1  C   UNL     1      40.696 -11.551   3.428  1.00  0.00     0.161 A 
HETATM    2  N   UNL     1      39.427 -10.831   3.266  1.00  0.00    -0.332 N 
HETATM    3  C   UNL     1      38.646 -10.959   4.390  1.00  0.00     0.278 A 
HETATM    4  O   UNL     1      37.606 -10.372   4.635  1.00  0.00    -0.265 OA
HETATM    5  C   UNL     1      39.324 -11.891   5.311  1.00  0.00     0.146 A 
HETATM    6  C   UNL     1      40.506 -12.203   4.765  1.00  0.00     0.059 A 
ENDROOT
BRANCH   6   7
HETATM    7  C   UNL     1      41.574 -12.860   5.559  1.00  0.00     0.194 C 
HETATM    8  O   UNL     1      42.294 -12.223   6.320  1.00  0.00    -0.287 OA
BRANCH   7   9
HETATM    9  C   UNL     1      41.862 -14.290   5.330  1.00  0.00     0.021 A 
HETATM   10  C   UNL     1      42.934 -14.688   4.513  1.00  0.00    -0.045 A 
HETATM   11  C   UNL     1      43.898 -13.703   3.912  1.00  0.00     0.049 C 
HETATM   12  C   UNL     1      43.139 -16.060   4.304  1.00  0.00     0.044 A 
HETATM   13  C   UNL     1      42.294 -17.016   4.875  1.00  0.00     0.069 A 
HETATM   14  C   UNL     1      41.276 -16.610   5.734  1.00  0.00     0.038 A 
HETATM   15  C   UNL     1      41.073 -15.249   5.977  1.00  0.00     0.019 A 
BRANCH  13  16
HETATM   16  O   UNL     1      42.591 -18.309   4.557  1.00  0.00    -0.347 OA
BRANCH  16  17
HETATM   17  C   UNL     1      43.971 -18.673   4.620  1.00  0.00     0.214 C 
BRANCH  17  18
HETATM   18  C   UNL     1      44.146 -19.941   3.824  1.00  0.00    -0.034 A 
HETATM   19  C   UNL     1      43.797 -19.985   2.466  1.00  0.00     0.009 A 
HETATM   20  C   UNL     1      43.935 -21.167   1.737  1.00  0.00     0.001 A 
HETATM   21  C   UNL     1      44.414 -22.318   2.358  1.00  0.00     0.000 A 
HETATM   22  C   UNL     1      44.753 -22.291   3.710  1.00  0.00     0.001 A 
HETATM   23  C   UNL     1      44.617 -21.109   4.441  1.00  0.00     0.009 A 
ENDBRANCH  17  18
ENDBRANCH  16  17
ENDBRANCH  13  16
ENDBRANCH   7   9
ENDBRANCH   6   7
BRANCH   1  24
HETATM   24  C   UNL     1      40.946 -12.442   2.229  1.00  0.00    -0.028 A 
HETATM   25  C   UNL     1      41.931 -12.138   1.270  1.00  0.00     0.012 A 
HETATM   26  C   UNL     1      42.185 -13.015   0.217  1.00  0.00     0.040 A 
HETATM   27  C   UNL     1      41.487 -14.213   0.141  1.00  0.00     0.099 A 
HETATM   28  C   UNL     1      40.533 -14.563   1.099  1.00  0.00     0.102 A 
HETATM   29  C   UNL     1      40.244 -13.662   2.124  1.00  0.00     0.049 A 
BRANCH  27  30
HETATM   30  O   UNL     1      41.777 -15.062  -0.888  1.00  0.00    -0.358 OA
HETATM   31  H   UNL     1      42.707 -14.881  -1.129  1.00  0.00     0.218 HD
ENDBRANCH  27  30
BRANCH  28  32
HETATM   32  O   UNL     1      39.962 -15.798   0.937  1.00  0.00    -0.349 OA
BRANCH  32  33
HETATM   33  C   UNL     1      40.245 -16.764   1.952  1.00  0.00     0.171 C 
HETATM   34  C   UNL     1      41.256 -17.752   1.400  1.00  0.00     0.034 C 
ENDBRANCH  32  33
ENDBRANCH  28  32
ENDBRANCH   1  24
BRANCH   5  35
HETATM   35  O   UNL     1      38.820 -12.229   6.530  1.00  0.00    -0.355 OA
HETATM   36  H   UNL     1      38.391 -13.101   6.449  1.00  0.00     0.218 HD
ENDBRANCH   5  35
BRANCH   2  37
HETATM   37  C   UNL     1      39.143 -10.022   2.072  1.00  0.00     0.155 C 
BRANCH  37  38
HETATM   38  C   UNL     1      37.940 -10.435   1.194  1.00  0.00     0.254 C 
BRANCH  38  39
HETATM   39  N   UNL     1      38.305 -10.655  -0.259  1.00  0.00    -0.077 N 
HETATM   40  H   UNL     1      37.513 -10.247  -0.799  1.00  0.00     0.279 HD
HETATM   41  C   UNL     1      39.578 -10.000  -0.690  1.00  0.00     0.269 C 
HETATM   42  C   UNL     1      38.281 -12.114  -0.623  1.00  0.00     0.269 C 
ENDBRANCH  38  39
ENDBRANCH  37  38
ENDBRANCH   2  37
TORSDOF 13
ENDMDL
MODEL 7
REMARK VINA RESULT:      -7.9      2.385      7.728
REMARK  13 active torsions:
REMARK  status: ('A' for Active; 'I' for Inactive)
REMARK    1  A    between atoms: C_2  and  O_3 
REMARK    2  A    between atoms: O_3  and  C_4 
REMARK    3  A    between atoms: C_5  and  O_6 
REMARK    4  A    between atoms: C_9  and  C_10 
REMARK    5  A    between atoms: N_11  and  C_12 
REMARK    6  A    between atoms: C_12  and  C_13 
REMARK    7  A    between atoms: C_13  and  N_14 
REMARK    8  A    between atoms: C_20  and  O_21 
REMARK    9  A    between atoms: C_22  and  C_23 
REMARK   10  A    between atoms: C_23  and  C_24 
REMARK   11  A    between atoms: C_28  and  O_29 
REMARK   12  A    between atoms: O_29  and  C_30 
REMARK   13  A    between atoms: C_30  and  C_31 
ROOT
HETATM    1  C   UNL     1      41.834 -15.359   3.324  1.00  0.00     0.161 A 
HETATM    2  N   UNL     1      42.060 -16.568   2.523  1.00  0.00    -0.332 N 
HETATM    3  C   UNL     1      40.943 -16.881   1.787  1.00  0.00     0.278 A 
HETATM    4  O   UNL     1      40.847 -17.733   0.920  1.00  0.00    -0.265 OA
HETATM    5  C   UNL     1      39.867 -15.948   2.172  1.00  0.00     0.146 A 
HETATM    6  C   UNL     1      40.393 -15.066   3.031  1.00  0.00     0.059 A 
ENDROOT
BRANCH   6   7
HETATM    7  C   UNL     1      39.686 -13.806   3.373  1.00  0.00     0.194 C 
HETATM    8  O   UNL     1      38.790 -13.358   2.666  1.00  0.00    -0.287 OA
BRANCH   7   9
HETATM    9  C   UNL     1      40.161 -13.007   4.520  1.00  0.00     0.021 A 
HETATM   10  C   UNL     1      41.141 -12.014   4.350  1.00  0.00    -0.045 A 
HETATM   11  C   UNL     1      41.687 -11.643   2.999  1.00  0.00     0.049 C 
HETATM   12  C   UNL     1      41.579 -11.309   5.482  1.00  0.00     0.044 A 
HETATM   13  C   UNL     1      41.071 -11.590   6.754  1.00  0.00     0.069 A 
HETATM   14  C   UNL     1      40.054 -12.530   6.897  1.00  0.00     0.038 A 
HETATM   15  C   UNL     1      39.586 -13.223   5.778  1.00  0.00     0.019 A 
BRANCH  13  16
HETATM   16  O   UNL     1      41.614 -10.851   7.765  1.00  0.00    -0.347 OA
BRANCH  16  17
HETATM   17  C   UNL     1      40.787 -10.646   8.910  1.00  0.00     0.214 C 
BRANCH  17  18
HETATM   18  C   UNL     1      41.680 -10.647  10.125  1.00  0.00    -0.034 A 
HETATM   19  C   UNL     1      43.017 -10.236  10.027  1.00  0.00     0.009 A 
HETATM   20  C   UNL     1      43.849 -10.263  11.148  1.00  0.00     0.001 A 
HETATM   21  C   UNL     1      43.357 -10.708  12.373  1.00  0.00     0.000 A 
HETATM   22  C   UNL     1      42.033 -11.131  12.480  1.00  0.00     0.001 A 
HETATM   23  C   UNL     1      41.198 -11.104  11.361  1.00  0.00     0.009 A 
ENDBRANCH  17  18
ENDBRANCH  16  17
ENDBRANCH  13  16
ENDBRANCH   7   9
ENDBRANCH   6   7
BRANCH   1  24
HETATM   24  C   UNL     1      42.233 -15.605   4.765  1.00  0.00    -0.028 A 
HETATM   25  C   UNL     1      41.493 -16.459   5.604  1.00  0.00     0.012 A 
HETATM   26  C   UNL     1      41.926 -16.721   6.903  1.00  0.00     0.040 A 
HETATM   27  C   UNL     1      43.117 -16.164   7.351  1.00  0.00     0.099 A 
HETATM   28  C   UNL     1      43.895 -15.347   6.529  1.00  0.00     0.102 A 
HETATM   29  C   UNL     1      43.435 -15.046   5.248  1.00  0.00     0.049 A 
BRANCH  27  30
HETATM   30  O   UNL     1      43.527 -16.460   8.620  1.00  0.00    -0.358 OA
HETATM   31  H   UNL     1      43.835 -15.616   9.005  1.00  0.00     0.218 HD
ENDBRANCH  27  30
BRANCH  28  32
HETATM   32  O   UNL     1      45.074 -14.913   7.077  1.00  0.00    -0.349 OA
BRANCH  32  33
HETATM   33  C   UNL     1      45.300 -13.501   7.057  1.00  0.00     0.171 C 
HETATM   34  C   UNL     1      44.760 -12.915   8.349  1.00  0.00     0.034 C 
ENDBRANCH  32  33
ENDBRANCH  28  32
ENDBRANCH   1  24
BRANCH   5  35
HETATM   35  O   UNL     1      38.623 -15.978   1.618  1.00  0.00    -0.355 OA
HETATM   36  H   UNL     1      38.364 -15.062   1.406  1.00  0.00     0.218 HD
ENDBRANCH   5  35
BRANCH   2  37
HETATM   37  C   UNL     1      43.366 -17.241   2.491  1.00  0.00     0.155 C 
BRANCH  37  38
HETATM   38  C   UNL     1      43.587 -18.427   3.458  1.00  0.00     0.254 C 
BRANCH  38  39
HETATM   39  N   UNL     1      44.242 -19.624   2.802  1.00  0.00    -0.077 N 
HETATM   40  H   UNL     1      44.969 -19.221   2.174  1.00  0.00     0.279 HD
HETATM   41  C   UNL     1      44.893 -20.579   3.751  1.00  0.00     0.269 C 
HETATM   42  C   UNL     1      43.300 -20.328   1.866  1.00  0.00     0.269 C 
ENDBRANCH  38  39
ENDBRANCH  37  38
ENDBRANCH   2  37
TORSDOF 13
ENDMDL
MODEL 8
REMARK VINA RESULT:      -7.8      2.940      4.857
REMARK  13 active torsions:
REMARK  status: ('A' for Active; 'I' for Inactive)
REMARK    1  A    between atoms: C_2  and  O_3 
REMARK    2  A    between atoms: O_3  and  C_4 
REMARK    3  A    between atoms: C_5  and  O_6 
REMARK    4  A    between atoms: C_9  and  C_10 
REMARK    5  A    between atoms: N_11  and  C_12 
REMARK    6  A    between atoms: C_12  and  C_13 
REMARK    7  A    between atoms: C_13  and  N_14 
REMARK    8  A    between atoms: C_20  and  O_21 
REMARK    9  A    between atoms: C_22  and  C_23 
REMARK   10  A    between atoms: C_23  and  C_24 
REMARK   11  A    between atoms: C_28  and  O_29 
REMARK   12  A    between atoms: O_29  and  C_30 
REMARK   13  A    between atoms: C_30  and  C_31 
ROOT
HETATM    1  C   UNL     1      40.198 -11.733   0.022  1.00  0.00     0.161 A 
HETATM    2  N   UNL     1      40.988 -10.606  -0.489  1.00  0.00    -0.332 N 
HETATM    3  C   UNL     1      41.950 -11.043  -1.368  1.00  0.00     0.278 A 
HETATM    4  O   UNL     1      42.672 -10.357  -2.071  1.00  0.00    -0.265 OA
HETATM    5  C   UNL     1      41.919 -12.518  -1.380  1.00  0.00     0.146 A 
HETATM    6  C   UNL     1      40.898 -12.902  -0.604  1.00  0.00     0.059 A 
ENDROOT
BRANCH   6   7
HETATM    7  C   UNL     1      40.380 -14.293  -0.641  1.00  0.00     0.194 C 
HETATM    8  O   UNL     1      39.482 -14.625  -1.407  1.00  0.00    -0.287 OA
BRANCH   7   9
HETATM    9  C   UNL     1      40.868 -15.266   0.356  1.00  0.00     0.021 A 
HETATM   10  C   UNL     1      40.122 -15.547   1.514  1.00  0.00    -0.045 A 
HETATM   11  C   UNL     1      38.760 -14.958   1.758  1.00  0.00     0.049 C 
HETATM   12  C   UNL     1      40.651 -16.455   2.444  1.00  0.00     0.044 A 
HETATM   13  C   UNL     1      41.894 -17.060   2.241  1.00  0.00     0.069 A 
HETATM   14  C   UNL     1      42.591 -16.823   1.059  1.00  0.00     0.038 A 
HETATM   15  C   UNL     1      42.068 -15.943   0.109  1.00  0.00     0.019 A 
BRANCH  13  16
HETATM   16  O   UNL     1      42.298 -17.893   3.244  1.00  0.00    -0.347 OA
BRANCH  16  17
HETATM   17  C   UNL     1      43.705 -18.106   3.359  1.00  0.00     0.214 C 
BRANCH  17  18
HETATM   18  C   UNL     1      43.958 -19.585   3.210  1.00  0.00    -0.034 A 
HETATM   19  C   UNL     1      44.577 -20.310   4.239  1.00  0.00     0.009 A 
HETATM   20  C   UNL     1      44.834 -21.674   4.088  1.00  0.00     0.001 A 
HETATM   21  C   UNL     1      44.483 -22.324   2.907  1.00  0.00     0.000 A 
HETATM   22  C   UNL     1      43.878 -21.612   1.873  1.00  0.00     0.001 A 
HETATM   23  C   UNL     1      43.619 -20.248   2.021  1.00  0.00     0.009 A 
ENDBRANCH  17  18
ENDBRANCH  16  17
ENDBRANCH  13  16
ENDBRANCH   7   9
ENDBRANCH   6   7
BRANCH   1  24
HETATM   24  C   UNL     1      40.120 -11.673   1.533  1.00  0.00    -0.028 A 
HETATM   25  C   UNL     1      38.918 -11.381   2.204  1.00  0.00     0.012 A 
HETATM   26  C   UNL     1      38.864 -11.403   3.597  1.00  0.00     0.040 A 
HETATM   27  C   UNL     1      39.996 -11.757   4.319  1.00  0.00     0.099 A 
HETATM   28  C   UNL     1      41.193 -12.092   3.682  1.00  0.00     0.102 A 
HETATM   29  C   UNL     1      41.259 -12.020   2.291  1.00  0.00     0.049 A 
BRANCH  27  30
HETATM   30  O   UNL     1      39.904 -11.794   5.682  1.00  0.00    -0.358 OA
HETATM   31  H   UNL     1      39.056 -12.240   5.879  1.00  0.00     0.218 HD
ENDBRANCH  27  30
BRANCH  28  32
HETATM   32  O   UNL     1      42.213 -12.477   4.512  1.00  0.00    -0.349 OA
BRANCH  32  33
HETATM   33  C   UNL     1      42.485 -13.880   4.571  1.00  0.00     0.171 C 
HETATM   34  C   UNL     1      43.765 -14.149   3.801  1.00  0.00     0.034 C 
ENDBRANCH  32  33
ENDBRANCH  28  32
ENDBRANCH   1  24
BRANCH   5  35
HETATM   35  O   UNL     1      42.742 -13.273  -2.159  1.00  0.00    -0.355 OA
HETATM   36  H   UNL     1      43.185 -13.927  -1.587  1.00  0.00     0.218 HD
ENDBRANCH   5  35
BRANCH   2  37
HETATM   37  C   UNL     1      40.669  -9.216  -0.137  1.00  0.00     0.155 C 
BRANCH  37  38
HETATM   38  C   UNL     1      41.592  -8.501   0.877  1.00  0.00     0.254 C 
BRANCH  38  39
HETATM   39  N   UNL     1      40.836  -7.782   1.974  1.00  0.00    -0.077 N 
HETATM   40  H   UNL     1      41.238  -6.822   1.991  1.00  0.00     0.279 HD
HETATM   41  C   UNL     1      39.359  -7.688   1.757  1.00  0.00     0.269 C 
HETATM   42  C   UNL     1      41.163  -8.340   3.331  1.00  0.00     0.269 C 
ENDBRANCH  38  39
ENDBRANCH  37  38
ENDBRANCH   2  37
TORSDOF 13
ENDMDL
MODEL 9
REMARK VINA RESULT:      -7.8      3.320      6.399
REMARK  13 active torsions:
REMARK  status: ('A' for Active; 'I' for Inactive)
REMARK    1  A    between atoms: C_2  and  O_3 
REMARK    2  A    between atoms: O_3  and  C_4 
REMARK    3  A    between atoms: C_5  and  O_6 
REMARK    4  A    between atoms: C_9  and  C_10 
REMARK    5  A    between atoms: N_11  and  C_12 
REMARK    6  A    between atoms: C_12  and  C_13 
REMARK    7  A    between atoms: C_13  and  N_14 
REMARK    8  A    between atoms: C_20  and  O_21 
REMARK    9  A    between atoms: C_22  and  C_23 
REMARK   10  A    between atoms: C_23  and  C_24 
REMARK   11  A    between atoms: C_28  and  O_29 
REMARK   12  A    between atoms: O_29  and  C_30 
REMARK   13  A    between atoms: C_30  and  C_31 
ROOT
HETATM    1  C   UNL     1      40.543 -11.928   1.643  1.00  0.00     0.161 A 
HETATM    2  N   UNL     1      39.986 -10.607   1.331  1.00  0.00    -0.332 N 
HETATM    3  C   UNL     1      39.075 -10.224   2.286  1.00  0.00     0.278 A 
HETATM    4  O   UNL     1      38.542  -9.134   2.400  1.00  0.00    -0.265 OA
HETATM    5  C   UNL     1      38.892 -11.351   3.220  1.00  0.00     0.146 A 
HETATM    6  C   UNL     1      39.754 -12.310   2.860  1.00  0.00     0.059 A 
ENDROOT
BRANCH   6   7
HETATM    7  C   UNL     1      40.066 -13.447   3.763  1.00  0.00     0.194 C 
HETATM    8  O   UNL     1      39.569 -13.537   4.879  1.00  0.00    -0.287 OA
BRANCH   7   9
HETATM    9  C   UNL     1      41.098 -14.422   3.357  1.00  0.00     0.021 A 
HETATM   10  C   UNL     1      40.752 -15.584   2.645  1.00  0.00    -0.045 A 
HETATM   11  C   UNL     1      39.349 -15.853   2.175  1.00  0.00     0.049 C 
HETATM   12  C   UNL     1      41.770 -16.491   2.316  1.00  0.00     0.044 A 
HETATM   13  C   UNL     1      43.096 -16.265   2.695  1.00  0.00     0.069 A 
HETATM   14  C   UNL     1      43.434 -15.079   3.342  1.00  0.00     0.038 A 
HETATM   15  C   UNL     1      42.439 -14.150   3.654  1.00  0.00     0.019 A 
BRANCH  13  16
HETATM   16  O   UNL     1      43.972 -17.249   2.338  1.00  0.00    -0.347 OA
BRANCH  16  17
HETATM   17  C   UNL     1      43.414 -18.373   1.657  1.00  0.00     0.214 C 
BRANCH  17  18
HETATM   18  C   UNL     1      43.840 -19.614   2.399  1.00  0.00    -0.034 A 
HETATM   19  C   UNL     1      44.331 -19.528   3.709  1.00  0.00     0.009 A 
HETATM   20  C   UNL     1      44.750 -20.676   4.385  1.00  0.00     0.001 A 
HETATM   21  C   UNL     1      44.691 -21.917   3.756  1.00  0.00     0.000 A 
HETATM   22  C   UNL     1      44.216 -22.014   2.449  1.00  0.00     0.001 A 
HETATM   23  C   UNL     1      43.795 -20.868   1.771  1.00  0.00     0.009 A 
ENDBRANCH  17  18
ENDBRANCH  16  17
ENDBRANCH  13  16
ENDBRANCH   7   9
ENDBRANCH   6   7
BRANCH   1  24
HETATM   24  C   UNL     1      40.460 -12.829   0.428  1.00  0.00    -0.028 A 
HETATM   25  C   UNL     1      41.572 -13.559  -0.034  1.00  0.00     0.012 A 
HETATM   26  C   UNL     1      41.445 -14.433  -1.111  1.00  0.00     0.040 A 
HETATM   27  C   UNL     1      40.202 -14.611  -1.703  1.00  0.00     0.099 A 
HETATM   28  C   UNL     1      39.070 -13.934  -1.243  1.00  0.00     0.102 A 
HETATM   29  C   UNL     1      39.210 -13.022  -0.198  1.00  0.00     0.049 A 
BRANCH  27  30
HETATM   30  O   UNL     1      40.105 -15.494  -2.741  1.00  0.00    -0.358 OA
HETATM   31  H   UNL     1      39.728 -14.988  -3.488  1.00  0.00     0.218 HD
ENDBRANCH  27  30
BRANCH  28  32
HETATM   32  O   UNL     1      37.898 -14.247  -1.879  1.00  0.00    -0.349 OA
BRANCH  32  33
HETATM   33  C   UNL     1      37.620 -13.528  -3.084  1.00  0.00     0.171 C 
HETATM   34  C   UNL     1      36.932 -14.473  -4.053  1.00  0.00     0.034 C 
ENDBRANCH  32  33
ENDBRANCH  28  32
ENDBRANCH   1  24
BRANCH   5  35
HETATM   35  O   UNL     1      38.060 -11.299   4.296  1.00  0.00    -0.355 OA
HETATM   36  H   UNL     1      38.194 -10.442   4.741  1.00  0.00     0.218 HD
ENDBRANCH   5  35
BRANCH   2  37
HETATM   37  C   UNL     1      40.462  -9.817   0.187  1.00  0.00     0.155 C 
BRANCH  37  38
HETATM   38  C   UNL     1      41.968  -9.473   0.127  1.00  0.00     0.254 C 
BRANCH  38  39
HETATM   39  N   UNL     1      42.522  -9.440  -1.281  1.00  0.00    -0.077 N 
HETATM   40  H   UNL     1      42.196  -8.534  -1.676  1.00  0.00     0.279 HD
HETATM   41  C   UNL     1      44.014  -9.501  -1.367  1.00  0.00     0.269 C 
HETATM   42  C   UNL     1      41.873 -10.475  -2.157  1.00  0.00     0.269 C 
ENDBRANCH  38  39
ENDBRANCH  37  38
ENDBRANCH   2  37
TORSDOF 13
ENDMDL
MODEL 10
REMARK VINA RESULT:      -7.7      3.002      5.861
REMARK  13 active torsions:
REMARK  status: ('A' for Active; 'I' for Inactive)
REMARK    1  A    between atoms: C_2  and  O_3 
REMARK    2  A    between atoms: O_3  and  C_4 
REMARK    3  A    between atoms: C_5  and  O_6 
REMARK    4  A    between atoms: C_9  and  C_10 
REMARK    5  A    between atoms: N_11  and  C_12 
REMARK    6  A    between atoms: C_12  and  C_13 
REMARK    7  A    between atoms: C_13  and  N_14 
REMARK    8  A    between atoms: C_20  and  O_21 
REMARK    9  A    between atoms: C_22  and  C_23 
REMARK   10  A    between atoms: C_23  and  C_24 
REMARK   11  A    between atoms: C_28  and  O_29 
REMARK   12  A    between atoms: O_29  and  C_30 
REMARK   13  A    between atoms: C_30  and  C_31 
ROOT
HETATM    1  C   UNL     1      40.059 -12.272   2.275  1.00  0.00     0.161 A 
HETATM    2  N   UNL     1      39.612 -10.874   2.298  1.00  0.00    -0.332 N 
HETATM    3  C   UNL     1      39.066 -10.557   3.519  1.00  0.00     0.278 A 
HETATM    4  O   UNL     1      38.733  -9.452   3.911  1.00  0.00    -0.265 OA
HETATM    5  C   UNL     1      39.012 -11.789   4.328  1.00  0.00     0.146 A 
HETATM    6  C   UNL     1      39.606 -12.757   3.619  1.00  0.00     0.059 A 
ENDROOT
BRANCH   6   7
HETATM    7  C   UNL     1      40.012 -14.038   4.251  1.00  0.00     0.194 C 
HETATM    8  O   UNL     1      39.558 -14.394   5.332  1.00  0.00    -0.287 OA
BRANCH   7   9
HETATM    9  C   UNL     1      41.082 -14.839   3.624  1.00  0.00     0.021 A 
HETATM   10  C   UNL     1      40.775 -15.883   2.735  1.00  0.00    -0.045 A 
HETATM   11  C   UNL     1      39.367 -16.183   2.299  1.00  0.00     0.049 C 
HETATM   12  C   UNL     1      41.832 -16.632   2.195  1.00  0.00     0.044 A 
HETATM   13  C   UNL     1      43.160 -16.365   2.538  1.00  0.00     0.069 A 
HETATM   14  C   UNL     1      43.454 -15.286   3.368  1.00  0.00     0.038 A 
HETATM   15  C   UNL     1      42.416 -14.511   3.894  1.00  0.00     0.019 A 
BRANCH  13  16
HETATM   16  O   UNL     1      44.080 -17.195   1.966  1.00  0.00    -0.347 OA
BRANCH  16  17
HETATM   17  C   UNL     1      43.570 -18.395   1.384  1.00  0.00     0.214 C 
BRANCH  17  18
HETATM   18  C   UNL     1      43.984 -19.544   2.268  1.00  0.00    -0.034 A 
HETATM   19  C   UNL     1      43.936 -20.862   1.793  1.00  0.00     0.009 A 
HETATM   20  C   UNL     1      44.295 -21.927   2.622  1.00  0.00     0.001 A 
HETATM   21  C   UNL     1      44.695 -21.686   3.934  1.00  0.00     0.000 A 
HETATM   22  C   UNL     1      44.735 -20.380   4.422  1.00  0.00     0.001 A 
HETATM   23  C   UNL     1      44.378 -19.314   3.594  1.00  0.00     0.009 A 
ENDBRANCH  17  18
ENDBRANCH  16  17
ENDBRANCH  13  16
ENDBRANCH   7   9
ENDBRANCH   6   7
BRANCH   1  24
HETATM   24  C   UNL     1      39.519 -12.972   1.044  1.00  0.00    -0.028 A 
HETATM   25  C   UNL     1      38.138 -13.059   0.786  1.00  0.00     0.012 A 
HETATM   26  C   UNL     1      37.676 -13.647  -0.391  1.00  0.00     0.040 A 
HETATM   27  C   UNL     1      38.591 -14.112  -1.327  1.00  0.00     0.099 A 
HETATM   28  C   UNL     1      39.968 -14.003  -1.119  1.00  0.00     0.102 A 
HETATM   29  C   UNL     1      40.427 -13.460   0.081  1.00  0.00     0.049 A 
BRANCH  27  30
HETATM   30  O   UNL     1      38.107 -14.660  -2.481  1.00  0.00    -0.358 OA
HETATM   31  H   UNL     1      37.138 -14.712  -2.365  1.00  0.00     0.218 HD
ENDBRANCH  27  30
BRANCH  28  32
HETATM   32  O   UNL     1      40.755 -14.447  -2.148  1.00  0.00    -0.349 OA
BRANCH  32  33
HETATM   33  C   UNL     1      41.742 -13.532  -2.631  1.00  0.00     0.171 C 
HETATM   34  C   UNL     1      41.120 -12.701  -3.737  1.00  0.00     0.034 C 
ENDBRANCH  32  33
ENDBRANCH  28  32
ENDBRANCH   1  24
BRANCH   5  35
HETATM   35  O   UNL     1      38.533 -11.822   5.602  1.00  0.00    -0.355 OA
HETATM   36  H   UNL     1      39.174 -12.305   6.155  1.00  0.00     0.218 HD
ENDBRANCH   5  35
BRANCH   2  37
HETATM   37  C   UNL     1      39.841  -9.970   1.163  1.00  0.00     0.155 C 
BRANCH  37  38
HETATM   38  C   UNL     1      41.269  -9.414   0.963  1.00  0.00     0.254 C 
BRANCH  38  39
HETATM   39  N   UNL     1      41.799  -9.609  -0.441  1.00  0.00    -0.077 N 
HETATM   40  H   UNL     1      42.210  -8.689  -0.703  1.00  0.00     0.279 HD
HETATM   41  C   UNL     1      42.849 -10.667  -0.572  1.00  0.00     0.269 C 
HETATM   42  C   UNL     1      40.686  -9.807  -1.432  1.00  0.00     0.269 C 
ENDBRANCH  38  39
ENDBRANCH  37  38
ENDBRANCH   2  37
TORSDOF 13
ENDMDL
