MODEL 1
REMARK VINA RESULT:      -7.9      0.000      0.000
REMARK  11 active torsions:
REMARK  status: ('A' for Active; 'I' for Inactive)
REMARK    1  A    between atoms: C_2  and  O_3 
REMARK    2  A    between atoms: O_3  and  C_4 
REMARK    3  A    between atoms: C_5  and  C_6 
REMARK       I    between atoms: C_6  and  N_7 
REMARK    4  A    between atoms: N_7  and  C_8 
REMARK    5  A    between atoms: C_8  and  N_9 
REMARK    6  A    between atoms: N_9  and  C_10 
REMARK    7  A    between atoms: C_11  and  C_12 
REMARK       I    between atoms: C_12  and  N_13 
REMARK    8  A    between atoms: N_13  and  C_14 
REMARK    9  A    between atoms: C_14  and  C_15 
REMARK   10  A    between atoms: C_15  and  C_16 
REMARK   11  A    between atoms: C_16  and  O_17 
ROOT
HETATM    1  N   UNL     1      42.846 -16.217   5.455  1.00  0.00    -0.332 N 
HETATM    2  H   UNL     1      43.283 -16.283   4.532  1.00  0.00     0.168 HD
ENDROOT
BRANCH   1   3
HETATM    3  C   UNL     1      43.074 -17.283   6.286  1.00  0.00     0.179 C 
HETATM    4  S   UNL     1      43.205 -17.226   7.953  1.00  0.00    -0.040 SA
BRANCH   3   5
HETATM    5  N   UNL     1      43.235 -18.504   5.675  1.00  0.00    -0.299 N 
HETATM    6  C   UNL     1      44.424 -19.051   5.196  1.00  0.00     0.260 C 
HETATM    7  O   UNL     1      45.515 -18.809   5.699  1.00  0.00    -0.267 OA
HETATM    8  H   UNL     1      42.366 -18.890   5.335  1.00  0.00     0.171 HD
BRANCH   6   9
HETATM    9  C   UNL     1      44.266 -19.991   4.039  1.00  0.00     0.065 A 
HETATM   10  C   UNL     1      43.602 -19.613   2.864  1.00  0.00     0.084 A 
HETATM   11  C   UNL     1      43.500 -20.506   1.791  1.00  0.00     0.038 A 
HETATM   12  C   UNL     1      44.009 -21.800   1.898  1.00  0.00     0.003 A 
HETATM   13  C   UNL     1      44.623 -22.205   3.079  1.00  0.00     0.001 A 
HETATM   14  C   UNL     1      44.748 -21.310   4.145  1.00  0.00     0.020 A 
BRANCH  10  15
HETATM   15  O   UNL     1      43.095 -18.354   2.687  1.00  0.00    -0.350 OA
BRANCH  15  16
HETATM   16  C   UNL     1      43.783 -17.669   1.629  1.00  0.00     0.171 C 
HETATM   17  C   UNL     1      42.837 -16.661   0.999  1.00  0.00     0.034 C 
ENDBRANCH  15  16
ENDBRANCH  10  15
ENDBRANCH   6   9
ENDBRANCH   3   5
ENDBRANCH   1   3
BRANCH   1  18
HETATM   18  C   UNL     1      42.014 -15.092   5.662  1.00  0.00     0.050 A 
HETATM   19  C   UNL     1      42.567 -13.843   6.000  1.00  0.00     0.058 A 
HETATM   20  C   UNL     1      41.768 -12.691   6.013  1.00  0.00     0.019 A 
HETATM   21  C   UNL     1      40.410 -12.777   5.716  1.00  0.00     0.001 A 
HETATM   22  C   UNL     1      39.846 -14.014   5.415  1.00  0.00     0.002 A 
HETATM   23  C   UNL     1      40.642 -15.162   5.383  1.00  0.00     0.030 A 
BRANCH  19  24
HETATM   24  C   UNL     1      43.952 -13.685   6.521  1.00  0.00     0.253 C 
HETATM   25  N   UNL     1      44.035 -13.367   7.863  1.00  0.00    -0.357 N 
HETATM   26  H   UNL     1      43.169 -13.253   8.378  1.00  0.00     0.162 HD
HETATM   27  O   UNL     1      44.911 -13.731   5.764  1.00  0.00    -0.268 OA
BRANCH  25  28
HETATM   28  C   UNL     1      45.251 -12.841   8.445  1.00  0.00     0.125 C 
BRANCH  28  29
HETATM   29  C   UNL     1      45.013 -11.699   9.421  1.00  0.00     0.046 C 
BRANCH  29  30
HETATM   30  C   UNL     1      44.024 -12.073  10.515  1.00  0.00     0.165 C 
BRANCH  30  31
HETATM   31  O   UNL     1      44.321 -13.372  11.011  1.00  0.00    -0.401 OA
HETATM   32  H   UNL     1      44.124 -14.004  10.297  1.00  0.00     0.209 HD
ENDBRANCH  30  31
ENDBRANCH  29  30
ENDBRANCH  28  29
ENDBRANCH  25  28
ENDBRANCH  19  24
ENDBRANCH   1  18
TORSDOF 11
ENDMDL
MODEL 2
REMARK VINA RESULT:      -7.6      2.036      3.031
REMARK  11 active torsions:
REMARK  status: ('A' for Active; 'I' for Inactive)
REMARK    1  A    between atoms: C_2  and  O_3 
REMARK    2  A    between atoms: O_3  and  C_4 
REMARK    3  A    between atoms: C_5  and  C_6 
REMARK       I    between atoms: C_6  and  N_7 
REMARK    4  A    between atoms: N_7  and  C_8 
REMARK    5  A    between atoms: C_8  and  N_9 
REMARK    6  A    between atoms: N_9  and  C_10 
REMARK    7  A    between atoms: C_11  and  C_12 
REMARK       I    between atoms: C_12  and  N_13 
REMARK    8  A    between atoms: N_13  and  C_14 
REMARK    9  A    between atoms: C_14  and  C_15 
REMARK   10  A    between atoms: C_15  and  C_16 
REMARK   11  A    between atoms: C_16  and  O_17 
ROOT
HETATM    1  N   UNL     1      40.794 -16.143   4.006  1.00  0.00    -0.332 N 
HETATM    2  H   UNL     1      40.438 -16.599   4.851  1.00  0.00     0.168 HD
ENDROOT
BRANCH   1   3
HETATM    3  C   UNL     1      41.231 -16.992   3.024  1.00  0.00     0.179 C 
HETATM    4  S   UNL     1      40.726 -17.002   1.429  1.00  0.00    -0.040 SA
BRANCH   3   5
HETATM    5  N   UNL     1      42.152 -17.939   3.407  1.00  0.00    -0.299 N 
HETATM    6  C   UNL     1      43.349 -18.250   2.766  1.00  0.00     0.260 C 
HETATM    7  O   UNL     1      43.997 -17.425   2.133  1.00  0.00    -0.267 OA
HETATM    8  H   UNL     1      41.774 -18.614   4.057  1.00  0.00     0.171 HD
BRANCH   6   9
HETATM    9  C   UNL     1      43.808 -19.667   2.937  1.00  0.00     0.065 A 
HETATM   10  C   UNL     1      44.440 -20.103   4.109  1.00  0.00     0.084 A 
HETATM   11  C   UNL     1      44.827 -21.442   4.248  1.00  0.00     0.038 A 
HETATM   12  C   UNL     1      44.640 -22.343   3.202  1.00  0.00     0.003 A 
HETATM   13  C   UNL     1      44.063 -21.910   2.012  1.00  0.00     0.001 A 
HETATM   14  C   UNL     1      43.653 -20.581   1.877  1.00  0.00     0.020 A 
BRANCH  10  15
HETATM   15  O   UNL     1      44.639 -19.275   5.181  1.00  0.00    -0.350 OA
BRANCH  15  16
HETATM   16  C   UNL     1      43.905 -19.734   6.327  1.00  0.00     0.171 C 
HETATM   17  C   UNL     1      43.509 -18.535   7.170  1.00  0.00     0.034 C 
ENDBRANCH  15  16
ENDBRANCH  10  15
ENDBRANCH   6   9
ENDBRANCH   3   5
ENDBRANCH   1   3
BRANCH   1  18
HETATM   18  C   UNL     1      40.857 -14.730   4.052  1.00  0.00     0.050 A 
HETATM   19  C   UNL     1      41.987 -14.079   4.580  1.00  0.00     0.058 A 
HETATM   20  C   UNL     1      42.134 -12.691   4.449  1.00  0.00     0.019 A 
HETATM   21  C   UNL     1      41.148 -11.938   3.816  1.00  0.00     0.001 A 
HETATM   22  C   UNL     1      40.009 -12.570   3.321  1.00  0.00     0.002 A 
HETATM   23  C   UNL     1      39.866 -13.955   3.433  1.00  0.00     0.030 A 
BRANCH  19  24
HETATM   24  C   UNL     1      42.987 -14.765   5.441  1.00  0.00     0.253 C 
HETATM   25  N   UNL     1      43.242 -14.141   6.647  1.00  0.00    -0.357 N 
HETATM   26  H   UNL     1      42.751 -13.277   6.847  1.00  0.00     0.162 HD
HETATM   27  O   UNL     1      43.598 -15.741   5.029  1.00  0.00    -0.268 OA
BRANCH  25  28
HETATM   28  C   UNL     1      44.412 -14.462   7.436  1.00  0.00     0.125 C 
BRANCH  28  29
HETATM   29  C   UNL     1      45.337 -13.276   7.659  1.00  0.00     0.046 C 
BRANCH  29  30
HETATM   30  C   UNL     1      44.857 -12.372   8.784  1.00  0.00     0.165 C 
BRANCH  30  31
HETATM   31  O   UNL     1      45.563 -12.674   9.981  1.00  0.00    -0.401 OA
HETATM   32  H   UNL     1      45.680 -11.838  10.465  1.00  0.00     0.209 HD
ENDBRANCH  30  31
ENDBRANCH  29  30
ENDBRANCH  28  29
ENDBRANCH  25  28
ENDBRANCH  19  24
ENDBRANCH   1  18
TORSDOF 11
ENDMDL
MODEL 3
REMARK VINA RESULT:      -7.6      3.753      7.078
REMARK  11 active torsions:
REMARK  status: ('A' for Active; 'I' for Inactive)
REMARK    1  A    between atoms: C_2  and  O_3 
REMARK    2  A    between atoms: O_3  and  C_4 
REMARK    3  A    between atoms: C_5  and  C_6 
REMARK       I    between atoms: C_6  and  N_7 
REMARK    4  A    between atoms: N_7  and  C_8 
REMARK    5  A    between atoms: C_8  and  N_9 
REMARK    6  A    between atoms: N_9  and  C_10 
REMARK    7  A    between atoms: C_11  and  C_12 
REMARK       I    between atoms: C_12  and  N_13 
REMARK    8  A    between atoms: N_13  and  C_14 
REMARK    9  A    between atoms: C_14  and  C_15 
REMARK   10  A    between atoms: C_15  and  C_16 
REMARK   11  A    between atoms: C_16  and  O_17 
ROOT
HETATM    1  N   UNL     1      42.800 -15.408   2.456  1.00  0.00    -0.332 N 
HETATM    2  H   UNL     1      43.629 -15.677   1.918  1.00  0.00     0.168 HD
ENDROOT
BRANCH   1   3
HETATM    3  C   UNL     1      42.443 -16.277   3.453  1.00  0.00     0.179 C 
HETATM    4  S   UNL     1      41.171 -16.086   4.524  1.00  0.00    -0.040 SA
BRANCH   3   5
HETATM    5  N   UNL     1      43.230 -17.397   3.592  1.00  0.00    -0.299 N 
HETATM    6  C   UNL     1      43.915 -18.069   2.581  1.00  0.00     0.260 C 
HETATM    7  O   UNL     1      44.351 -17.504   1.585  1.00  0.00    -0.267 OA
HETATM    8  H   UNL     1      43.066 -17.887   4.459  1.00  0.00     0.171 HD
BRANCH   6   9
HETATM    9  C   UNL     1      44.112 -19.536   2.820  1.00  0.00     0.065 A 
HETATM   10  C   UNL     1      44.633 -20.026   4.025  1.00  0.00     0.084 A 
HETATM   11  C   UNL     1      44.775 -21.405   4.226  1.00  0.00     0.038 A 
HETATM   12  C   UNL     1      44.452 -22.303   3.210  1.00  0.00     0.003 A 
HETATM   13  C   UNL     1      43.984 -21.826   1.990  1.00  0.00     0.001 A 
HETATM   14  C   UNL     1      43.819 -20.452   1.792  1.00  0.00     0.020 A 
BRANCH  10  15
HETATM   15  O   UNL     1      44.955 -19.201   5.069  1.00  0.00    -0.350 OA
BRANCH  15  16
HETATM   16  C   UNL     1      44.256 -19.589   6.262  1.00  0.00     0.171 C 
HETATM   17  C   UNL     1      43.795 -18.338   6.991  1.00  0.00     0.034 C 
ENDBRANCH  15  16
ENDBRANCH  10  15
ENDBRANCH   6   9
ENDBRANCH   3   5
ENDBRANCH   1   3
BRANCH   1  18
HETATM   18  C   UNL     1      42.129 -14.246   2.008  1.00  0.00     0.050 A 
HETATM   19  C   UNL     1      41.303 -14.288   0.870  1.00  0.00     0.058 A 
HETATM   20  C   UNL     1      40.490 -13.195   0.540  1.00  0.00     0.019 A 
HETATM   21  C   UNL     1      40.511 -12.044   1.324  1.00  0.00     0.001 A 
HETATM   22  C   UNL     1      41.351 -11.979   2.433  1.00  0.00     0.002 A 
HETATM   23  C   UNL     1      42.150 -13.072   2.776  1.00  0.00     0.030 A 
BRANCH  19  24
HETATM   24  C   UNL     1      41.361 -15.386  -0.132  1.00  0.00     0.253 C 
HETATM   25  N   UNL     1      41.313 -14.975  -1.450  1.00  0.00    -0.357 N 
HETATM   26  H   UNL     1      41.231 -13.981  -1.634  1.00  0.00     0.162 HD
HETATM   27  O   UNL     1      41.339 -16.556   0.225  1.00  0.00    -0.268 OA
BRANCH  25  28
HETATM   28  C   UNL     1      41.009 -15.897  -2.523  1.00  0.00     0.125 C 
BRANCH  28  29
HETATM   29  C   UNL     1      40.138 -15.293  -3.613  1.00  0.00     0.046 C 
BRANCH  29  30
HETATM   30  C   UNL     1      38.926 -16.156  -3.928  1.00  0.00     0.165 C 
BRANCH  30  31
HETATM   31  O   UNL     1      38.994 -16.613  -5.273  1.00  0.00    -0.401 OA
HETATM   32  H   UNL     1      39.663 -17.320  -5.303  1.00  0.00     0.209 HD
ENDBRANCH  30  31
ENDBRANCH  29  30
ENDBRANCH  28  29
ENDBRANCH  25  28
ENDBRANCH  19  24
ENDBRANCH   1  18
TORSDOF 11
ENDMDL
MODEL 4
REMARK VINA RESULT:      -7.4      1.742      2.793
REMARK  11 active torsions:
REMARK  status: ('A' for Active; 'I' for Inactive)
REMARK    1  A    between atoms: C_2  and  O_3 
REMARK    2  A    between atoms: O_3  and  C_4 
REMARK    3  A    between atoms: C_5  and  C_6 
REMARK       I    between atoms: C_6  and  N_7 
REMARK    4  A    between atoms: N_7  and  C_8 
REMARK    5  A    between atoms: C_8  and  N_9 
REMARK    6  A    between atoms: N_9  and  C_10 
REMARK    7  A    between atoms: C_11  and  C_12 
REMARK       I    between atoms: C_12  and  N_13 
REMARK    8  A    between atoms: N_13  and  C_14 
REMARK    9  A    between atoms: C_14  and  C_15 
REMARK   10  A    between atoms: C_15  and  C_16 
REMARK   11  A    between atoms: C_16  and  O_17 
ROOT
HETATM    1  N   UNL     1      41.070 -15.645   5.192  1.00  0.00    -0.332 N 
HETATM    2  H   UNL     1      41.166 -16.179   6.059  1.00  0.00     0.168 HD
ENDROOT
BRANCH   1   3
HETATM    3  C   UNL     1      41.285 -16.356   4.041  1.00  0.00     0.179 C 
HETATM    4  S   UNL     1      40.515 -16.120   2.574  1.00  0.00    -0.040 SA
BRANCH   3   5
HETATM    5  N   UNL     1      42.204 -17.377   4.121  1.00  0.00    -0.299 N 
HETATM    6  C   UNL     1      43.279 -17.605   3.265  1.00  0.00     0.260 C 
HETATM    7  O   UNL     1      43.869 -16.701   2.685  1.00  0.00    -0.267 OA
HETATM    8  H   UNL     1      41.891 -18.141   4.702  1.00  0.00     0.171 HD
BRANCH   6   9
HETATM    9  C   UNL     1      43.687 -19.041   3.133  1.00  0.00     0.065 A 
HETATM   10  C   UNL     1      44.416 -19.698   4.134  1.00  0.00     0.084 A 
HETATM   11  C   UNL     1      44.754 -21.050   3.991  1.00  0.00     0.038 A 
HETATM   12  C   UNL     1      44.418 -21.743   2.829  1.00  0.00     0.003 A 
HETATM   13  C   UNL     1      43.742 -21.087   1.805  1.00  0.00     0.001 A 
HETATM   14  C   UNL     1      43.382 -19.744   1.952  1.00  0.00     0.020 A 
BRANCH  10  15
HETATM   15  O   UNL     1      44.763 -19.083   5.306  1.00  0.00    -0.350 OA
BRANCH  15  16
HETATM   16  C   UNL     1      44.008 -19.613   6.406  1.00  0.00     0.171 C 
HETATM   17  C   UNL     1      44.066 -18.630   7.562  1.00  0.00     0.034 C 
ENDBRANCH  15  16
ENDBRANCH  10  15
ENDBRANCH   6   9
ENDBRANCH   3   5
ENDBRANCH   1   3
BRANCH   1  18
HETATM   18  C   UNL     1      40.832 -14.259   5.348  1.00  0.00     0.050 A 
HETATM   19  C   UNL     1      41.898 -13.341   5.333  1.00  0.00     0.058 A 
HETATM   20  C   UNL     1      41.649 -11.962   5.292  1.00  0.00     0.019 A 
HETATM   21  C   UNL     1      40.341 -11.486   5.292  1.00  0.00     0.001 A 
HETATM   22  C   UNL     1      39.279 -12.386   5.343  1.00  0.00     0.002 A 
HETATM   23  C   UNL     1      39.521 -13.761   5.365  1.00  0.00     0.030 A 
BRANCH  19  24
HETATM   24  C   UNL     1      43.316 -13.745   5.531  1.00  0.00     0.253 C 
HETATM   25  N   UNL     1      43.668 -14.012   6.840  1.00  0.00    -0.357 N 
HETATM   26  H   UNL     1      42.956 -13.904   7.554  1.00  0.00     0.162 HD
HETATM   27  O   UNL     1      44.106 -13.720   4.597  1.00  0.00    -0.268 OA
BRANCH  25  28
HETATM   28  C   UNL     1      45.052 -14.073   7.257  1.00  0.00     0.125 C 
BRANCH  28  29
HETATM   29  C   UNL     1      45.613 -12.728   7.696  1.00  0.00     0.046 C 
BRANCH  29  30
HETATM   30  C   UNL     1      45.190 -12.360   9.110  1.00  0.00     0.165 C 
BRANCH  30  31
HETATM   31  O   UNL     1      44.301 -13.346   9.620  1.00  0.00    -0.401 OA
HETATM   32  H   UNL     1      44.803 -14.177   9.691  1.00  0.00     0.209 HD
ENDBRANCH  30  31
ENDBRANCH  29  30
ENDBRANCH  28  29
ENDBRANCH  25  28
ENDBRANCH  19  24
ENDBRANCH   1  18
TORSDOF 11
ENDMDL
MODEL 5
REMARK VINA RESULT:      -7.3      3.597      4.986
REMARK  11 active torsions:
REMARK  status: ('A' for Active; 'I' for Inactive)
REMARK    1  A    between atoms: C_2  and  O_3 
REMARK    2  A    between atoms: O_3  and  C_4 
REMARK    3  A    between atoms: C_5  and  C_6 
REMARK       I    between atoms: C_6  and  N_7 
REMARK    4  A    between atoms: N_7  and  C_8 
REMARK    5  A    between atoms: C_8  and  N_9 
REMARK    6  A    between atoms: N_9  and  C_10 
REMARK    7  A    between atoms: C_11  and  C_12 
REMARK       I    between atoms: C_12  and  N_13 
REMARK    8  A    between atoms: N_13  and  C_14 
REMARK    9  A    between atoms: C_14  and  C_15 
REMARK   10  A    between atoms: C_15  and  C_16 
REMARK   11  A    between atoms: C_16  and  O_17 
ROOT
HETATM    1  N   UNL     1      39.350 -15.968   1.809  1.00  0.00    -0.332 N 
HETATM    2  H   UNL     1      38.810 -16.682   2.305  1.00  0.00     0.168 HD
ENDROOT
BRANCH   1   3
HETATM    3  C   UNL     1      40.574 -16.377   1.348  1.00  0.00     0.179 C 
HETATM    4  S   UNL     1      41.313 -15.881  -0.069  1.00  0.00    -0.040 SA
BRANCH   3   5
HETATM    5  N   UNL     1      41.233 -17.304   2.120  1.00  0.00    -0.299 N 
HETATM    6  C   UNL     1      42.547 -17.230   2.580  1.00  0.00     0.260 C 
HETATM    7  O   UNL     1      43.104 -16.167   2.828  1.00  0.00    -0.267 OA
HETATM    8  H   UNL     1      40.784 -18.209   2.116  1.00  0.00     0.171 HD
BRANCH   6   9
HETATM    9  C   UNL     1      43.220 -18.553   2.785  1.00  0.00     0.065 A 
HETATM   10  C   UNL     1      43.745 -18.932   4.028  1.00  0.00     0.084 A 
HETATM   11  C   UNL     1      44.340 -20.189   4.191  1.00  0.00     0.038 A 
HETATM   12  C   UNL     1      44.468 -21.056   3.108  1.00  0.00     0.003 A 
HETATM   13  C   UNL     1      43.999 -20.671   1.856  1.00  0.00     0.001 A 
HETATM   14  C   UNL     1      43.383 -19.426   1.692  1.00  0.00     0.020 A 
BRANCH  10  15
HETATM   15  O   UNL     1      43.639 -18.136   5.136  1.00  0.00    -0.350 OA
BRANCH  15  16
HETATM   16  C   UNL     1      44.225 -18.773   6.282  1.00  0.00     0.171 C 
HETATM   17  C   UNL     1      45.403 -17.940   6.759  1.00  0.00     0.034 C 
ENDBRANCH  15  16
ENDBRANCH  10  15
ENDBRANCH   6   9
ENDBRANCH   3   5
ENDBRANCH   1   3
BRANCH   1  18
HETATM   18  C   UNL     1      38.776 -14.675   1.779  1.00  0.00     0.050 A 
HETATM   19  C   UNL     1      39.350 -13.618   2.508  1.00  0.00     0.058 A 
HETATM   20  C   UNL     1      38.900 -12.302   2.327  1.00  0.00     0.019 A 
HETATM   21  C   UNL     1      37.862 -12.033   1.439  1.00  0.00     0.001 A 
HETATM   22  C   UNL     1      37.263 -13.078   0.739  1.00  0.00     0.002 A 
HETATM   23  C   UNL     1      37.719 -14.388   0.903  1.00  0.00     0.030 A 
BRANCH  19  24
HETATM   24  C   UNL     1      40.319 -13.832   3.616  1.00  0.00     0.253 C 
HETATM   25  N   UNL     1      39.819 -14.522   4.703  1.00  0.00    -0.357 N 
HETATM   26  H   UNL     1      38.848 -14.814   4.673  1.00  0.00     0.162 HD
HETATM   27  O   UNL     1      41.431 -13.322   3.577  1.00  0.00    -0.268 OA
BRANCH  25  28
HETATM   28  C   UNL     1      40.492 -14.513   5.984  1.00  0.00     0.125 C 
BRANCH  28  29
HETATM   29  C   UNL     1      41.390 -15.721   6.205  1.00  0.00     0.046 C 
BRANCH  29  30
HETATM   30  C   UNL     1      40.597 -17.011   6.349  1.00  0.00     0.165 C 
BRANCH  30  31
HETATM   31  O   UNL     1      40.521 -17.673   5.092  1.00  0.00    -0.401 OA
HETATM   32  H   UNL     1      40.821 -18.589   5.230  1.00  0.00     0.209 HD
ENDBRANCH  30  31
ENDBRANCH  29  30
ENDBRANCH  28  29
ENDBRANCH  25  28
ENDBRANCH  19  24
ENDBRANCH   1  18
TORSDOF 11
ENDMDL
MODEL 6
REMARK VINA RESULT:      -7.3      1.961      7.377
REMARK  11 active torsions:
REMARK  status: ('A' for Active; 'I' for Inactive)
REMARK    1  A    between atoms: C_2  and  O_3 
REMARK    2  A    between atoms: O_3  and  C_4 
REMARK    3  A    between atoms: C_5  and  C_6 
REMARK       I    between atoms: C_6  and  N_7 
REMARK    4  A    between atoms: N_7  and  C_8 
REMARK    5  A    between atoms: C_8  and  N_9 
REMARK    6  A    between atoms: N_9  and  C_10 
REMARK    7  A    between atoms: C_11  and  C_12 
REMARK       I    between atoms: C_12  and  N_13 
REMARK    8  A    between atoms: N_13  and  C_14 
REMARK    9  A    between atoms: C_14  and  C_15 
REMARK   10  A    between atoms: C_15  and  C_16 
REMARK   11  A    between atoms: C_16  and  O_17 
ROOT
HETATM    1  N   UNL     1      44.808 -18.926   4.946  1.00  0.00    -0.332 N 
HETATM    2  H   UNL     1      45.713 -18.481   4.769  1.00  0.00     0.168 HD
ENDROOT
BRANCH   1   3
HETATM    3  C   UNL     1      44.196 -18.559   6.116  1.00  0.00     0.179 C 
HETATM    4  S   UNL     1      43.888 -19.554   7.425  1.00  0.00    -0.040 SA
BRANCH   3   5
HETATM    5  N   UNL     1      43.777 -17.251   6.195  1.00  0.00    -0.299 N 
HETATM    6  C   UNL     1      42.532 -16.795   6.624  1.00  0.00     0.260 C 
HETATM    7  O   UNL     1      41.860 -17.388   7.460  1.00  0.00    -0.267 OA
HETATM    8  H   UNL     1      44.350 -16.622   5.651  1.00  0.00     0.171 HD
BRANCH   6   9
HETATM    9  C   UNL     1      42.089 -15.501   6.012  1.00  0.00     0.065 A 
HETATM   10  C   UNL     1      42.967 -14.423   5.842  1.00  0.00     0.084 A 
HETATM   11  C   UNL     1      42.527 -13.239   5.238  1.00  0.00     0.038 A 
HETATM   12  C   UNL     1      41.196 -13.097   4.850  1.00  0.00     0.003 A 
HETATM   13  C   UNL     1      40.300 -14.140   5.062  1.00  0.00     0.001 A 
HETATM   14  C   UNL     1      40.740 -15.333   5.643  1.00  0.00     0.020 A 
BRANCH  10  15
HETATM   15  O   UNL     1      44.290 -14.500   6.185  1.00  0.00    -0.350 OA
BRANCH  15  16
HETATM   16  C   UNL     1      44.527 -13.875   7.456  1.00  0.00     0.171 C 
HETATM   17  C   UNL     1      45.831 -13.099   7.387  1.00  0.00     0.034 C 
ENDBRANCH  15  16
ENDBRANCH  10  15
ENDBRANCH   6   9
ENDBRANCH   3   5
ENDBRANCH   1   3
BRANCH   1  18
HETATM   18  C   UNL     1      44.409 -19.903   4.004  1.00  0.00     0.050 A 
HETATM   19  C   UNL     1      43.762 -19.529   2.813  1.00  0.00     0.058 A 
HETATM   20  C   UNL     1      43.542 -20.470   1.796  1.00  0.00     0.019 A 
HETATM   21  C   UNL     1      43.942 -21.793   1.968  1.00  0.00     0.001 A 
HETATM   22  C   UNL     1      44.552 -22.181   3.158  1.00  0.00     0.002 A 
HETATM   23  C   UNL     1      44.789 -21.244   4.167  1.00  0.00     0.030 A 
BRANCH  19  24
HETATM   24  C   UNL     1      43.126 -18.198   2.621  1.00  0.00     0.253 C 
HETATM   25  N   UNL     1      41.992 -18.204   1.830  1.00  0.00    -0.357 N 
HETATM   26  H   UNL     1      41.692 -19.089   1.438  1.00  0.00     0.162 HD
HETATM   27  O   UNL     1      43.659 -17.185   3.053  1.00  0.00    -0.268 OA
BRANCH  25  28
HETATM   28  C   UNL     1      41.459 -16.985   1.259  1.00  0.00     0.125 C 
BRANCH  28  29
HETATM   29  C   UNL     1      40.344 -16.365   2.087  1.00  0.00     0.046 C 
BRANCH  29  30
HETATM   30  C   UNL     1      39.770 -15.115   1.438  1.00  0.00     0.165 C 
BRANCH  30  31
HETATM   31  O   UNL     1      40.051 -15.123   0.043  1.00  0.00    -0.401 OA
HETATM   32  H   UNL     1      39.960 -16.042  -0.263  1.00  0.00     0.209 HD
ENDBRANCH  30  31
ENDBRANCH  29  30
ENDBRANCH  28  29
ENDBRANCH  25  28
ENDBRANCH  19  24
ENDBRANCH   1  18
TORSDOF 11
ENDMDL
MODEL 7
REMARK VINA RESULT:      -7.3      2.695      4.974
REMARK  11 active torsions:
REMARK  status: ('A' for Active; 'I' for Inactive)
REMARK    1  A    between atoms: C_2  and  O_3 
REMARK    2  A    between atoms: O_3  and  C_4 
REMARK    3  A    between atoms: C_5  and  C_6 
REMARK       I    between atoms: C_6  and  N_7 
REMARK    4  A    between atoms: N_7  and  C_8 
REMARK    5  A    between atoms: C_8  and  N_9 
REMARK    6  A    between atoms: N_9  and  C_10 
REMARK    7  A    between atoms: C_11  and  C_12 
REMARK       I    between atoms: C_12  and  N_13 
REMARK    8  A    between atoms: N_13  and  C_14 
REMARK    9  A    between atoms: C_14  and  C_15 
REMARK   10  A    between atoms: C_15  and  C_16 
REMARK   11  A    between atoms: C_16  and  O_17 
ROOT
HETATM    1  N   UNL     1      42.069 -14.210   5.508  1.00  0.00    -0.332 N 
HETATM    2  H   UNL     1      41.220 -14.772   5.621  1.00  0.00     0.168 HD
ENDROOT
BRANCH   1   3
HETATM    3  C   UNL     1      43.245 -14.903   5.619  1.00  0.00     0.179 C 
HETATM    4  S   UNL     1      44.438 -14.650   6.765  1.00  0.00    -0.040 SA
BRANCH   3   5
HETATM    5  N   UNL     1      43.465 -15.879   4.675  1.00  0.00    -0.299 N 
HETATM    6  C   UNL     1      42.577 -16.876   4.277  1.00  0.00     0.260 C 
HETATM    7  O   UNL     1      41.360 -16.724   4.290  1.00  0.00    -0.267 OA
HETATM    8  H   UNL     1      44.445 -16.006   4.463  1.00  0.00     0.171 HD
BRANCH   6   9
HETATM    9  C   UNL     1      43.220 -18.141   3.797  1.00  0.00     0.065 A 
HETATM   10  C   UNL     1      44.234 -18.778   4.525  1.00  0.00     0.084 A 
HETATM   11  C   UNL     1      44.791 -19.977   4.062  1.00  0.00     0.038 A 
HETATM   12  C   UNL     1      44.385 -20.520   2.844  1.00  0.00     0.003 A 
HETATM   13  C   UNL     1      43.418 -19.869   2.085  1.00  0.00     0.001 A 
HETATM   14  C   UNL     1      42.841 -18.685   2.555  1.00  0.00     0.020 A 
BRANCH  10  15
HETATM   15  O   UNL     1      44.668 -18.308   5.735  1.00  0.00    -0.350 OA
BRANCH  15  16
HETATM   16  C   UNL     1      44.109 -19.075   6.813  1.00  0.00     0.171 C 
HETATM   17  C   UNL     1      43.346 -18.141   7.737  1.00  0.00     0.034 C 
ENDBRANCH  15  16
ENDBRANCH  10  15
ENDBRANCH   6   9
ENDBRANCH   3   5
ENDBRANCH   1   3
BRANCH   1  18
HETATM   18  C   UNL     1      41.868 -12.818   5.359  1.00  0.00     0.050 A 
HETATM   19  C   UNL     1      41.708 -12.249   4.082  1.00  0.00     0.058 A 
HETATM   20  C   UNL     1      41.318 -10.909   3.944  1.00  0.00     0.019 A 
HETATM   21  C   UNL     1      41.109 -10.120   5.072  1.00  0.00     0.001 A 
HETATM   22  C   UNL     1      41.300 -10.665   6.340  1.00  0.00     0.002 A 
HETATM   23  C   UNL     1      41.671 -12.004   6.483  1.00  0.00     0.030 A 
BRANCH  19  24
HETATM   24  C   UNL     1      42.098 -12.950   2.829  1.00  0.00     0.253 C 
HETATM   25  N   UNL     1      41.081 -13.103   1.907  1.00  0.00    -0.357 N 
HETATM   26  H   UNL     1      40.163 -12.748   2.150  1.00  0.00     0.162 HD
HETATM   27  O   UNL     1      43.214 -13.437   2.710  1.00  0.00    -0.268 OA
BRANCH  25  28
HETATM   28  C   UNL     1      41.183 -14.045   0.813  1.00  0.00     0.125 C 
BRANCH  28  29
HETATM   29  C   UNL     1      40.539 -15.391   1.110  1.00  0.00     0.046 C 
BRANCH  29  30
HETATM   30  C   UNL     1      39.203 -15.247   1.823  1.00  0.00     0.165 C 
BRANCH  30  31
HETATM   31  O   UNL     1      39.415 -15.135   3.225  1.00  0.00    -0.401 OA
HETATM   32  H   UNL     1      40.176 -14.542   3.355  1.00  0.00     0.209 HD
ENDBRANCH  30  31
ENDBRANCH  29  30
ENDBRANCH  28  29
ENDBRANCH  25  28
ENDBRANCH  19  24
ENDBRANCH   1  18
TORSDOF 11
ENDMDL
MODEL 8
REMARK VINA RESULT:      -7.3      1.884      2.415
REMARK  11 active torsions:
REMARK  status: ('A' for Active; 'I' for Inactive)
REMARK    1  A    between atoms: C_2  and  O_3 
REMARK    2  A    between atoms: O_3  and  C_4 
REMARK    3  A    between atoms: C_5  and  C_6 
REMARK       I    between atoms: C_6  and  N_7 
REMARK    4  A    between atoms: N_7  and  C_8 
REMARK    5  A    between atoms: C_8  and  N_9 
REMARK    6  A    between atoms: N_9  and  C_10 
REMARK    7  A    between atoms: C_11  and  C_12 
REMARK       I    between atoms: C_12  and  N_13 
REMARK    8  A    between atoms: N_13  and  C_14 
REMARK    9  A    between atoms: C_14  and  C_15 
REMARK   10  A    between atoms: C_15  and  C_16 
REMARK   11  A    between atoms: C_16  and  O_17 
ROOT
HETATM    1  N   UNL     1      40.729 -15.334   5.511  1.00  0.00    -0.332 N 
HETATM    2  H   UNL     1      40.577 -15.814   6.402  1.00  0.00     0.168 HD
ENDROOT
BRANCH   1   3
HETATM    3  C   UNL     1      41.096 -16.143   4.467  1.00  0.00     0.179 C 
HETATM    4  S   UNL     1      40.973 -15.775   2.840  1.00  0.00    -0.040 SA
BRANCH   3   5
HETATM    5  N   UNL     1      41.586 -17.383   4.805  1.00  0.00    -0.299 N 
HETATM    6  C   UNL     1      42.551 -17.669   5.769  1.00  0.00     0.260 C 
HETATM    7  O   UNL     1      42.702 -16.990   6.779  1.00  0.00    -0.267 OA
HETATM    8  H   UNL     1      41.396 -18.084   4.103  1.00  0.00     0.171 HD
BRANCH   6   9
HETATM    9  C   UNL     1      43.370 -18.894   5.499  1.00  0.00     0.065 A 
HETATM   10  C   UNL     1      44.042 -19.082   4.284  1.00  0.00     0.084 A 
HETATM   11  C   UNL     1      44.825 -20.225   4.077  1.00  0.00     0.038 A 
HETATM   12  C   UNL     1      44.900 -21.216   5.055  1.00  0.00     0.003 A 
HETATM   13  C   UNL     1      44.194 -21.067   6.245  1.00  0.00     0.001 A 
HETATM   14  C   UNL     1      43.430 -19.917   6.466  1.00  0.00     0.020 A 
BRANCH  10  15
HETATM   15  O   UNL     1      44.024 -18.143   3.289  1.00  0.00    -0.350 OA
BRANCH  15  16
HETATM   16  C   UNL     1      43.908 -18.764   1.999  1.00  0.00     0.171 C 
HETATM   17  C   UNL     1      43.664 -17.688   0.955  1.00  0.00     0.034 C 
ENDBRANCH  15  16
ENDBRANCH  10  15
ENDBRANCH   6   9
ENDBRANCH   3   5
ENDBRANCH   1   3
BRANCH   1  18
HETATM   18  C   UNL     1      40.628 -13.924   5.548  1.00  0.00     0.050 A 
HETATM   19  C   UNL     1      41.771 -13.118   5.400  1.00  0.00     0.058 A 
HETATM   20  C   UNL     1      41.647 -11.730   5.243  1.00  0.00     0.019 A 
HETATM   21  C   UNL     1      40.389 -11.132   5.258  1.00  0.00     0.001 A 
HETATM   22  C   UNL     1      39.254 -11.918   5.440  1.00  0.00     0.002 A 
HETATM   23  C   UNL     1      39.370 -13.303   5.579  1.00  0.00     0.030 A 
BRANCH  19  24
HETATM   24  C   UNL     1      43.155 -13.636   5.569  1.00  0.00     0.253 C 
HETATM   25  N   UNL     1      43.469 -14.048   6.850  1.00  0.00    -0.357 N 
HETATM   26  H   UNL     1      42.756 -13.957   7.566  1.00  0.00     0.162 HD
HETATM   27  O   UNL     1      43.958 -13.581   4.648  1.00  0.00    -0.268 OA
BRANCH  25  28
HETATM   28  C   UNL     1      44.840 -14.244   7.270  1.00  0.00     0.125 C 
BRANCH  28  29
HETATM   29  C   UNL     1      45.525 -12.962   7.719  1.00  0.00     0.046 C 
BRANCH  29  30
HETATM   30  C   UNL     1      44.928 -12.407   9.003  1.00  0.00     0.165 C 
BRANCH  30  31
HETATM   31  O   UNL     1      43.592 -11.979   8.768  1.00  0.00    -0.401 OA
HETATM   32  H   UNL     1      43.395 -11.281   9.418  1.00  0.00     0.209 HD
ENDBRANCH  30  31
ENDBRANCH  29  30
ENDBRANCH  28  29
ENDBRANCH  25  28
ENDBRANCH  19  24
ENDBRANCH   1  18
TORSDOF 11
ENDMDL
MODEL 9
REMARK VINA RESULT:      -7.3      2.851      4.345
REMARK  11 active torsions:
REMARK  status: ('A' for Active; 'I' for Inactive)
REMARK    1  A    between atoms: C_2  and  O_3 
REMARK    2  A    between atoms: O_3  and  C_4 
REMARK    3  A    between atoms: C_5  and  C_6 
REMARK       I    between atoms: C_6  and  N_7 
REMARK    4  A    between atoms: N_7  and  C_8 
REMARK    5  A    between atoms: C_8  and  N_9 
REMARK    6  A    between atoms: N_9  and  C_10 
REMARK    7  A    between atoms: C_11  and  C_12 
REMARK       I    between atoms: C_12  and  N_13 
REMARK    8  A    between atoms: N_13  and  C_14 
REMARK    9  A    between atoms: C_14  and  C_15 
REMARK   10  A    between atoms: C_15  and  C_16 
REMARK   11  A    between atoms: C_16  and  O_17 
ROOT
HETATM    1  N   UNL     1      40.046 -16.237   2.789  1.00  0.00    -0.332 N 
HETATM    2  H   UNL     1      39.536 -16.849   3.432  1.00  0.00     0.168 HD
ENDROOT
BRANCH   1   3
HETATM    3  C   UNL     1      41.198 -16.767   2.270  1.00  0.00     0.179 C 
HETATM    4  S   UNL     1      41.696 -16.679   0.675  1.00  0.00    -0.040 SA
BRANCH   3   5
HETATM    5  N   UNL     1      41.998 -17.458   3.150  1.00  0.00    -0.299 N 
HETATM    6  C   UNL     1      41.691 -17.806   4.464  1.00  0.00     0.260 C 
HETATM    7  O   UNL     1      40.547 -18.030   4.842  1.00  0.00    -0.267 OA
HETATM    8  H   UNL     1      42.969 -17.471   2.872  1.00  0.00     0.171 HD
BRANCH   6   9
HETATM    9  C   UNL     1      42.873 -17.921   5.379  1.00  0.00     0.065 A 
HETATM   10  C   UNL     1      44.088 -18.474   4.953  1.00  0.00     0.084 A 
HETATM   11  C   UNL     1      45.181 -18.537   5.826  1.00  0.00     0.038 A 
HETATM   12  C   UNL     1      45.059 -18.102   7.144  1.00  0.00     0.003 A 
HETATM   13  C   UNL     1      43.842 -17.600   7.595  1.00  0.00     0.001 A 
HETATM   14  C   UNL     1      42.754 -17.513   6.722  1.00  0.00     0.020 A 
BRANCH  10  15
HETATM   15  O   UNL     1      44.281 -18.905   3.669  1.00  0.00    -0.350 OA
BRANCH  15  16
HETATM   16  C   UNL     1      44.554 -20.314   3.636  1.00  0.00     0.171 C 
HETATM   17  C   UNL     1      44.096 -20.873   2.300  1.00  0.00     0.034 C 
ENDBRANCH  15  16
ENDBRANCH  10  15
ENDBRANCH   6   9
ENDBRANCH   3   5
ENDBRANCH   1   3
BRANCH   1  18
HETATM   18  C   UNL     1      39.521 -14.933   2.635  1.00  0.00     0.050 A 
HETATM   19  C   UNL     1      39.888 -13.903   3.520  1.00  0.00     0.058 A 
HETATM   20  C   UNL     1      39.524 -12.574   3.256  1.00  0.00     0.019 A 
HETATM   21  C   UNL     1      38.772 -12.266   2.125  1.00  0.00     0.001 A 
HETATM   22  C   UNL     1      38.373 -13.284   1.262  1.00  0.00     0.002 A 
HETATM   23  C   UNL     1      38.749 -14.606   1.511  1.00  0.00     0.030 A 
BRANCH  19  24
HETATM   24  C   UNL     1      40.514 -14.158   4.845  1.00  0.00     0.253 C 
HETATM   25  N   UNL     1      41.765 -13.598   5.015  1.00  0.00    -0.357 N 
HETATM   26  H   UNL     1      42.161 -13.078   4.240  1.00  0.00     0.162 HD
HETATM   27  O   UNL     1      39.979 -14.905   5.653  1.00  0.00    -0.268 OA
BRANCH  25  28
HETATM   28  C   UNL     1      42.651 -14.026   6.076  1.00  0.00     0.125 C 
BRANCH  28  29
HETATM   29  C   UNL     1      44.115 -14.069   5.664  1.00  0.00     0.046 C 
BRANCH  29  30
HETATM   30  C   UNL     1      45.053 -14.032   6.861  1.00  0.00     0.165 C 
BRANCH  30  31
HETATM   31  O   UNL     1      44.308 -14.187   8.062  1.00  0.00    -0.401 OA
HETATM   32  H   UNL     1      44.241 -15.143   8.238  1.00  0.00     0.209 HD
ENDBRANCH  30  31
ENDBRANCH  29  30
ENDBRANCH  28  29
ENDBRANCH  25  28
ENDBRANCH  19  24
ENDBRANCH   1  18
TORSDOF 11
ENDMDL
MODEL 10
REMARK VINA RESULT:      -7.1      3.423      5.830
REMARK  11 active torsions:
REMARK  status: ('A' for Active; 'I' for Inactive)
REMARK    1  A    between atoms: C_2  and  O_3 
REMARK    2  A    between atoms: O_3  and  C_4 
REMARK    3  A    between atoms: C_5  and  C_6 
REMARK       I    between atoms: C_6  and  N_7 
REMARK    4  A    between atoms: N_7  and  C_8 
REMARK    5  A    between atoms: C_8  and  N_9 
REMARK    6  A    between atoms: N_9  and  C_10 
REMARK    7  A    between atoms: C_11  and  C_12 
REMARK       I    between atoms: C_12  and  N_13 
REMARK    8  A    between atoms: N_13  and  C_14 
REMARK    9  A    between atoms: C_14  and  C_15 
REMARK   10  A    between atoms: C_15  and  C_16 
REMARK   11  A    between atoms: C_16  and  O_17 
ROOT
HETATM    1  N   UNL     1      42.218 -15.335   3.641  1.00  0.00    -0.332 N 
HETATM    2  H   UNL     1      43.212 -15.116   3.749  1.00  0.00     0.168 HD
ENDROOT
BRANCH   1   3
HETATM    3  C   UNL     1      41.946 -16.529   3.026  1.00  0.00     0.179 C 
HETATM    4  S   UNL     1      40.680 -16.835   1.976  1.00  0.00    -0.040 SA
BRANCH   3   5
HETATM    5  N   UNL     1      42.788 -17.573   3.331  1.00  0.00    -0.299 N 
HETATM    6  C   UNL     1      43.743 -18.151   2.496  1.00  0.00     0.260 C 
HETATM    7  O   UNL     1      44.333 -17.520   1.627  1.00  0.00    -0.267 OA
HETATM    8  H   UNL     1      42.483 -18.100   4.137  1.00  0.00     0.171 HD
BRANCH   6   9
HETATM    9  C   UNL     1      44.023 -19.598   2.764  1.00  0.00     0.065 A 
HETATM   10  C   UNL     1      44.556 -20.036   3.985  1.00  0.00     0.084 A 
HETATM   11  C   UNL     1      44.776 -21.400   4.213  1.00  0.00     0.038 A 
HETATM   12  C   UNL     1      44.522 -22.333   3.210  1.00  0.00     0.003 A 
HETATM   13  C   UNL     1      44.044 -21.907   1.974  1.00  0.00     0.001 A 
HETATM   14  C   UNL     1      43.800 -20.549   1.750  1.00  0.00     0.020 A 
BRANCH  10  15
HETATM   15  O   UNL     1      44.813 -19.175   5.017  1.00  0.00    -0.350 OA
BRANCH  15  16
HETATM   16  C   UNL     1      44.101 -19.568   6.201  1.00  0.00     0.171 C 
HETATM   17  C   UNL     1      43.581 -18.322   6.899  1.00  0.00     0.034 C 
ENDBRANCH  15  16
ENDBRANCH  10  15
ENDBRANCH   6   9
ENDBRANCH   3   5
ENDBRANCH   1   3
BRANCH   1  18
HETATM   18  C   UNL     1      41.319 -14.326   4.058  1.00  0.00     0.050 A 
HETATM   19  C   UNL     1      40.941 -13.294   3.180  1.00  0.00     0.058 A 
HETATM   20  C   UNL     1      39.909 -12.409   3.523  1.00  0.00     0.019 A 
HETATM   21  C   UNL     1      39.262 -12.530   4.751  1.00  0.00     0.001 A 
HETATM   22  C   UNL     1      39.653 -13.527   5.642  1.00  0.00     0.002 A 
HETATM   23  C   UNL     1      40.669 -14.421   5.297  1.00  0.00     0.030 A 
BRANCH  19  24
HETATM   24  C   UNL     1      41.701 -12.964   1.944  1.00  0.00     0.253 C 
HETATM   25  N   UNL     1      40.930 -12.833   0.805  1.00  0.00    -0.357 N 
HETATM   26  H   UNL     1      39.930 -12.980   0.890  1.00  0.00     0.162 HD
HETATM   27  O   UNL     1      42.923 -12.932   1.955  1.00  0.00    -0.268 OA
BRANCH  25  28
HETATM   28  C   UNL     1      41.517 -12.864  -0.517  1.00  0.00     0.125 C 
BRANCH  28  29
HETATM   29  C   UNL     1      41.220 -14.144  -1.283  1.00  0.00     0.046 C 
BRANCH  29  30
HETATM   30  C   UNL     1      41.653 -14.061  -2.738  1.00  0.00     0.165 C 
BRANCH  30  31
HETATM   31  O   UNL     1      41.748 -15.368  -3.289  1.00  0.00    -0.401 OA
HETATM   32  H   UNL     1      42.500 -15.810  -2.856  1.00  0.00     0.209 HD
ENDBRANCH  30  31
ENDBRANCH  29  30
ENDBRANCH  28  29
ENDBRANCH  25  28
ENDBRANCH  19  24
ENDBRANCH   1  18
TORSDOF 11
ENDMDL
