MODEL 1
REMARK VINA RESULT:      -8.0      0.000      0.000
REMARK  11 active torsions:
REMARK  status: ('A' for Active; 'I' for Inactive)
REMARK    1  A    between atoms: C_2  and  N_3 
REMARK    2  A    between atoms: N_3  and  C_5 
REMARK    3  A    between atoms: N_3  and  C_34 
REMARK    4  A    between atoms: C_5  and  C_6 
REMARK    5  A    between atoms: C_6  and  C_7 
REMARK    6  A    between atoms: C_7  and  N_8 
REMARK       I    between atoms: N_8  and  C_9 
REMARK    7  A    between atoms: C_9  and  C_10 
REMARK    8  A    between atoms: C_10  and  O_11 
REMARK    9  A    between atoms: N_12  and  C_13 
REMARK   10  A    between atoms: C_14  and  O_15 
REMARK   11  A    between atoms: C_18  and  O_19 
ROOT
HETATM    1  C   UNL     1      41.052 -14.706   1.965  1.00  0.00     0.256 C 
HETATM    2  N   UNL     1      41.682 -14.147   3.182  1.00  0.00    -0.251 N 
HETATM    3  C   UNL     1      42.040 -12.806   3.235  1.00  0.00     0.330 C 
HETATM    4  O   UNL     1      42.345 -12.197   4.261  1.00  0.00    -0.246 OA
HETATM    5  N   UNL     1      42.142 -12.128   2.061  1.00  0.00    -0.308 N 
HETATM    6  C   UNL     1      41.935 -12.660   0.802  1.00  0.00     0.048 A 
HETATM    7  C   UNL     1      41.435 -13.951   0.694  1.00  0.00     0.035 A 
HETATM    8  C   UNL     1      42.221 -11.888  -0.327  1.00  0.00     0.031 A 
HETATM    9  C   UNL     1      42.018 -12.418  -1.599  1.00  0.00     0.021 A 
HETATM   10  C   UNL     1      41.505 -13.705  -1.730  1.00  0.00     0.011 A 
HETATM   11 BR   UNL     1      41.228 -14.435  -3.450  1.00  0.00    -0.051 Br
HETATM   12  C   UNL     1      41.194 -14.461  -0.599  1.00  0.00     0.034 A 
HETATM   13  H   UNL     1      42.430 -11.163   2.166  1.00  0.00     0.170 HD
ENDROOT
BRANCH   1  14
HETATM   14  C   UNL     1      41.501 -16.233   1.733  1.00  0.00     0.279 C 
HETATM   15  N   UNL     1      42.794 -16.414   1.238  1.00  0.00    -0.356 N 
HETATM   16  H   UNL     1      43.435 -15.652   1.428  1.00  0.00     0.162 HD
HETATM   17  O   UNL     1      40.723 -17.186   1.827  1.00  0.00    -0.268 OA
BRANCH  15  18
HETATM   18  C   UNL     1      43.318 -17.750   1.052  1.00  0.00     0.124 C 
BRANCH  18  19
HETATM   19  C   UNL     1      44.193 -18.194   2.224  1.00  0.00     0.047 C 
BRANCH  19  20
HETATM   20  C   UNL     1      43.637 -19.372   3.025  1.00  0.00     0.236 C 
BRANCH  20  21
HETATM   21  N   UNL     1      44.701 -20.392   3.411  1.00  0.00    -0.072 N 
HETATM   22  H   UNL     1      45.611 -19.947   3.249  1.00  0.00     0.279 HD
BRANCH  21  23
HETATM   23  C   UNL     1      44.697 -21.611   2.497  1.00  0.00     0.230 C 
HETATM   24  C   UNL     1      43.408 -21.666   1.692  1.00  0.00     0.034 C 
ENDBRANCH  21  23
BRANCH  21  25
HETATM   25  C   UNL     1      44.716 -20.781   4.881  1.00  0.00     0.230 C 
HETATM   26  C   UNL     1      45.025 -22.250   5.098  1.00  0.00     0.034 C 
ENDBRANCH  21  25
ENDBRANCH  20  21
ENDBRANCH  19  20
ENDBRANCH  18  19
ENDBRANCH  15  18
ENDBRANCH   1  14
BRANCH   1  27
HETATM   27  O   UNL     1      39.653 -14.516   2.049  1.00  0.00    -0.359 OA
HETATM   28  H   UNL     1      39.373 -15.084   2.789  1.00  0.00     0.213 HD
ENDBRANCH   1  27
BRANCH   2  29
HETATM   29  C   UNL     1      41.810 -14.935   4.391  1.00  0.00     0.076 A 
HETATM   30  C   UNL     1      40.760 -15.206   5.287  1.00  0.00     0.098 A 
HETATM   31  C   UNL     1      40.922 -16.126   6.337  1.00  0.00     0.075 A 
HETATM   32  C   UNL     1      42.151 -16.744   6.548  1.00  0.00     0.070 A 
HETATM   33  C   UNL     1      43.211 -16.460   5.696  1.00  0.00     0.039 A 
HETATM   34  C   UNL     1      43.047 -15.562   4.640  1.00  0.00     0.035 A 
BRANCH  30  35
HETATM   35  O   UNL     1      39.552 -14.572   5.133  1.00  0.00    -0.354 OA
HETATM   36  C   UNL     1      39.484 -13.366   5.910  1.00  0.00     0.210 C 
ENDBRANCH  30  35
BRANCH  32  37
HETATM   37  O   UNL     1      42.417 -17.666   7.521  1.00  0.00    -0.356 OA
HETATM   38  C   UNL     1      43.504 -17.350   8.385  1.00  0.00     0.210 C 
ENDBRANCH  32  37
ENDBRANCH   2  29
TORSDOF 11
ENDMDL
MODEL 2
REMARK VINA RESULT:      -7.8      3.883      7.315
REMARK  11 active torsions:
REMARK  status: ('A' for Active; 'I' for Inactive)
REMARK    1  A    between atoms: C_2  and  N_3 
REMARK    2  A    between atoms: N_3  and  C_5 
REMARK    3  A    between atoms: N_3  and  C_34 
REMARK    4  A    between atoms: C_5  and  C_6 
REMARK    5  A    between atoms: C_6  and  C_7 
REMARK    6  A    between atoms: C_7  and  N_8 
REMARK       I    between atoms: N_8  and  C_9 
REMARK    7  A    between atoms: C_9  and  C_10 
REMARK    8  A    between atoms: C_10  and  O_11 
REMARK    9  A    between atoms: N_12  and  C_13 
REMARK   10  A    between atoms: C_14  and  O_15 
REMARK   11  A    between atoms: C_18  and  O_19 
ROOT
HETATM    1  C   UNL     1      42.380 -14.400   4.935  1.00  0.00     0.256 C 
HETATM    2  N   UNL     1      42.044 -15.789   5.320  1.00  0.00    -0.251 N 
HETATM    3  C   UNL     1      40.733 -16.139   5.616  1.00  0.00     0.330 C 
HETATM    4  O   UNL     1      40.315 -17.292   5.713  1.00  0.00    -0.246 OA
HETATM    5  N   UNL     1      39.857 -15.139   5.901  1.00  0.00    -0.308 N 
HETATM    6  C   UNL     1      40.157 -13.790   5.938  1.00  0.00     0.048 A 
HETATM    7  C   UNL     1      41.410 -13.370   5.510  1.00  0.00     0.035 A 
HETATM    8  C   UNL     1      39.196 -12.883   6.392  1.00  0.00     0.031 A 
HETATM    9  C   UNL     1      39.492 -11.522   6.436  1.00  0.00     0.021 A 
HETATM   10  C   UNL     1      40.737 -11.079   5.999  1.00  0.00     0.011 A 
HETATM   11 BR   UNL     1      41.151  -9.237   6.056  1.00  0.00    -0.051 Br
HETATM   12  C   UNL     1      41.683 -11.987   5.519  1.00  0.00     0.034 A 
HETATM   13  H   UNL     1      38.925 -15.460   6.131  1.00  0.00     0.170 HD
ENDROOT
BRANCH   1  14
HETATM   14  C   UNL     1      43.841 -13.990   5.471  1.00  0.00     0.279 C 
HETATM   15  N   UNL     1      43.964 -13.871   6.857  1.00  0.00    -0.356 N 
HETATM   16  H   UNL     1      43.285 -14.400   7.394  1.00  0.00     0.162 HD
HETATM   17  O   UNL     1      44.760 -13.645   4.725  1.00  0.00    -0.268 OA
BRANCH  15  18
HETATM   18  C   UNL     1      45.250 -13.567   7.446  1.00  0.00     0.124 C 
BRANCH  18  19
HETATM   19  C   UNL     1      45.140 -12.540   8.572  1.00  0.00     0.047 C 
BRANCH  19  20
HETATM   20  C   UNL     1      43.859 -11.705   8.553  1.00  0.00     0.236 C 
BRANCH  20  21
HETATM   21  N   UNL     1      43.135 -11.684   9.893  1.00  0.00    -0.072 N 
HETATM   22  H   UNL     1      42.409 -12.409   9.850  1.00  0.00     0.279 HD
BRANCH  21  23
HETATM   23  C   UNL     1      42.372 -10.385  10.120  1.00  0.00     0.230 C 
HETATM   24  C   UNL     1      40.909 -10.556   9.747  1.00  0.00     0.034 C 
ENDBRANCH  21  23
BRANCH  21  25
HETATM   25  C   UNL     1      43.989 -12.062  11.092  1.00  0.00     0.230 C 
HETATM   26  C   UNL     1      43.354 -11.675  12.414  1.00  0.00     0.034 C 
ENDBRANCH  21  25
ENDBRANCH  20  21
ENDBRANCH  19  20
ENDBRANCH  18  19
ENDBRANCH  15  18
ENDBRANCH   1  14
BRANCH   1  27
HETATM   27  O   UNL     1      42.212 -14.262   3.537  1.00  0.00    -0.359 OA
HETATM   28  H   UNL     1      42.063 -13.310   3.402  1.00  0.00     0.213 HD
ENDBRANCH   1  27
BRANCH   2  29
HETATM   29  C   UNL     1      43.034 -16.845   5.260  1.00  0.00     0.076 A 
HETATM   30  C   UNL     1      43.738 -17.348   6.370  1.00  0.00     0.098 A 
HETATM   31  C   UNL     1      44.547 -18.492   6.258  1.00  0.00     0.075 A 
HETATM   32  C   UNL     1      44.716 -19.116   5.025  1.00  0.00     0.070 A 
HETATM   33  C   UNL     1      44.058 -18.611   3.910  1.00  0.00     0.039 A 
HETATM   34  C   UNL     1      43.239 -17.487   4.024  1.00  0.00     0.035 A 
BRANCH  30  35
HETATM   35  O   UNL     1      43.630 -16.722   7.587  1.00  0.00    -0.354 OA
HETATM   36  C   UNL     1      43.549 -17.670   8.664  1.00  0.00     0.210 C 
ENDBRANCH  30  35
BRANCH  32  37
HETATM   37  O   UNL     1      45.458 -20.241   4.803  1.00  0.00    -0.356 OA
HETATM   38  C   UNL     1      44.779 -21.476   5.009  1.00  0.00     0.210 C 
ENDBRANCH  32  37
ENDBRANCH   2  29
TORSDOF 11
ENDMDL
MODEL 3
REMARK VINA RESULT:      -7.5      3.577      7.111
REMARK  11 active torsions:
REMARK  status: ('A' for Active; 'I' for Inactive)
REMARK    1  A    between atoms: C_2  and  N_3 
REMARK    2  A    between atoms: N_3  and  C_5 
REMARK    3  A    between atoms: N_3  and  C_34 
REMARK    4  A    between atoms: C_5  and  C_6 
REMARK    5  A    between atoms: C_6  and  C_7 
REMARK    6  A    between atoms: C_7  and  N_8 
REMARK       I    between atoms: N_8  and  C_9 
REMARK    7  A    between atoms: C_9  and  C_10 
REMARK    8  A    between atoms: C_10  and  O_11 
REMARK    9  A    between atoms: N_12  and  C_13 
REMARK   10  A    between atoms: C_14  and  O_15 
REMARK   11  A    between atoms: C_18  and  O_19 
ROOT
HETATM    1  C   UNL     1      41.641 -16.761   4.983  1.00  0.00     0.256 C 
HETATM    2  N   UNL     1      41.129 -15.646   4.156  1.00  0.00    -0.251 N 
HETATM    3  C   UNL     1      40.862 -15.837   2.807  1.00  0.00     0.330 C 
HETATM    4  O   UNL     1      40.222 -15.060   2.097  1.00  0.00    -0.246 OA
HETATM    5  N   UNL     1      41.413 -16.919   2.197  1.00  0.00    -0.308 N 
HETATM    6  C   UNL     1      42.237 -17.852   2.798  1.00  0.00     0.048 A 
HETATM    7  C   UNL     1      42.421 -17.796   4.174  1.00  0.00     0.035 A 
HETATM    8  C   UNL     1      42.854 -18.831   2.016  1.00  0.00     0.031 A 
HETATM    9  C   UNL     1      43.689 -19.773   2.615  1.00  0.00     0.021 A 
HETATM   10  C   UNL     1      43.876 -19.742   3.993  1.00  0.00     0.011 A 
HETATM   11 BR   UNL     1      45.007 -21.012   4.816  1.00  0.00    -0.051 Br
HETATM   12  C   UNL     1      43.234 -18.779   4.774  1.00  0.00     0.034 A 
HETATM   13  H   UNL     1      41.201 -16.989   1.209  1.00  0.00     0.170 HD
ENDROOT
BRANCH   1  14
HETATM   14  C   UNL     1      42.651 -16.223   6.115  1.00  0.00     0.279 C 
HETATM   15  N   UNL     1      43.723 -15.457   5.654  1.00  0.00    -0.356 N 
HETATM   16  H   UNL     1      43.570 -15.001   4.760  1.00  0.00     0.162 HD
HETATM   17  O   UNL     1      42.593 -16.581   7.294  1.00  0.00    -0.268 OA
BRANCH  15  18
HETATM   18  C   UNL     1      44.653 -14.874   6.595  1.00  0.00     0.124 C 
BRANCH  18  19
HETATM   19  C   UNL     1      44.242 -13.462   7.014  1.00  0.00     0.047 C 
BRANCH  19  20
HETATM   20  C   UNL     1      44.874 -12.973   8.317  1.00  0.00     0.236 C 
BRANCH  20  21
HETATM   21  N   UNL     1      43.861 -12.391   9.296  1.00  0.00    -0.072 N 
HETATM   22  H   UNL     1      43.137 -13.106   9.432  1.00  0.00     0.279 HD
BRANCH  21  23
HETATM   23  C   UNL     1      43.119 -11.192   8.720  1.00  0.00     0.230 C 
HETATM   24  C   UNL     1      42.297 -10.508   9.800  1.00  0.00     0.034 C 
ENDBRANCH  21  23
BRANCH  21  25
HETATM   25  C   UNL     1      44.399 -12.114  10.690  1.00  0.00     0.230 C 
HETATM   26  C   UNL     1      45.691 -11.320  10.676  1.00  0.00     0.034 C 
ENDBRANCH  21  25
ENDBRANCH  20  21
ENDBRANCH  19  20
ENDBRANCH  18  19
ENDBRANCH  15  18
ENDBRANCH   1  14
BRANCH   1  27
HETATM   27  O   UNL     1      40.543 -17.498   5.484  1.00  0.00    -0.359 OA
HETATM   28  H   UNL     1      40.772 -18.428   5.308  1.00  0.00     0.213 HD
ENDBRANCH   1  27
BRANCH   2  29
HETATM   29  C   UNL     1      40.758 -14.378   4.752  1.00  0.00     0.076 A 
HETATM   30  C   UNL     1      41.423 -13.159   4.523  1.00  0.00     0.098 A 
HETATM   31  C   UNL     1      40.893 -11.945   4.994  1.00  0.00     0.075 A 
HETATM   32  C   UNL     1      39.726 -11.934   5.753  1.00  0.00     0.070 A 
HETATM   33  C   UNL     1      39.077 -13.132   6.022  1.00  0.00     0.039 A 
HETATM   34  C   UNL     1      39.590 -14.337   5.538  1.00  0.00     0.035 A 
BRANCH  30  35
HETATM   35  O   UNL     1      42.602 -13.147   3.821  1.00  0.00    -0.354 OA
HETATM   36  C   UNL     1      42.410 -12.693   2.472  1.00  0.00     0.210 C 
ENDBRANCH  30  35
BRANCH  32  37
HETATM   37  O   UNL     1      39.113 -10.816   6.244  1.00  0.00    -0.356 OA
HETATM   38  C   UNL     1      39.461 -10.460   7.578  1.00  0.00     0.210 C 
ENDBRANCH  32  37
ENDBRANCH   2  29
TORSDOF 11
ENDMDL
MODEL 4
REMARK VINA RESULT:      -7.5      3.200      6.587
REMARK  11 active torsions:
REMARK  status: ('A' for Active; 'I' for Inactive)
REMARK    1  A    between atoms: C_2  and  N_3 
REMARK    2  A    between atoms: N_3  and  C_5 
REMARK    3  A    between atoms: N_3  and  C_34 
REMARK    4  A    between atoms: C_5  and  C_6 
REMARK    5  A    between atoms: C_6  and  C_7 
REMARK    6  A    between atoms: C_7  and  N_8 
REMARK       I    between atoms: N_8  and  C_9 
REMARK    7  A    between atoms: C_9  and  C_10 
REMARK    8  A    between atoms: C_10  and  O_11 
REMARK    9  A    between atoms: N_12  and  C_13 
REMARK   10  A    between atoms: C_14  and  O_15 
REMARK   11  A    between atoms: C_18  and  O_19 
ROOT
HETATM    1  C   UNL     1      40.532 -15.856   2.159  1.00  0.00     0.256 C 
HETATM    2  N   UNL     1      40.390 -14.991   0.967  1.00  0.00    -0.251 N 
HETATM    3  C   UNL     1      40.996 -15.342  -0.231  1.00  0.00     0.330 C 
HETATM    4  O   UNL     1      40.751 -14.829  -1.324  1.00  0.00    -0.246 OA
HETATM    5  N   UNL     1      41.996 -16.263  -0.193  1.00  0.00    -0.308 N 
HETATM    6  C   UNL     1      42.480 -16.881   0.945  1.00  0.00     0.048 A 
HETATM    7  C   UNL     1      41.818 -16.680   2.149  1.00  0.00     0.035 A 
HETATM    8  C   UNL     1      43.611 -17.696   0.857  1.00  0.00     0.031 A 
HETATM    9  C   UNL     1      44.108 -18.319   2.000  1.00  0.00     0.021 A 
HETATM   10  C   UNL     1      43.452 -18.142   3.214  1.00  0.00     0.011 A 
HETATM   11 BR   UNL     1      44.117 -18.980   4.772  1.00  0.00    -0.051 Br
HETATM   12  C   UNL     1      42.306 -17.350   3.291  1.00  0.00     0.034 A 
HETATM   13  H   UNL     1      42.413 -16.458  -1.096  1.00  0.00     0.170 HD
ENDROOT
BRANCH   1  14
HETATM   14  C   UNL     1      40.573 -14.978   3.507  1.00  0.00     0.279 C 
HETATM   15  N   UNL     1      41.598 -14.033   3.582  1.00  0.00    -0.356 N 
HETATM   16  H   UNL     1      41.961 -13.724   2.687  1.00  0.00     0.162 HD
HETATM   17  O   UNL     1      39.859 -15.212   4.485  1.00  0.00    -0.268 OA
BRANCH  15  18
HETATM   18  C   UNL     1      41.686 -13.150   4.725  1.00  0.00     0.124 C 
BRANCH  18  19
HETATM   19  C   UNL     1      43.067 -13.190   5.379  1.00  0.00     0.047 C 
BRANCH  19  20
HETATM   20  C   UNL     1      43.718 -14.573   5.414  1.00  0.00     0.236 C 
BRANCH  20  21
HETATM   21  N   UNL     1      44.411 -14.879   6.736  1.00  0.00    -0.072 N 
HETATM   22  H   UNL     1      45.393 -15.078   6.516  1.00  0.00     0.279 HD
BRANCH  21  23
HETATM   23  C   UNL     1      43.891 -16.155   7.383  1.00  0.00     0.230 C 
HETATM   24  C   UNL     1      42.468 -16.440   6.929  1.00  0.00     0.034 C 
ENDBRANCH  21  23
BRANCH  21  25
HETATM   25  C   UNL     1      44.462 -13.720   7.718  1.00  0.00     0.230 C 
HETATM   26  C   UNL     1      45.824 -13.057   7.778  1.00  0.00     0.034 C 
ENDBRANCH  21  25
ENDBRANCH  20  21
ENDBRANCH  19  20
ENDBRANCH  18  19
ENDBRANCH  15  18
ENDBRANCH   1  14
BRANCH   1  27
HETATM   27  O   UNL     1      39.515 -16.838   2.134  1.00  0.00    -0.359 OA
HETATM   28  H   UNL     1      39.846 -17.549   2.712  1.00  0.00     0.213 HD
ENDBRANCH   1  27
BRANCH   2  29
HETATM   29  C   UNL     1      39.506 -13.843   0.974  1.00  0.00     0.076 A 
HETATM   30  C   UNL     1      39.933 -12.503   1.017  1.00  0.00     0.098 A 
HETATM   31  C   UNL     1      39.023 -11.447   0.838  1.00  0.00     0.075 A 
HETATM   32  C   UNL     1      37.665 -11.707   0.675  1.00  0.00     0.070 A 
HETATM   33  C   UNL     1      37.220 -13.023   0.668  1.00  0.00     0.039 A 
HETATM   34  C   UNL     1      38.125 -14.075   0.825  1.00  0.00     0.035 A 
BRANCH  30  35
HETATM   35  O   UNL     1      41.259 -12.216   1.227  1.00  0.00    -0.354 OA
HETATM   36  C   UNL     1      41.879 -11.689   0.044  1.00  0.00     0.210 C 
ENDBRANCH  30  35
BRANCH  32  37
HETATM   37  O   UNL     1      36.697 -10.764   0.474  1.00  0.00    -0.356 OA
HETATM   38  C   UNL     1      35.368 -11.264   0.361  1.00  0.00     0.210 C 
ENDBRANCH  32  37
ENDBRANCH   2  29
TORSDOF 11
ENDMDL
MODEL 5
REMARK VINA RESULT:      -7.3      3.534      7.068
REMARK  11 active torsions:
REMARK  status: ('A' for Active; 'I' for Inactive)
REMARK    1  A    between atoms: C_2  and  N_3 
REMARK    2  A    between atoms: N_3  and  C_5 
REMARK    3  A    between atoms: N_3  and  C_34 
REMARK    4  A    between atoms: C_5  and  C_6 
REMARK    5  A    between atoms: C_6  and  C_7 
REMARK    6  A    between atoms: C_7  and  N_8 
REMARK       I    between atoms: N_8  and  C_9 
REMARK    7  A    between atoms: C_9  and  C_10 
REMARK    8  A    between atoms: C_10  and  O_11 
REMARK    9  A    between atoms: N_12  and  C_13 
REMARK   10  A    between atoms: C_14  and  O_15 
REMARK   11  A    between atoms: C_18  and  O_19 
ROOT
HETATM    1  C   UNL     1      41.832 -16.661   3.879  1.00  0.00     0.256 C 
HETATM    2  N   UNL     1      41.900 -15.580   2.872  1.00  0.00    -0.251 N 
HETATM    3  C   UNL     1      42.341 -15.846   1.583  1.00  0.00     0.330 C 
HETATM    4  O   UNL     1      42.214 -15.088   0.622  1.00  0.00    -0.246 OA
HETATM    5  N   UNL     1      43.041 -16.994   1.375  1.00  0.00    -0.308 N 
HETATM    6  C   UNL     1      43.369 -17.925   2.343  1.00  0.00     0.048 A 
HETATM    7  C   UNL     1      42.832 -17.786   3.616  1.00  0.00     0.035 A 
HETATM    8  C   UNL     1      44.220 -18.984   2.018  1.00  0.00     0.031 A 
HETATM    9  C   UNL     1      44.560 -19.924   2.989  1.00  0.00     0.021 A 
HETATM   10  C   UNL     1      44.022 -19.811   4.267  1.00  0.00     0.011 A 
HETATM   11 BR   UNL     1      44.476 -21.078   5.592  1.00  0.00    -0.051 Br
HETATM   12  C   UNL     1      43.149 -18.767   4.578  1.00  0.00     0.034 A 
HETATM   13  H   UNL     1      43.355 -17.118   0.420  1.00  0.00     0.170 HD
ENDROOT
BRANCH   1  14
HETATM   14  C   UNL     1      42.165 -16.101   5.351  1.00  0.00     0.279 C 
HETATM   15  N   UNL     1      43.515 -15.864   5.616  1.00  0.00    -0.356 N 
HETATM   16  H   UNL     1      44.089 -15.695   4.796  1.00  0.00     0.162 HD
HETATM   17  O   UNL     1      41.324 -16.029   6.250  1.00  0.00    -0.268 OA
BRANCH  15  18
HETATM   18  C   UNL     1      43.915 -15.301   6.887  1.00  0.00     0.124 C 
BRANCH  18  19
HETATM   19  C   UNL     1      44.222 -13.807   6.785  1.00  0.00     0.047 C 
BRANCH  19  20
HETATM   20  C   UNL     1      45.056 -13.247   7.938  1.00  0.00     0.236 C 
BRANCH  20  21
HETATM   21  N   UNL     1      44.406 -12.052   8.625  1.00  0.00    -0.072 N 
HETATM   22  H   UNL     1      45.016 -11.244   8.455  1.00  0.00     0.279 HD
BRANCH  21  23
HETATM   23  C   UNL     1      44.374 -12.201  10.141  1.00  0.00     0.230 C 
HETATM   24  C   UNL     1      45.453 -11.342  10.782  1.00  0.00     0.034 C 
ENDBRANCH  21  23
BRANCH  21  25
HETATM   25  C   UNL     1      43.055 -11.643   8.063  1.00  0.00     0.230 C 
HETATM   26  C   UNL     1      42.373 -10.569   8.888  1.00  0.00     0.034 C 
ENDBRANCH  21  25
ENDBRANCH  20  21
ENDBRANCH  19  20
ENDBRANCH  18  19
ENDBRANCH  15  18
ENDBRANCH   1  14
BRANCH   1  27
HETATM   27  O   UNL     1      40.579 -17.307   3.771  1.00  0.00    -0.359 OA
HETATM   28  H   UNL     1      39.928 -16.614   3.983  1.00  0.00     0.213 HD
ENDBRANCH   1  27
BRANCH   2  29
HETATM   29  C   UNL     1      41.377 -14.258   3.154  1.00  0.00     0.076 A 
HETATM   30  C   UNL     1      40.014 -13.911   3.117  1.00  0.00     0.098 A 
HETATM   31  C   UNL     1      39.572 -12.658   3.578  1.00  0.00     0.075 A 
HETATM   32  C   UNL     1      40.489 -11.710   4.025  1.00  0.00     0.070 A 
HETATM   33  C   UNL     1      41.843 -12.021   4.033  1.00  0.00     0.039 A 
HETATM   34  C   UNL     1      42.281 -13.272   3.594  1.00  0.00     0.035 A 
BRANCH  30  35
HETATM   35  O   UNL     1      39.094 -14.808   2.634  1.00  0.00    -0.354 OA
HETATM   36  C   UNL     1      38.538 -14.373   1.383  1.00  0.00     0.210 C 
ENDBRANCH  30  35
BRANCH  32  37
HETATM   37  O   UNL     1      40.173 -10.473   4.512  1.00  0.00    -0.356 OA
HETATM   38  C   UNL     1      41.149  -9.882   5.365  1.00  0.00     0.210 C 
ENDBRANCH  32  37
ENDBRANCH   2  29
TORSDOF 11
ENDMDL
MODEL 6
REMARK VINA RESULT:      -7.2      3.133      7.620
REMARK  11 active torsions:
REMARK  status: ('A' for Active; 'I' for Inactive)
REMARK    1  A    between atoms: C_2  and  N_3 
REMARK    2  A    between atoms: N_3  and  C_5 
REMARK    3  A    between atoms: N_3  and  C_34 
REMARK    4  A    between atoms: C_5  and  C_6 
REMARK    5  A    between atoms: C_6  and  C_7 
REMARK    6  A    between atoms: C_7  and  N_8 
REMARK       I    between atoms: N_8  and  C_9 
REMARK    7  A    between atoms: C_9  and  C_10 
REMARK    8  A    between atoms: C_10  and  O_11 
REMARK    9  A    between atoms: N_12  and  C_13 
REMARK   10  A    between atoms: C_14  and  O_15 
REMARK   11  A    between atoms: C_18  and  O_19 
ROOT
HETATM    1  C   UNL     1      40.670 -15.895   2.251  1.00  0.00     0.256 C 
HETATM    2  N   UNL     1      40.555 -15.070   1.028  1.00  0.00    -0.251 N 
HETATM    3  C   UNL     1      41.125 -15.498  -0.163  1.00  0.00     0.330 C 
HETATM    4  O   UNL     1      40.890 -15.016  -1.272  1.00  0.00    -0.246 OA
HETATM    5  N   UNL     1      42.077 -16.467  -0.101  1.00  0.00    -0.308 N 
HETATM    6  C   UNL     1      42.546 -17.064   1.054  1.00  0.00     0.048 A 
HETATM    7  C   UNL     1      41.912 -16.784   2.258  1.00  0.00     0.035 A 
HETATM    8  C   UNL     1      43.632 -17.939   0.984  1.00  0.00     0.031 A 
HETATM    9  C   UNL     1      44.113 -18.541   2.145  1.00  0.00     0.021 A 
HETATM   10  C   UNL     1      43.485 -18.285   3.359  1.00  0.00     0.011 A 
HETATM   11 BR   UNL     1      44.129 -19.095   4.940  1.00  0.00    -0.051 Br
HETATM   12  C   UNL     1      42.381 -17.432   3.418  1.00  0.00     0.034 A 
HETATM   13  H   UNL     1      42.471 -16.717  -1.001  1.00  0.00     0.170 HD
ENDROOT
BRANCH   1  14
HETATM   14  C   UNL     1      40.774 -14.969   3.563  1.00  0.00     0.279 C 
HETATM   15  N   UNL     1      41.912 -14.163   3.645  1.00  0.00    -0.356 N 
HETATM   16  H   UNL     1      42.347 -13.946   2.755  1.00  0.00     0.162 HD
HETATM   17  O   UNL     1      39.999 -15.062   4.517  1.00  0.00    -0.268 OA
BRANCH  15  18
HETATM   18  C   UNL     1      42.072 -13.248   4.754  1.00  0.00     0.124 C 
BRANCH  18  19
HETATM   19  C   UNL     1      41.635 -11.827   4.396  1.00  0.00     0.047 C 
BRANCH  19  20
HETATM   20  C   UNL     1      41.108 -11.006   5.574  1.00  0.00     0.236 C 
BRANCH  20  21
HETATM   21  N   UNL     1      39.625 -11.228   5.846  1.00  0.00    -0.072 N 
HETATM   22  H   UNL     1      39.249 -10.335   6.185  1.00  0.00     0.279 HD
BRANCH  21  23
HETATM   23  C   UNL     1      39.384 -12.210   6.985  1.00  0.00     0.230 C 
HETATM   24  C   UNL     1      39.357 -11.480   8.318  1.00  0.00     0.034 C 
ENDBRANCH  21  23
BRANCH  21  25
HETATM   25  C   UNL     1      38.788 -11.558   4.620  1.00  0.00     0.230 C 
HETATM   26  C   UNL     1      38.135 -10.336   4.006  1.00  0.00     0.034 C 
ENDBRANCH  21  25
ENDBRANCH  20  21
ENDBRANCH  19  20
ENDBRANCH  18  19
ENDBRANCH  15  18
ENDBRANCH   1  14
BRANCH   1  27
HETATM   27  O   UNL     1      39.604 -16.823   2.277  1.00  0.00    -0.359 OA
HETATM   28  H   UNL     1      39.176 -16.680   3.140  1.00  0.00     0.213 HD
ENDBRANCH   1  27
BRANCH   2  29
HETATM   29  C   UNL     1      39.730 -13.879   1.001  1.00  0.00     0.076 A 
HETATM   30  C   UNL     1      40.224 -12.564   0.912  1.00  0.00     0.098 A 
HETATM   31  C   UNL     1      39.357 -11.477   0.708  1.00  0.00     0.075 A 
HETATM   32  C   UNL     1      37.980 -11.675   0.652  1.00  0.00     0.070 A 
HETATM   33  C   UNL     1      37.472 -12.962   0.776  1.00  0.00     0.039 A 
HETATM   34  C   UNL     1      38.333 -14.046   0.958  1.00  0.00     0.035 A 
BRANCH  30  35
HETATM   35  O   UNL     1      41.573 -12.334   1.014  1.00  0.00    -0.354 OA
HETATM   36  C   UNL     1      42.052 -11.510  -0.061  1.00  0.00     0.210 C 
ENDBRANCH  30  35
BRANCH  32  37
HETATM   37  O   UNL     1      37.048 -10.699   0.439  1.00  0.00    -0.356 OA
HETATM   38  C   UNL     1      35.689 -11.113   0.552  1.00  0.00     0.210 C 
ENDBRANCH  32  37
ENDBRANCH   2  29
TORSDOF 11
ENDMDL
MODEL 7
REMARK VINA RESULT:      -7.1      3.453      6.245
REMARK  11 active torsions:
REMARK  status: ('A' for Active; 'I' for Inactive)
REMARK    1  A    between atoms: C_2  and  N_3 
REMARK    2  A    between atoms: N_3  and  C_5 
REMARK    3  A    between atoms: N_3  and  C_34 
REMARK    4  A    between atoms: C_5  and  C_6 
REMARK    5  A    between atoms: C_6  and  C_7 
REMARK    6  A    between atoms: C_7  and  N_8 
REMARK       I    between atoms: N_8  and  C_9 
REMARK    7  A    between atoms: C_9  and  C_10 
REMARK    8  A    between atoms: C_10  and  O_11 
REMARK    9  A    between atoms: N_12  and  C_13 
REMARK   10  A    between atoms: C_14  and  O_15 
REMARK   11  A    between atoms: C_18  and  O_19 
ROOT
HETATM    1  C   UNL     1      41.279 -14.535   3.105  1.00  0.00     0.256 C 
HETATM    2  N   UNL     1      41.198 -15.997   2.888  1.00  0.00    -0.251 N 
HETATM    3  C   UNL     1      40.433 -16.511   1.850  1.00  0.00     0.330 C 
HETATM    4  O   UNL     1      40.485 -17.672   1.442  1.00  0.00    -0.246 OA
HETATM    5  N   UNL     1      39.496 -15.702   1.289  1.00  0.00    -0.308 N 
HETATM    6  C   UNL     1      39.219 -14.403   1.670  1.00  0.00     0.048 A 
HETATM    7  C   UNL     1      40.047 -13.787   2.601  1.00  0.00     0.035 A 
HETATM    8  C   UNL     1      38.128 -13.737   1.107  1.00  0.00     0.031 A 
HETATM    9  C   UNL     1      37.841 -12.428   1.490  1.00  0.00     0.021 A 
HETATM   10  C   UNL     1      38.665 -11.789   2.411  1.00  0.00     0.011 A 
HETATM   11 BR   UNL     1      38.284 -10.015   2.938  1.00  0.00    -0.051 Br
HETATM   12  C   UNL     1      39.771 -12.449   2.948  1.00  0.00     0.034 A 
HETATM   13  H   UNL     1      38.955 -16.143   0.554  1.00  0.00     0.170 HD
ENDROOT
BRANCH   1  14
HETATM   14  C   UNL     1      41.404 -14.191   4.672  1.00  0.00     0.279 C 
HETATM   15  N   UNL     1      42.678 -13.825   5.110  1.00  0.00    -0.356 N 
HETATM   16  H   UNL     1      43.286 -13.447   4.391  1.00  0.00     0.162 HD
HETATM   17  O   UNL     1      40.491 -14.382   5.478  1.00  0.00    -0.268 OA
BRANCH  15  18
HETATM   18  C   UNL     1      42.885 -13.435   6.488  1.00  0.00     0.124 C 
BRANCH  18  19
HETATM   19  C   UNL     1      44.260 -13.856   7.006  1.00  0.00     0.047 C 
BRANCH  19  20
HETATM   20  C   UNL     1      44.879 -12.899   8.026  1.00  0.00     0.236 C 
BRANCH  20  21
HETATM   21  N   UNL     1      43.882 -12.399   9.063  1.00  0.00    -0.072 N 
HETATM   22  H   UNL     1      43.068 -13.022   9.017  1.00  0.00     0.279 HD
BRANCH  21  23
HETATM   23  C   UNL     1      43.334 -11.019   8.725  1.00  0.00     0.230 C 
HETATM   24  C   UNL     1      42.063 -10.745   9.512  1.00  0.00     0.034 C 
ENDBRANCH  21  23
BRANCH  21  25
HETATM   25  C   UNL     1      44.355 -12.488  10.505  1.00  0.00     0.230 C 
HETATM   26  C   UNL     1      45.432 -11.472  10.836  1.00  0.00     0.034 C 
ENDBRANCH  21  25
ENDBRANCH  20  21
ENDBRANCH  19  20
ENDBRANCH  18  19
ENDBRANCH  15  18
ENDBRANCH   1  14
BRANCH   1  27
HETATM   27  O   UNL     1      42.326 -14.015   2.309  1.00  0.00    -0.359 OA
HETATM   28  H   UNL     1      42.259 -13.049   2.419  1.00  0.00     0.213 HD
ENDBRANCH   1  27
BRANCH   2  29
HETATM   29  C   UNL     1      42.017 -16.916   3.651  1.00  0.00     0.076 A 
HETATM   30  C   UNL     1      43.394 -17.121   3.447  1.00  0.00     0.098 A 
HETATM   31  C   UNL     1      44.153 -17.893   4.345  1.00  0.00     0.075 A 
HETATM   32  C   UNL     1      43.540 -18.522   5.425  1.00  0.00     0.070 A 
HETATM   33  C   UNL     1      42.174 -18.361   5.621  1.00  0.00     0.039 A 
HETATM   34  C   UNL     1      41.422 -17.579   4.742  1.00  0.00     0.035 A 
BRANCH  30  35
HETATM   35  O   UNL     1      44.015 -16.555   2.362  1.00  0.00    -0.354 OA
HETATM   36  C   UNL     1      44.097 -17.473   1.260  1.00  0.00     0.210 C 
ENDBRANCH  30  35
BRANCH  32  37
HETATM   37  O   UNL     1      44.179 -19.276   6.368  1.00  0.00    -0.356 OA
HETATM   38  C   UNL     1      43.924 -18.911   7.721  1.00  0.00     0.210 C 
ENDBRANCH  32  37
ENDBRANCH   2  29
TORSDOF 11
ENDMDL
MODEL 8
REMARK VINA RESULT:      -7.1      2.669      6.833
REMARK  11 active torsions:
REMARK  status: ('A' for Active; 'I' for Inactive)
REMARK    1  A    between atoms: C_2  and  N_3 
REMARK    2  A    between atoms: N_3  and  C_5 
REMARK    3  A    between atoms: N_3  and  C_34 
REMARK    4  A    between atoms: C_5  and  C_6 
REMARK    5  A    between atoms: C_6  and  C_7 
REMARK    6  A    between atoms: C_7  and  N_8 
REMARK       I    between atoms: N_8  and  C_9 
REMARK    7  A    between atoms: C_9  and  C_10 
REMARK    8  A    between atoms: C_10  and  O_11 
REMARK    9  A    between atoms: N_12  and  C_13 
REMARK   10  A    between atoms: C_14  and  O_15 
REMARK   11  A    between atoms: C_18  and  O_19 
ROOT
HETATM    1  C   UNL     1      43.166 -17.209   4.091  1.00  0.00     0.256 C 
HETATM    2  N   UNL     1      42.842 -16.665   5.428  1.00  0.00    -0.251 N 
HETATM    3  C   UNL     1      43.445 -17.190   6.564  1.00  0.00     0.330 C 
HETATM    4  O   UNL     1      43.429 -16.665   7.678  1.00  0.00    -0.246 OA
HETATM    5  N   UNL     1      44.028 -18.414   6.467  1.00  0.00    -0.308 N 
HETATM    6  C   UNL     1      44.067 -19.201   5.331  1.00  0.00     0.048 A 
HETATM    7  C   UNL     1      43.612 -18.669   4.131  1.00  0.00     0.035 A 
HETATM    8  C   UNL     1      44.569 -20.502   5.412  1.00  0.00     0.031 A 
HETATM    9  C   UNL     1      44.607 -21.303   4.273  1.00  0.00     0.021 A 
HETATM   10  C   UNL     1      44.168 -20.785   3.058  1.00  0.00     0.011 A 
HETATM   11 BR   UNL     1      44.214 -21.862   1.506  1.00  0.00    -0.051 Br
HETATM   12  C   UNL     1      43.695 -19.475   2.977  1.00  0.00     0.034 A 
HETATM   13  H   UNL     1      44.428 -18.751   7.334  1.00  0.00     0.170 HD
ENDROOT
BRANCH   1  14
HETATM   14  C   UNL     1      41.882 -17.158   3.122  1.00  0.00     0.279 C 
HETATM   15  N   UNL     1      42.006 -16.341   1.996  1.00  0.00    -0.356 N 
HETATM   16  H   UNL     1      42.960 -16.174   1.692  1.00  0.00     0.162 HD
HETATM   17  O   UNL     1      40.798 -17.669   3.412  1.00  0.00    -0.268 OA
BRANCH  15  18
HETATM   18  C   UNL     1      40.933 -16.274   1.029  1.00  0.00     0.124 C 
BRANCH  18  19
HETATM   19  C   UNL     1      40.320 -14.876   0.944  1.00  0.00     0.047 C 
BRANCH  19  20
HETATM   20  C   UNL     1      40.493 -14.184  -0.408  1.00  0.00     0.236 C 
BRANCH  20  21
HETATM   21  N   UNL     1      39.714 -14.855  -1.532  1.00  0.00    -0.072 N 
HETATM   22  H   UNL     1      39.260 -15.681  -1.126  1.00  0.00     0.279 HD
BRANCH  21  23
HETATM   23  C   UNL     1      40.625 -15.410  -2.620  1.00  0.00     0.230 C 
HETATM   24  C   UNL     1      41.482 -14.301  -3.211  1.00  0.00     0.034 C 
ENDBRANCH  21  23
BRANCH  21  25
HETATM   25  C   UNL     1      38.575 -14.030  -2.108  1.00  0.00     0.230 C 
HETATM   26  C   UNL     1      37.749 -14.794  -3.125  1.00  0.00     0.034 C 
ENDBRANCH  21  25
ENDBRANCH  20  21
ENDBRANCH  19  20
ENDBRANCH  18  19
ENDBRANCH  15  18
ENDBRANCH   1  14
BRANCH   1  27
HETATM   27  O   UNL     1      44.302 -16.534   3.587  1.00  0.00    -0.359 OA
HETATM   28  H   UNL     1      44.093 -16.369   2.650  1.00  0.00     0.213 HD
ENDBRANCH   1  27
BRANCH   2  29
HETATM   29  C   UNL     1      42.010 -15.489   5.579  1.00  0.00     0.076 A 
HETATM   30  C   UNL     1      42.430 -14.171   5.317  1.00  0.00     0.098 A 
HETATM   31  C   UNL     1      41.512 -13.106   5.314  1.00  0.00     0.075 A 
HETATM   32  C   UNL     1      40.175 -13.328   5.632  1.00  0.00     0.070 A 
HETATM   33  C   UNL     1      39.750 -14.616   5.931  1.00  0.00     0.039 A 
HETATM   34  C   UNL     1      40.656 -15.679   5.915  1.00  0.00     0.035 A 
BRANCH  30  35
HETATM   35  O   UNL     1      43.752 -13.916   5.050  1.00  0.00    -0.354 OA
HETATM   36  C   UNL     1      44.504 -13.711   6.256  1.00  0.00     0.210 C 
ENDBRANCH  30  35
BRANCH  32  37
HETATM   37  O   UNL     1      39.195 -12.375   5.640  1.00  0.00    -0.356 OA
HETATM   38  C   UNL     1      38.909 -11.778   4.379  1.00  0.00     0.210 C 
ENDBRANCH  32  37
ENDBRANCH   2  29
TORSDOF 11
ENDMDL
MODEL 9
REMARK VINA RESULT:      -7.1      2.284      5.594
REMARK  11 active torsions:
REMARK  status: ('A' for Active; 'I' for Inactive)
REMARK    1  A    between atoms: C_2  and  N_3 
REMARK    2  A    between atoms: N_3  and  C_5 
REMARK    3  A    between atoms: N_3  and  C_34 
REMARK    4  A    between atoms: C_5  and  C_6 
REMARK    5  A    between atoms: C_6  and  C_7 
REMARK    6  A    between atoms: C_7  and  N_8 
REMARK       I    between atoms: N_8  and  C_9 
REMARK    7  A    between atoms: C_9  and  C_10 
REMARK    8  A    between atoms: C_10  and  O_11 
REMARK    9  A    between atoms: N_12  and  C_13 
REMARK   10  A    between atoms: C_14  and  O_15 
REMARK   11  A    between atoms: C_18  and  O_19 
ROOT
HETATM    1  C   UNL     1      40.703 -14.919   3.460  1.00  0.00     0.256 C 
HETATM    2  N   UNL     1      42.088 -15.076   3.955  1.00  0.00    -0.251 N 
HETATM    3  C   UNL     1      42.737 -14.016   4.574  1.00  0.00     0.330 C 
HETATM    4  O   UNL     1      43.780 -14.107   5.223  1.00  0.00    -0.246 OA
HETATM    5  N   UNL     1      42.235 -12.766   4.388  1.00  0.00    -0.308 N 
HETATM    6  C   UNL     1      41.132 -12.447   3.617  1.00  0.00     0.048 A 
HETATM    7  C   UNL     1      40.359 -13.476   3.095  1.00  0.00     0.035 A 
HETATM    8  C   UNL     1      40.815 -11.105   3.391  1.00  0.00     0.031 A 
HETATM    9  C   UNL     1      39.707 -10.776   2.613  1.00  0.00     0.021 A 
HETATM   10  C   UNL     1      38.912 -11.791   2.092  1.00  0.00     0.011 A 
HETATM   11 BR   UNL     1      37.408 -11.357   1.033  1.00  0.00    -0.051 Br
HETATM   12  C   UNL     1      39.217 -13.130   2.345  1.00  0.00     0.034 A 
HETATM   13  H   UNL     1      42.766 -12.034   4.844  1.00  0.00     0.170 HD
ENDROOT
BRANCH   1  14
HETATM   14  C   UNL     1      40.466 -15.787   2.126  1.00  0.00     0.279 C 
HETATM   15  N   UNL     1      41.153 -15.350   0.991  1.00  0.00    -0.356 N 
HETATM   16  H   UNL     1      41.988 -14.806   1.179  1.00  0.00     0.162 HD
HETATM   17  O   UNL     1      39.623 -16.682   2.045  1.00  0.00    -0.268 OA
BRANCH  15  18
HETATM   18  C   UNL     1      41.058 -16.097  -0.245  1.00  0.00     0.124 C 
BRANCH  18  19
HETATM   19  C   UNL     1      41.031 -15.183  -1.470  1.00  0.00     0.047 C 
BRANCH  19  20
HETATM   20  C   UNL     1      40.151 -13.942  -1.322  1.00  0.00     0.236 C 
BRANCH  20  21
HETATM   21  N   UNL     1      40.773 -12.688  -1.923  1.00  0.00    -0.072 N 
HETATM   22  H   UNL     1      40.077 -12.289  -2.564  1.00  0.00     0.279 HD
BRANCH  21  23
HETATM   23  C   UNL     1      41.976 -13.001  -2.804  1.00  0.00     0.230 C 
HETATM   24  C   UNL     1      42.248 -11.851  -3.760  1.00  0.00     0.034 C 
ENDBRANCH  21  23
BRANCH  21  25
HETATM   25  C   UNL     1      41.067 -11.575  -0.930  1.00  0.00     0.230 C 
HETATM   26  C   UNL     1      42.187 -11.924   0.032  1.00  0.00     0.034 C 
ENDBRANCH  21  25
ENDBRANCH  20  21
ENDBRANCH  19  20
ENDBRANCH  18  19
ENDBRANCH  15  18
ENDBRANCH   1  14
BRANCH   1  27
HETATM   27  O   UNL     1      39.806 -15.213   4.513  1.00  0.00    -0.359 OA
HETATM   28  H   UNL     1      39.653 -14.356   4.949  1.00  0.00     0.213 HD
ENDBRANCH   1  27
BRANCH   2  29
HETATM   29  C   UNL     1      42.749 -16.365   3.942  1.00  0.00     0.076 A 
HETATM   30  C   UNL     1      42.524 -17.391   4.878  1.00  0.00     0.098 A 
HETATM   31  C   UNL     1      43.067 -18.674   4.691  1.00  0.00     0.075 A 
HETATM   32  C   UNL     1      43.895 -18.937   3.603  1.00  0.00     0.070 A 
HETATM   33  C   UNL     1      44.160 -17.925   2.689  1.00  0.00     0.039 A 
HETATM   34  C   UNL     1      43.604 -16.655   2.861  1.00  0.00     0.035 A 
BRANCH  30  35
HETATM   35  O   UNL     1      41.753 -17.146   5.987  1.00  0.00    -0.354 OA
HETATM   36  C   UNL     1      42.556 -17.026   7.172  1.00  0.00     0.210 C 
ENDBRANCH  30  35
BRANCH  32  37
HETATM   37  O   UNL     1      44.460 -20.146   3.312  1.00  0.00    -0.356 OA
HETATM   38  C   UNL     1      43.937 -20.808   2.164  1.00  0.00     0.210 C 
ENDBRANCH  32  37
ENDBRANCH   2  29
TORSDOF 11
ENDMDL
MODEL 10
REMARK VINA RESULT:      -7.1      2.711      5.815
REMARK  11 active torsions:
REMARK  status: ('A' for Active; 'I' for Inactive)
REMARK    1  A    between atoms: C_2  and  N_3 
REMARK    2  A    between atoms: N_3  and  C_5 
REMARK    3  A    between atoms: N_3  and  C_34 
REMARK    4  A    between atoms: C_5  and  C_6 
REMARK    5  A    between atoms: C_6  and  C_7 
REMARK    6  A    between atoms: C_7  and  N_8 
REMARK       I    between atoms: N_8  and  C_9 
REMARK    7  A    between atoms: C_9  and  C_10 
REMARK    8  A    between atoms: C_10  and  O_11 
REMARK    9  A    between atoms: N_12  and  C_13 
REMARK   10  A    between atoms: C_14  and  O_15 
REMARK   11  A    between atoms: C_18  and  O_19 
ROOT
HETATM    1  C   UNL     1      40.757 -14.641   3.759  1.00  0.00     0.256 C 
HETATM    2  N   UNL     1      42.145 -14.960   4.160  1.00  0.00    -0.251 N 
HETATM    3  C   UNL     1      42.874 -14.069   4.937  1.00  0.00     0.330 C 
HETATM    4  O   UNL     1      43.929 -14.335   5.513  1.00  0.00    -0.246 OA
HETATM    5  N   UNL     1      42.442 -12.782   5.004  1.00  0.00    -0.308 N 
HETATM    6  C   UNL     1      41.337 -12.268   4.351  1.00  0.00     0.048 A 
HETATM    7  C   UNL     1      40.488 -13.139   3.681  1.00  0.00     0.035 A 
HETATM    8  C   UNL     1      41.094 -10.892   4.389  1.00  0.00     0.031 A 
HETATM    9  C   UNL     1      39.984 -10.366   3.731  1.00  0.00     0.021 A 
HETATM   10  C   UNL     1      39.115 -11.223   3.065  1.00  0.00     0.011 A 
HETATM   11 BR   UNL     1      37.608 -10.520   2.167  1.00  0.00    -0.051 Br
HETATM   12  C   UNL     1      39.346 -12.599   3.054  1.00  0.00     0.034 A 
HETATM   13  H   UNL     1      43.029 -12.177   5.565  1.00  0.00     0.170 HD
ENDROOT
BRANCH   1  14
HETATM   14  C   UNL     1      40.428 -15.232   2.299  1.00  0.00     0.279 C 
HETATM   15  N   UNL     1      41.055 -14.586   1.231  1.00  0.00    -0.356 N 
HETATM   16  H   UNL     1      41.909 -14.094   1.470  1.00  0.00     0.162 HD
HETATM   17  O   UNL     1      39.566 -16.090   2.098  1.00  0.00    -0.268 OA
BRANCH  15  18
HETATM   18  C   UNL     1      40.875 -15.078  -0.118  1.00  0.00     0.124 C 
BRANCH  18  19
HETATM   19  C   UNL     1      41.322 -14.060  -1.167  1.00  0.00     0.047 C 
BRANCH  19  20
HETATM   20  C   UNL     1      40.197 -13.195  -1.736  1.00  0.00     0.236 C 
BRANCH  20  21
HETATM   21  N   UNL     1      38.820 -13.832  -1.598  1.00  0.00    -0.072 N 
HETATM   22  H   UNL     1      38.961 -14.754  -1.171  1.00  0.00     0.279 HD
BRANCH  21  23
HETATM   23  C   UNL     1      38.177 -14.123  -2.948  1.00  0.00     0.230 C 
HETATM   24  C   UNL     1      38.855 -15.311  -3.613  1.00  0.00     0.034 C 
ENDBRANCH  21  23
BRANCH  21  25
HETATM   25  C   UNL     1      37.869 -13.110  -0.657  1.00  0.00     0.230 C 
HETATM   26  C   UNL     1      37.356 -14.000   0.459  1.00  0.00     0.034 C 
ENDBRANCH  21  25
ENDBRANCH  20  21
ENDBRANCH  19  20
ENDBRANCH  18  19
ENDBRANCH  15  18
ENDBRANCH   1  14
BRANCH   1  27
HETATM   27  O   UNL     1      39.877 -15.078   4.776  1.00  0.00    -0.359 OA
HETATM   28  H   UNL     1      40.385 -15.746   5.269  1.00  0.00     0.213 HD
ENDBRANCH   1  27
BRANCH   2  29
HETATM   29  C   UNL     1      42.727 -16.257   3.883  1.00  0.00     0.076 A 
HETATM   30  C   UNL     1      42.430 -17.437   4.590  1.00  0.00     0.098 A 
HETATM   31  C   UNL     1      42.898 -18.686   4.145  1.00  0.00     0.075 A 
HETATM   32  C   UNL     1      43.719 -18.771   3.024  1.00  0.00     0.070 A 
HETATM   33  C   UNL     1      44.053 -17.612   2.334  1.00  0.00     0.039 A 
HETATM   34  C   UNL     1      43.573 -16.373   2.763  1.00  0.00     0.035 A 
BRANCH  30  35
HETATM   35  O   UNL     1      41.665 -17.376   5.728  1.00  0.00    -0.354 OA
HETATM   36  C   UNL     1      42.479 -17.305   6.909  1.00  0.00     0.210 C 
ENDBRANCH  30  35
BRANCH  32  37
HETATM   37  O   UNL     1      44.213 -19.929   2.491  1.00  0.00    -0.356 OA
HETATM   38  C   UNL     1      44.745 -20.858   3.430  1.00  0.00     0.210 C 
ENDBRANCH  32  37
ENDBRANCH   2  29
TORSDOF 11
ENDMDL
