MODEL 1
REMARK VINA RESULT:      -9.9      0.000      0.000
REMARK  5 active torsions:
REMARK  status: ('A' for Active; 'I' for Inactive)
REMARK    1  A    between atoms: C_14  and  C_15 
REMARK    2  A    between atoms: C_15  and  C_16 
REMARK    3  A    between atoms: C_16  and  C_17 
REMARK       I    between atoms: C_17  and  N_18 
REMARK    4  A    between atoms: N_21  and  C_22 
REMARK    5  A    between atoms: C_23  and  O_24 
ROOT
HETATM    1  C   UNL     1      42.732 -16.640   1.896  1.00  0.00     0.051 C 
ENDROOT
BRANCH   1   2
HETATM    2  C   UNL     1      43.269 -17.323   3.121  1.00  0.00    -0.017 A 
HETATM    3  C   UNL     1      43.696 -18.697   3.149  1.00  0.00    -0.000 A 
HETATM    4  C   UNL     1      43.745 -19.729   2.186  1.00  0.00     0.021 A 
HETATM    5  C   UNL     1      44.149 -18.972   4.432  1.00  0.00     0.043 A 
HETATM    6  C   UNL     1      44.232 -21.000   2.539  1.00  0.00    -0.061 A 
HETATM    7  C   UNL     1      44.322 -22.089   1.511  1.00  0.00     0.048 C 
HETATM    8  C   UNL     1      44.685 -21.228   3.842  1.00  0.00     0.009 A 
HETATM    9  C   UNL     1      44.649 -20.222   4.813  1.00  0.00     0.031 A 
HETATM   10  N   UNL     1      44.009 -17.818   5.156  1.00  0.00    -0.354 N 
HETATM   11  H   UNL     1      44.271 -17.715   6.126  1.00  0.00     0.166 HD
HETATM   12  C   UNL     1      43.476 -16.800   4.395  1.00  0.00     0.057 A 
HETATM   13  C   UNL     1      43.246 -15.492   4.964  1.00  0.00     0.032 A 
HETATM   14  S   UNL     1      44.026 -15.012   6.427  1.00  0.00    -0.100 SA
HETATM   15  C   UNL     1      42.432 -14.476   4.500  1.00  0.00     0.021 A 
HETATM   16  C   UNL     1      43.289 -13.474   6.411  1.00  0.00     0.050 A 
HETATM   17  C   UNL     1      42.458 -13.314   5.329  1.00  0.00     0.008 A 
ENDBRANCH   1   2
BRANCH   1  18
HETATM   18  C   UNL     1      41.247 -16.937   1.679  1.00  0.00     0.108 C 
BRANCH  18  19
HETATM   19  C   UNL     1      40.437 -15.663   1.526  1.00  0.00     0.220 C 
HETATM   20  N   UNL     1      40.463 -15.045   0.283  1.00  0.00    -0.349 N 
HETATM   21  C   UNL     1      41.327 -15.428  -0.840  1.00  0.00     0.145 C 
HETATM   22  C   UNL     1      39.818 -13.736   0.131  1.00  0.00     0.145 C 
HETATM   23  C   UNL     1      40.633 -15.259  -2.209  1.00  0.00     0.143 C 
HETATM   24  N   UNL     1      39.911 -13.978  -2.366  1.00  0.00    -0.376 N 
HETATM   25  C   UNL     1      39.057 -13.627  -1.198  1.00  0.00     0.143 C 
HETATM   26  O   UNL     1      39.780 -15.210   2.463  1.00  0.00    -0.273 OA
BRANCH  24  27
HETATM   27  C   UNL     1      40.565 -12.886  -2.956  1.00  0.00     0.063 A 
HETATM   28  C   UNL     1      39.847 -12.072  -3.858  1.00  0.00     0.092 A 
HETATM   29  C   UNL     1      40.396 -10.948  -4.466  1.00  0.00     0.039 A 
HETATM   30  C   UNL     1      41.720 -10.618  -4.200  1.00  0.00     0.003 A 
HETATM   31  C   UNL     1      42.472 -11.417  -3.341  1.00  0.00     0.002 A 
HETATM   32  C   UNL     1      41.901 -12.543  -2.729  1.00  0.00     0.032 A 
BRANCH  28  33
HETATM   33  O   UNL     1      38.570 -12.433  -4.209  1.00  0.00    -0.358 OA
HETATM   34  H   UNL     1      38.717 -13.082  -4.926  1.00  0.00     0.218 HD
ENDBRANCH  28  33
ENDBRANCH  24  27
ENDBRANCH  18  19
ENDBRANCH   1  18
TORSDOF 5
ENDMDL
MODEL 2
REMARK VINA RESULT:      -9.6      1.601      4.255
REMARK  5 active torsions:
REMARK  status: ('A' for Active; 'I' for Inactive)
REMARK    1  A    between atoms: C_14  and  C_15 
REMARK    2  A    between atoms: C_15  and  C_16 
REMARK    3  A    between atoms: C_16  and  C_17 
REMARK       I    between atoms: C_17  and  N_18 
REMARK    4  A    between atoms: N_21  and  C_22 
REMARK    5  A    between atoms: C_23  and  O_24 
ROOT
HETATM    1  C   UNL     1      43.007 -17.473   2.231  1.00  0.00     0.051 C 
ENDROOT
BRANCH   1   2
HETATM    2  C   UNL     1      43.560 -17.731   3.603  1.00  0.00    -0.017 A 
HETATM    3  C   UNL     1      43.602 -16.743   4.649  1.00  0.00    -0.000 A 
HETATM    4  C   UNL     1      43.205 -15.390   4.736  1.00  0.00     0.021 A 
HETATM    5  C   UNL     1      44.154 -17.341   5.773  1.00  0.00     0.043 A 
HETATM    6  C   UNL     1      43.385 -14.680   5.936  1.00  0.00    -0.061 A 
HETATM    7  C   UNL     1      42.931 -13.253   6.047  1.00  0.00     0.048 C 
HETATM    8  C   UNL     1      43.938 -15.326   7.045  1.00  0.00     0.009 A 
HETATM    9  C   UNL     1      44.336 -16.665   6.985  1.00  0.00     0.031 A 
HETATM   10  N   UNL     1      44.435 -18.638   5.433  1.00  0.00    -0.354 N 
HETATM   11  H   UNL     1      44.835 -19.321   6.060  1.00  0.00     0.166 HD
HETATM   12  C   UNL     1      44.092 -18.908   4.125  1.00  0.00     0.057 A 
HETATM   13  C   UNL     1      44.302 -20.221   3.561  1.00  0.00     0.032 A 
HETATM   14  S   UNL     1      44.545 -21.595   4.578  1.00  0.00    -0.100 SA
HETATM   15  C   UNL     1      44.354 -20.595   2.231  1.00  0.00     0.021 A 
HETATM   16  C   UNL     1      44.698 -22.653   3.248  1.00  0.00     0.050 A 
HETATM   17  C   UNL     1      44.578 -21.992   2.049  1.00  0.00     0.008 A 
ENDBRANCH   1   2
BRANCH   1  18
HETATM   18  C   UNL     1      41.485 -17.617   2.190  1.00  0.00     0.108 C 
BRANCH  18  19
HETATM   19  C   UNL     1      40.796 -16.266   2.130  1.00  0.00     0.220 C 
HETATM   20  N   UNL     1      40.813 -15.603   0.910  1.00  0.00    -0.349 N 
HETATM   21  C   UNL     1      41.572 -16.020  -0.275  1.00  0.00     0.145 C 
HETATM   22  C   UNL     1      40.292 -14.233   0.842  1.00  0.00     0.145 C 
HETATM   23  C   UNL     1      40.824 -15.731  -1.593  1.00  0.00     0.143 C 
HETATM   24  N   UNL     1      40.223 -14.382  -1.662  1.00  0.00    -0.376 N 
HETATM   25  C   UNL     1      39.473 -13.999  -0.435  1.00  0.00     0.143 C 
HETATM   26  O   UNL     1      40.239 -15.791   3.120  1.00  0.00    -0.273 OA
BRANCH  24  27
HETATM   27  C   UNL     1      40.946 -13.333  -2.252  1.00  0.00     0.063 A 
HETATM   28  C   UNL     1      40.417 -12.704  -3.397  1.00  0.00     0.092 A 
HETATM   29  C   UNL     1      41.041 -11.635  -4.031  1.00  0.00     0.039 A 
HETATM   30  C   UNL     1      42.255 -11.174  -3.536  1.00  0.00     0.003 A 
HETATM   31  C   UNL     1      42.827 -11.793  -2.425  1.00  0.00     0.002 A 
HETATM   32  C   UNL     1      42.180 -12.866  -1.792  1.00  0.00     0.032 A 
BRANCH  28  33
HETATM   33  O   UNL     1      39.268 -13.202  -3.961  1.00  0.00    -0.358 OA
HETATM   34  H   UNL     1      38.716 -12.402  -4.073  1.00  0.00     0.218 HD
ENDBRANCH  28  33
ENDBRANCH  24  27
ENDBRANCH  18  19
ENDBRANCH   1  18
TORSDOF 5
ENDMDL
MODEL 3
REMARK VINA RESULT:      -9.4      3.690      6.254
REMARK  5 active torsions:
REMARK  status: ('A' for Active; 'I' for Inactive)
REMARK    1  A    between atoms: C_14  and  C_15 
REMARK    2  A    between atoms: C_15  and  C_16 
REMARK    3  A    between atoms: C_16  and  C_17 
REMARK       I    between atoms: C_17  and  N_18 
REMARK    4  A    between atoms: N_21  and  C_22 
REMARK    5  A    between atoms: C_23  and  O_24 
ROOT
HETATM    1  C   UNL     1      43.924 -17.134   4.730  1.00  0.00     0.051 C 
ENDROOT
BRANCH   1   2
HETATM    2  C   UNL     1      43.680 -18.023   3.545  1.00  0.00    -0.017 A 
HETATM    3  C   UNL     1      44.007 -19.424   3.515  1.00  0.00    -0.000 A 
HETATM    4  C   UNL     1      44.588 -20.316   4.444  1.00  0.00     0.021 A 
HETATM    5  C   UNL     1      43.623 -19.921   2.277  1.00  0.00     0.043 A 
HETATM    6  C   UNL     1      44.777 -21.666   4.100  1.00  0.00    -0.061 A 
HETATM    7  C   UNL     1      45.358 -22.627   5.095  1.00  0.00     0.048 C 
HETATM    8  C   UNL     1      44.367 -22.123   2.844  1.00  0.00     0.009 A 
HETATM    9  C   UNL     1      43.787 -21.260   1.908  1.00  0.00     0.031 A 
HETATM   10  N   UNL     1      43.083 -18.872   1.581  1.00  0.00    -0.354 N 
HETATM   11  H   UNL     1      42.705 -18.938   0.646  1.00  0.00     0.166 HD
HETATM   12  C   UNL     1      43.105 -17.707   2.317  1.00  0.00     0.057 A 
HETATM   13  C   UNL     1      42.580 -16.476   1.770  1.00  0.00     0.032 A 
HETATM   14  S   UNL     1      41.515 -16.492   0.412  1.00  0.00    -0.100 SA
HETATM   15  C   UNL     1      42.811 -15.177   2.182  1.00  0.00     0.021 A 
HETATM   16  C   UNL     1      41.370 -14.792   0.403  1.00  0.00     0.050 A 
HETATM   17  C   UNL     1      42.114 -14.208   1.400  1.00  0.00     0.008 A 
ENDBRANCH   1   2
BRANCH   1  18
HETATM   18  C   UNL     1      42.899 -17.367   5.842  1.00  0.00     0.108 C 
BRANCH  18  19
HETATM   19  C   UNL     1      41.546 -16.776   5.491  1.00  0.00     0.220 C 
HETATM   20  N   UNL     1      41.439 -15.392   5.513  1.00  0.00    -0.349 N 
HETATM   21  C   UNL     1      42.468 -14.466   6.000  1.00  0.00     0.145 C 
HETATM   22  C   UNL     1      40.117 -14.783   5.327  1.00  0.00     0.145 C 
HETATM   23  C   UNL     1      42.523 -13.157   5.184  1.00  0.00     0.143 C 
HETATM   24  N   UNL     1      41.198 -12.556   4.917  1.00  0.00    -0.376 N 
HETATM   25  C   UNL     1      40.185 -13.535   4.436  1.00  0.00     0.143 C 
HETATM   26  O   UNL     1      40.596 -17.497   5.189  1.00  0.00    -0.273 OA
BRANCH  24  27
HETATM   27  C   UNL     1      40.694 -11.579   5.789  1.00  0.00     0.063 A 
HETATM   28  C   UNL     1      40.882 -10.219   5.467  1.00  0.00     0.092 A 
HETATM   29  C   UNL     1      40.389  -9.180   6.249  1.00  0.00     0.039 A 
HETATM   30  C   UNL     1      39.701  -9.485   7.418  1.00  0.00     0.003 A 
HETATM   31  C   UNL     1      39.525 -10.818   7.788  1.00  0.00     0.002 A 
HETATM   32  C   UNL     1      40.022 -11.855   6.983  1.00  0.00     0.032 A 
BRANCH  28  33
HETATM   33  O   UNL     1      41.639  -9.893   4.370  1.00  0.00    -0.358 OA
HETATM   34  H   UNL     1      41.984 -10.760   4.077  1.00  0.00     0.218 HD
ENDBRANCH  28  33
ENDBRANCH  24  27
ENDBRANCH  18  19
ENDBRANCH   1  18
TORSDOF 5
ENDMDL
MODEL 4
REMARK VINA RESULT:      -9.3      2.559      8.459
REMARK  5 active torsions:
REMARK  status: ('A' for Active; 'I' for Inactive)
REMARK    1  A    between atoms: C_14  and  C_15 
REMARK    2  A    between atoms: C_15  and  C_16 
REMARK    3  A    between atoms: C_16  and  C_17 
REMARK       I    between atoms: C_17  and  N_18 
REMARK    4  A    between atoms: N_21  and  C_22 
REMARK    5  A    between atoms: C_23  and  O_24 
ROOT
HETATM    1  C   UNL     1      39.869 -13.427   0.280  1.00  0.00     0.051 C 
ENDROOT
BRANCH   1   2
HETATM    2  C   UNL     1      40.799 -12.258   0.428  1.00  0.00    -0.017 A 
HETATM    3  C   UNL     1      41.520 -11.664  -0.667  1.00  0.00    -0.000 A 
HETATM    4  C   UNL     1      41.599 -11.937  -2.051  1.00  0.00     0.021 A 
HETATM    5  C   UNL     1      42.257 -10.602  -0.163  1.00  0.00     0.043 A 
HETATM    6  C   UNL     1      42.419 -11.149  -2.878  1.00  0.00    -0.061 A 
HETATM    7  C   UNL     1      42.478 -11.409  -4.355  1.00  0.00     0.048 C 
HETATM    8  C   UNL     1      43.136 -10.084  -2.326  1.00  0.00     0.009 A 
HETATM    9  C   UNL     1      43.073  -9.792  -0.960  1.00  0.00     0.031 A 
HETATM   10  N   UNL     1      41.996 -10.544   1.181  1.00  0.00    -0.354 N 
HETATM   11  H   UNL     1      42.386  -9.858   1.811  1.00  0.00     0.166 HD
HETATM   12  C   UNL     1      41.121 -11.534   1.574  1.00  0.00     0.057 A 
HETATM   13  C   UNL     1      40.709 -11.653   2.954  1.00  0.00     0.032 A 
HETATM   14  S   UNL     1      40.906 -10.338   4.054  1.00  0.00    -0.100 SA
HETATM   15  C   UNL     1      40.142 -12.736   3.598  1.00  0.00     0.021 A 
HETATM   16  C   UNL     1      40.228 -11.216   5.351  1.00  0.00     0.050 A 
HETATM   17  C   UNL     1      39.861 -12.486   4.975  1.00  0.00     0.008 A 
ENDBRANCH   1   2
BRANCH   1  18
HETATM   18  C   UNL     1      40.624 -14.755   0.209  1.00  0.00     0.108 C 
BRANCH  18  19
HETATM   19  C   UNL     1      40.366 -15.613   1.434  1.00  0.00     0.220 C 
HETATM   20  N   UNL     1      41.378 -16.482   1.819  1.00  0.00    -0.349 N 
HETATM   21  C   UNL     1      42.602 -16.755   1.055  1.00  0.00     0.145 C 
HETATM   22  C   UNL     1      41.117 -17.434   2.904  1.00  0.00     0.145 C 
HETATM   23  C   UNL     1      43.831 -16.979   1.961  1.00  0.00     0.143 C 
HETATM   24  N   UNL     1      43.579 -17.879   3.108  1.00  0.00    -0.376 N 
HETATM   25  C   UNL     1      42.323 -17.570   3.845  1.00  0.00     0.143 C 
HETATM   26  O   UNL     1      39.310 -15.528   2.060  1.00  0.00    -0.273 OA
BRANCH  24  27
HETATM   27  C   UNL     1      43.859 -19.248   2.985  1.00  0.00     0.063 A 
HETATM   28  C   UNL     1      44.524 -19.902   4.043  1.00  0.00     0.092 A 
HETATM   29  C   UNL     1      44.813 -21.263   4.030  1.00  0.00     0.039 A 
HETATM   30  C   UNL     1      44.458 -22.016   2.917  1.00  0.00     0.003 A 
HETATM   31  C   UNL     1      43.829 -21.398   1.837  1.00  0.00     0.002 A 
HETATM   32  C   UNL     1      43.537 -20.026   1.869  1.00  0.00     0.032 A 
BRANCH  28  33
HETATM   33  O   UNL     1      44.969 -19.162   5.110  1.00  0.00    -0.358 OA
HETATM   34  H   UNL     1      45.657 -19.737   5.502  1.00  0.00     0.218 HD
ENDBRANCH  28  33
ENDBRANCH  24  27
ENDBRANCH  18  19
ENDBRANCH   1  18
TORSDOF 5
ENDMDL
MODEL 5
REMARK VINA RESULT:      -9.0      2.367      3.527
REMARK  5 active torsions:
REMARK  status: ('A' for Active; 'I' for Inactive)
REMARK    1  A    between atoms: C_14  and  C_15 
REMARK    2  A    between atoms: C_15  and  C_16 
REMARK    3  A    between atoms: C_16  and  C_17 
REMARK       I    between atoms: C_17  and  N_18 
REMARK    4  A    between atoms: N_21  and  C_22 
REMARK    5  A    between atoms: C_23  and  O_24 
ROOT
HETATM    1  C   UNL     1      43.064 -16.723   1.945  1.00  0.00     0.051 C 
ENDROOT
BRANCH   1   2
HETATM    2  C   UNL     1      43.486 -17.407   3.213  1.00  0.00    -0.017 A 
HETATM    3  C   UNL     1      43.870 -18.792   3.286  1.00  0.00    -0.000 A 
HETATM    4  C   UNL     1      43.963 -19.835   2.338  1.00  0.00     0.021 A 
HETATM    5  C   UNL     1      44.216 -19.067   4.602  1.00  0.00     0.043 A 
HETATM    6  C   UNL     1      44.384 -21.115   2.738  1.00  0.00    -0.061 A 
HETATM    7  C   UNL     1      44.521 -22.218   1.729  1.00  0.00     0.048 C 
HETATM    8  C   UNL     1      44.730 -21.342   4.073  1.00  0.00     0.009 A 
HETATM    9  C   UNL     1      44.649 -20.326   5.030  1.00  0.00     0.031 A 
HETATM   10  N   UNL     1      44.055 -17.901   5.303  1.00  0.00    -0.354 N 
HETATM   11  H   UNL     1      44.245 -17.795   6.290  1.00  0.00     0.166 HD
HETATM   12  C   UNL     1      43.611 -16.876   4.495  1.00  0.00     0.057 A 
HETATM   13  C   UNL     1      43.377 -15.557   5.034  1.00  0.00     0.032 A 
HETATM   14  S   UNL     1      44.057 -15.084   6.548  1.00  0.00    -0.100 SA
HETATM   15  C   UNL     1      42.630 -14.523   4.501  1.00  0.00     0.021 A 
HETATM   16  C   UNL     1      43.368 -13.525   6.463  1.00  0.00     0.050 A 
HETATM   17  C   UNL     1      42.627 -13.353   5.319  1.00  0.00     0.008 A 
ENDBRANCH   1   2
BRANCH   1  18
HETATM   18  C   UNL     1      41.543 -16.662   1.806  1.00  0.00     0.108 C 
BRANCH  18  19
HETATM   19  C   UNL     1      41.122 -15.859   0.588  1.00  0.00     0.220 C 
HETATM   20  N   UNL     1      40.440 -14.673   0.821  1.00  0.00    -0.349 N 
HETATM   21  C   UNL     1      39.953 -14.212   2.127  1.00  0.00     0.145 C 
HETATM   22  C   UNL     1      39.885 -13.940  -0.323  1.00  0.00     0.145 C 
HETATM   23  C   UNL     1      40.053 -12.681   2.294  1.00  0.00     0.143 C 
HETATM   24  N   UNL     1      39.568 -11.915   1.125  1.00  0.00    -0.376 N 
HETATM   25  C   UNL     1      40.079 -12.424  -0.177  1.00  0.00     0.143 C 
HETATM   26  O   UNL     1      41.389 -16.243  -0.550  1.00  0.00    -0.273 OA
BRANCH  24  27
HETATM   27  C   UNL     1      38.237 -11.473   1.093  1.00  0.00     0.063 A 
HETATM   28  C   UNL     1      37.924 -10.221   1.663  1.00  0.00     0.092 A 
HETATM   29  C   UNL     1      36.642  -9.682   1.649  1.00  0.00     0.039 A 
HETATM   30  C   UNL     1      35.610 -10.414   1.073  1.00  0.00     0.003 A 
HETATM   31  C   UNL     1      35.873 -11.670   0.530  1.00  0.00     0.002 A 
HETATM   32  C   UNL     1      37.174 -12.196   0.545  1.00  0.00     0.032 A 
BRANCH  28  33
HETATM   33  O   UNL     1      38.906  -9.524   2.321  1.00  0.00    -0.358 OA
HETATM   34  H   UNL     1      39.222  -8.897   1.640  1.00  0.00     0.218 HD
ENDBRANCH  28  33
ENDBRANCH  24  27
ENDBRANCH  18  19
ENDBRANCH   1  18
TORSDOF 5
ENDMDL
MODEL 6
REMARK VINA RESULT:      -8.8      4.967      8.750
REMARK  5 active torsions:
REMARK  status: ('A' for Active; 'I' for Inactive)
REMARK    1  A    between atoms: C_14  and  C_15 
REMARK    2  A    between atoms: C_15  and  C_16 
REMARK    3  A    between atoms: C_16  and  C_17 
REMARK       I    between atoms: C_17  and  N_18 
REMARK    4  A    between atoms: N_21  and  C_22 
REMARK    5  A    between atoms: C_23  and  O_24 
ROOT
HETATM    1  C   UNL     1      41.021 -10.073   8.043  1.00  0.00     0.051 C 
ENDROOT
BRANCH   1   2
HETATM    2  C   UNL     1      41.609 -10.389   9.388  1.00  0.00    -0.017 A 
HETATM    3  C   UNL     1      42.903 -10.992   9.574  1.00  0.00    -0.000 A 
HETATM    4  C   UNL     1      43.915 -11.434   8.694  1.00  0.00     0.021 A 
HETATM    5  C   UNL     1      43.120 -11.113  10.940  1.00  0.00     0.043 A 
HETATM    6  C   UNL     1      45.099 -11.993   9.206  1.00  0.00    -0.061 A 
HETATM    7  C   UNL     1      46.193 -12.431   8.277  1.00  0.00     0.048 C 
HETATM    8  C   UNL     1      45.276 -12.087  10.589  1.00  0.00     0.009 A 
HETATM    9  C   UNL     1      44.290 -11.654  11.482  1.00  0.00     0.031 A 
HETATM   10  N   UNL     1      42.010 -10.605  11.562  1.00  0.00    -0.354 N 
HETATM   11  H   UNL     1      41.889 -10.550  12.564  1.00  0.00     0.166 HD
HETATM   12  C   UNL     1      41.074 -10.161  10.653  1.00  0.00     0.057 A 
HETATM   13  C   UNL     1      39.825  -9.585  11.098  1.00  0.00     0.032 A 
HETATM   14  S   UNL     1      39.640  -9.010  12.714  1.00  0.00    -0.100 SA
HETATM   15  C   UNL     1      38.652  -9.407  10.389  1.00  0.00     0.021 A 
HETATM   16  C   UNL     1      38.026  -8.527  12.444  1.00  0.00     0.050 A 
HETATM   17  C   UNL     1      37.618  -8.796  11.160  1.00  0.00     0.008 A 
ENDBRANCH   1   2
BRANCH   1  18
HETATM   18  C   UNL     1      40.562 -11.332   7.307  1.00  0.00     0.108 C 
BRANCH  18  19
HETATM   19  C   UNL     1      41.092 -11.375   5.885  1.00  0.00     0.220 C 
HETATM   20  N   UNL     1      41.063 -12.603   5.239  1.00  0.00    -0.349 N 
HETATM   21  C   UNL     1      40.717 -13.886   5.863  1.00  0.00     0.145 C 
HETATM   22  C   UNL     1      41.699 -12.724   3.922  1.00  0.00     0.145 C 
HETATM   23  C   UNL     1      39.943 -14.822   4.910  1.00  0.00     0.143 C 
HETATM   24  N   UNL     1      40.519 -14.908   3.550  1.00  0.00    -0.376 N 
HETATM   25  C   UNL     1      40.864 -13.585   2.963  1.00  0.00     0.143 C 
HETATM   26  O   UNL     1      41.514 -10.360   5.332  1.00  0.00    -0.273 OA
BRANCH  24  27
HETATM   27  C   UNL     1      41.430 -15.932   3.250  1.00  0.00     0.063 A 
HETATM   28  C   UNL     1      41.124 -16.828   2.205  1.00  0.00     0.092 A 
HETATM   29  C   UNL     1      41.979 -17.852   1.810  1.00  0.00     0.039 A 
HETATM   30  C   UNL     1      43.181 -18.024   2.487  1.00  0.00     0.003 A 
HETATM   31  C   UNL     1      43.503 -17.179   3.548  1.00  0.00     0.002 A 
HETATM   32  C   UNL     1      42.633 -16.146   3.929  1.00  0.00     0.032 A 
BRANCH  28  33
HETATM   33  O   UNL     1      39.902 -16.738   1.586  1.00  0.00    -0.358 OA
HETATM   34  H   UNL     1      40.059 -16.066   0.893  1.00  0.00     0.218 HD
ENDBRANCH  28  33
ENDBRANCH  24  27
ENDBRANCH  18  19
ENDBRANCH   1  18
TORSDOF 5
ENDMDL
MODEL 7
REMARK VINA RESULT:      -8.8      1.795      2.547
REMARK  5 active torsions:
REMARK  status: ('A' for Active; 'I' for Inactive)
REMARK    1  A    between atoms: C_14  and  C_15 
REMARK    2  A    between atoms: C_15  and  C_16 
REMARK    3  A    between atoms: C_16  and  C_17 
REMARK       I    between atoms: C_17  and  N_18 
REMARK    4  A    between atoms: N_21  and  C_22 
REMARK    5  A    between atoms: C_23  and  O_24 
ROOT
HETATM    1  C   UNL     1      41.011 -16.621   2.534  1.00  0.00     0.051 C 
ENDROOT
BRANCH   1   2
HETATM    2  C   UNL     1      42.144 -16.984   3.450  1.00  0.00    -0.017 A 
HETATM    3  C   UNL     1      42.910 -18.197   3.334  1.00  0.00    -0.000 A 
HETATM    4  C   UNL     1      42.868 -19.304   2.458  1.00  0.00     0.021 A 
HETATM    5  C   UNL     1      43.880 -18.181   4.328  1.00  0.00     0.043 A 
HETATM    6  C   UNL     1      43.784 -20.360   2.613  1.00  0.00    -0.061 A 
HETATM    7  C   UNL     1      43.768 -21.521   1.662  1.00  0.00     0.048 C 
HETATM    8  C   UNL     1      44.747 -20.296   3.623  1.00  0.00     0.009 A 
HETATM    9  C   UNL     1      44.811 -19.210   4.502  1.00  0.00     0.031 A 
HETATM   10  N   UNL     1      43.716 -17.010   5.020  1.00  0.00    -0.354 N 
HETATM   11  H   UNL     1      44.292 -16.718   5.797  1.00  0.00     0.166 HD
HETATM   12  C   UNL     1      42.672 -16.262   4.518  1.00  0.00     0.057 A 
HETATM   13  C   UNL     1      42.328 -14.986   5.101  1.00  0.00     0.032 A 
HETATM   14  S   UNL     1      43.446 -14.141   6.109  1.00  0.00    -0.100 SA
HETATM   15  C   UNL     1      41.152 -14.269   4.985  1.00  0.00     0.021 A 
HETATM   16  C   UNL     1      42.366 -12.844   6.359  1.00  0.00     0.050 A 
HETATM   17  C   UNL     1      41.173 -13.037   5.704  1.00  0.00     0.008 A 
ENDBRANCH   1   2
BRANCH   1  18
HETATM   18  C   UNL     1      41.327 -15.384   1.694  1.00  0.00     0.108 C 
BRANCH  18  19
HETATM   19  C   UNL     1      41.428 -15.719   0.217  1.00  0.00     0.220 C 
HETATM   20  N   UNL     1      40.649 -14.969  -0.654  1.00  0.00    -0.349 N 
HETATM   21  C   UNL     1      39.625 -13.996  -0.258  1.00  0.00     0.145 C 
HETATM   22  C   UNL     1      40.601 -15.355  -2.069  1.00  0.00     0.145 C 
HETATM   23  C   UNL     1      39.562 -12.779  -1.205  1.00  0.00     0.143 C 
HETATM   24  N   UNL     1      39.585 -13.132  -2.642  1.00  0.00    -0.376 N 
HETATM   25  C   UNL     1      40.632 -14.130  -2.994  1.00  0.00     0.143 C 
HETATM   26  O   UNL     1      42.177 -16.609  -0.184  1.00  0.00    -0.273 OA
BRANCH  24  27
HETATM   27  C   UNL     1      38.375 -13.291  -3.334  1.00  0.00     0.063 A 
HETATM   28  C   UNL     1      37.729 -12.146  -3.844  1.00  0.00     0.092 A 
HETATM   29  C   UNL     1      36.546 -12.205  -4.573  1.00  0.00     0.039 A 
HETATM   30  C   UNL     1      35.951 -13.442  -4.792  1.00  0.00     0.003 A 
HETATM   31  C   UNL     1      36.542 -14.594  -4.274  1.00  0.00     0.002 A 
HETATM   32  C   UNL     1      37.740 -14.518  -3.547  1.00  0.00     0.032 A 
BRANCH  28  33
HETATM   33  O   UNL     1      38.246 -10.907  -3.559  1.00  0.00    -0.358 OA
HETATM   34  H   UNL     1      38.065 -10.402  -4.377  1.00  0.00     0.218 HD
ENDBRANCH  28  33
ENDBRANCH  24  27
ENDBRANCH  18  19
ENDBRANCH   1  18
TORSDOF 5
ENDMDL
MODEL 8
REMARK VINA RESULT:      -8.8      2.670      3.438
REMARK  5 active torsions:
REMARK  status: ('A' for Active; 'I' for Inactive)
REMARK    1  A    between atoms: C_14  and  C_15 
REMARK    2  A    between atoms: C_15  and  C_16 
REMARK    3  A    between atoms: C_16  and  C_17 
REMARK       I    between atoms: C_17  and  N_18 
REMARK    4  A    between atoms: N_21  and  C_22 
REMARK    5  A    between atoms: C_23  and  O_24 
ROOT
HETATM    1  C   UNL     1      40.789 -16.518   1.912  1.00  0.00     0.051 C 
ENDROOT
BRANCH   1   2
HETATM    2  C   UNL     1      41.798 -16.789   2.990  1.00  0.00    -0.017 A 
HETATM    3  C   UNL     1      42.634 -17.960   3.027  1.00  0.00    -0.000 A 
HETATM    4  C   UNL     1      42.772 -19.094   2.195  1.00  0.00     0.021 A 
HETATM    5  C   UNL     1      43.451 -17.861   4.145  1.00  0.00     0.043 A 
HETATM    6  C   UNL     1      43.710 -20.092   2.515  1.00  0.00    -0.061 A 
HETATM    7  C   UNL     1      43.887 -21.280   1.615  1.00  0.00     0.048 C 
HETATM    8  C   UNL     1      44.516 -19.944   3.647  1.00  0.00     0.009 A 
HETATM    9  C   UNL     1      44.401 -18.830   4.485  1.00  0.00     0.031 A 
HETATM   10  N   UNL     1      43.132 -16.680   4.763  1.00  0.00    -0.354 N 
HETATM   11  H   UNL     1      43.577 -16.335   5.602  1.00  0.00     0.166 HD
HETATM   12  C   UNL     1      42.133 -16.008   4.093  1.00  0.00     0.057 A 
HETATM   13  C   UNL     1      41.646 -14.736   4.575  1.00  0.00     0.032 A 
HETATM   14  S   UNL     1      42.566 -13.801   5.696  1.00  0.00    -0.100 SA
HETATM   15  C   UNL     1      40.463 -14.089   4.270  1.00  0.00     0.021 A 
HETATM   16  C   UNL     1      41.396 -12.559   5.745  1.00  0.00     0.050 A 
HETATM   17  C   UNL     1      40.319 -12.837   4.938  1.00  0.00     0.008 A 
ENDBRANCH   1   2
BRANCH   1  18
HETATM   18  C   UNL     1      41.396 -15.749   0.738  1.00  0.00     0.108 C 
BRANCH  18  19
HETATM   19  C   UNL     1      41.261 -14.248   0.921  1.00  0.00     0.220 C 
HETATM   20  N   UNL     1      40.007 -13.697   0.698  1.00  0.00    -0.349 N 
HETATM   21  C   UNL     1      38.848 -14.411   0.149  1.00  0.00     0.145 C 
HETATM   22  C   UNL     1      39.863 -12.237   0.717  1.00  0.00     0.145 C 
HETATM   23  C   UNL     1      37.514 -13.951   0.774  1.00  0.00     0.143 C 
HETATM   24  N   UNL     1      37.370 -12.482   0.875  1.00  0.00    -0.376 N 
HETATM   25  C   UNL     1      38.573 -11.801   1.426  1.00  0.00     0.143 C 
HETATM   26  O   UNL     1      42.222 -13.559   1.264  1.00  0.00    -0.273 OA
BRANCH  24  27
HETATM   27  C   UNL     1      36.726 -11.780  -0.155  1.00  0.00     0.063 A 
HETATM   28  C   UNL     1      35.588 -11.007   0.159  1.00  0.00     0.092 A 
HETATM   29  C   UNL     1      34.904 -10.248  -0.784  1.00  0.00     0.039 A 
HETATM   30  C   UNL     1      35.336 -10.267  -2.105  1.00  0.00     0.003 A 
HETATM   31  C   UNL     1      36.436 -11.046  -2.462  1.00  0.00     0.002 A 
HETATM   32  C   UNL     1      37.121 -11.799  -1.496  1.00  0.00     0.032 A 
BRANCH  28  33
HETATM   33  O   UNL     1      35.086 -11.049   1.436  1.00  0.00    -0.358 OA
HETATM   34  H   UNL     1      34.403 -10.348   1.424  1.00  0.00     0.218 HD
ENDBRANCH  28  33
ENDBRANCH  24  27
ENDBRANCH  18  19
ENDBRANCH   1  18
TORSDOF 5
ENDMDL
MODEL 9
REMARK VINA RESULT:      -8.7      2.891      8.164
REMARK  5 active torsions:
REMARK  status: ('A' for Active; 'I' for Inactive)
REMARK    1  A    between atoms: C_14  and  C_15 
REMARK    2  A    between atoms: C_15  and  C_16 
REMARK    3  A    between atoms: C_16  and  C_17 
REMARK       I    between atoms: C_17  and  N_18 
REMARK    4  A    between atoms: N_21  and  C_22 
REMARK    5  A    between atoms: C_23  and  O_24 
ROOT
HETATM    1  C   UNL     1      42.007 -13.524   0.528  1.00  0.00     0.051 C 
ENDROOT
BRANCH   1   2
HETATM    2  C   UNL     1      41.470 -12.672   1.642  1.00  0.00    -0.017 A 
HETATM    3  C   UNL     1      41.857 -12.818   3.020  1.00  0.00    -0.000 A 
HETATM    4  C   UNL     1      42.737 -13.686   3.705  1.00  0.00     0.021 A 
HETATM    5  C   UNL     1      41.182 -11.853   3.754  1.00  0.00     0.043 A 
HETATM    6  C   UNL     1      42.900 -13.569   5.097  1.00  0.00    -0.061 A 
HETATM    7  C   UNL     1      43.861 -14.463   5.825  1.00  0.00     0.048 C 
HETATM    8  C   UNL     1      42.204 -12.576   5.792  1.00  0.00     0.009 A 
HETATM    9  C   UNL     1      41.330 -11.703   5.137  1.00  0.00     0.031 A 
HETATM   10  N   UNL     1      40.417 -11.145   2.864  1.00  0.00    -0.354 N 
HETATM   11  H   UNL     1      39.823 -10.366   3.113  1.00  0.00     0.166 HD
HETATM   12  C   UNL     1      40.565 -11.616   1.578  1.00  0.00     0.057 A 
HETATM   13  C   UNL     1      39.848 -11.007   0.480  1.00  0.00     0.032 A 
HETATM   14  S   UNL     1      39.162  -9.431   0.634  1.00  0.00    -0.100 SA
HETATM   15  C   UNL     1      39.590 -11.521  -0.777  1.00  0.00     0.021 A 
HETATM   16  C   UNL     1      38.553  -9.452  -0.959  1.00  0.00     0.050 A 
HETATM   17  C   UNL     1      38.849 -10.627  -1.607  1.00  0.00     0.008 A 
ENDBRANCH   1   2
BRANCH   1  18
HETATM   18  C   UNL     1      41.022 -14.620   0.120  1.00  0.00     0.108 C 
BRANCH  18  19
HETATM   19  C   UNL     1      40.641 -15.499   1.297  1.00  0.00     0.220 C 
HETATM   20  N   UNL     1      41.588 -16.417   1.730  1.00  0.00    -0.349 N 
HETATM   21  C   UNL     1      42.855 -16.718   1.052  1.00  0.00     0.145 C 
HETATM   22  C   UNL     1      41.211 -17.386   2.765  1.00  0.00     0.145 C 
HETATM   23  C   UNL     1      44.003 -17.013   2.040  1.00  0.00     0.143 C 
HETATM   24  N   UNL     1      43.633 -17.932   3.139  1.00  0.00    -0.376 N 
HETATM   25  C   UNL     1      42.337 -17.594   3.789  1.00  0.00     0.143 C 
HETATM   26  O   UNL     1      39.544 -15.389   1.845  1.00  0.00    -0.273 OA
BRANCH  24  27
HETATM   27  C   UNL     1      43.869 -19.308   2.998  1.00  0.00     0.063 A 
HETATM   28  C   UNL     1      44.551 -19.988   4.028  1.00  0.00     0.092 A 
HETATM   29  C   UNL     1      44.801 -21.356   3.996  1.00  0.00     0.039 A 
HETATM   30  C   UNL     1      44.388 -22.091   2.891  1.00  0.00     0.003 A 
HETATM   31  C   UNL     1      43.741 -21.447   1.836  1.00  0.00     0.002 A 
HETATM   32  C   UNL     1      43.489 -20.068   1.888  1.00  0.00     0.032 A 
BRANCH  28  33
HETATM   33  O   UNL     1      45.052 -19.269   5.084  1.00  0.00    -0.358 OA
HETATM   34  H   UNL     1      45.671 -19.900   5.503  1.00  0.00     0.218 HD
ENDBRANCH  28  33
ENDBRANCH  24  27
ENDBRANCH  18  19
ENDBRANCH   1  18
TORSDOF 5
ENDMDL
MODEL 10
REMARK VINA RESULT:      -8.7      3.893      5.607
REMARK  5 active torsions:
REMARK  status: ('A' for Active; 'I' for Inactive)
REMARK    1  A    between atoms: C_14  and  C_15 
REMARK    2  A    between atoms: C_15  and  C_16 
REMARK    3  A    between atoms: C_16  and  C_17 
REMARK       I    between atoms: C_17  and  N_18 
REMARK    4  A    between atoms: N_21  and  C_22 
REMARK    5  A    between atoms: C_23  and  O_24 
ROOT
HETATM    1  C   UNL     1      44.150 -17.131   4.817  1.00  0.00     0.051 C 
ENDROOT
BRANCH   1   2
HETATM    2  C   UNL     1      43.808 -17.979   3.626  1.00  0.00    -0.017 A 
HETATM    3  C   UNL     1      44.050 -19.396   3.556  1.00  0.00    -0.000 A 
HETATM    4  C   UNL     1      44.614 -20.340   4.443  1.00  0.00     0.021 A 
HETATM    5  C   UNL     1      43.589 -19.844   2.325  1.00  0.00     0.043 A 
HETATM    6  C   UNL     1      44.709 -21.691   4.066  1.00  0.00    -0.061 A 
HETATM    7  C   UNL     1      45.273 -22.704   5.019  1.00  0.00     0.048 C 
HETATM    8  C   UNL     1      44.224 -22.096   2.820  1.00  0.00     0.009 A 
HETATM    9  C   UNL     1      43.659 -21.182   1.925  1.00  0.00     0.031 A 
HETATM   10  N   UNL     1      43.084 -18.750   1.672  1.00  0.00    -0.354 N 
HETATM   11  H   UNL     1      42.665 -18.775   0.753  1.00  0.00     0.166 HD
HETATM   12  C   UNL     1      43.203 -17.604   2.428  1.00  0.00     0.057 A 
HETATM   13  C   UNL     1      42.730 -16.334   1.927  1.00  0.00     0.032 A 
HETATM   14  S   UNL     1      41.613 -16.260   0.614  1.00  0.00    -0.100 SA
HETATM   15  C   UNL     1      43.054 -15.060   2.353  1.00  0.00     0.021 A 
HETATM   16  C   UNL     1      41.567 -14.554   0.643  1.00  0.00     0.050 A 
HETATM   17  C   UNL     1      42.384 -14.036   1.619  1.00  0.00     0.008 A 
ENDBRANCH   1   2
BRANCH   1  18
HETATM   18  C   UNL     1      42.900 -16.593   5.515  1.00  0.00     0.108 C 
BRANCH  18  19
HETATM   19  C   UNL     1      43.013 -15.106   5.800  1.00  0.00     0.220 C 
HETATM   20  N   UNL     1      41.909 -14.322   5.498  1.00  0.00    -0.349 N 
HETATM   21  C   UNL     1      40.710 -14.777   4.784  1.00  0.00     0.145 C 
HETATM   22  C   UNL     1      42.024 -12.864   5.617  1.00  0.00     0.145 C 
HETATM   23  C   UNL     1      39.418 -14.117   5.309  1.00  0.00     0.143 C 
HETATM   24  N   UNL     1      39.525 -12.655   5.509  1.00  0.00    -0.376 N 
HETATM   25  C   UNL     1      40.761 -12.240   6.228  1.00  0.00     0.143 C 
HETATM   26  O   UNL     1      44.037 -14.628   6.289  1.00  0.00    -0.273 OA
BRANCH  24  27
HETATM   27  C   UNL     1      39.133 -11.787   4.479  1.00  0.00     0.063 A 
HETATM   28  C   UNL     1      38.738 -10.475   4.811  1.00  0.00     0.092 A 
HETATM   29  C   UNL     1      38.367  -9.531   3.859  1.00  0.00     0.039 A 
HETATM   30  C   UNL     1      38.357  -9.896   2.518  1.00  0.00     0.003 A 
HETATM   31  C   UNL     1      38.709 -11.194   2.152  1.00  0.00     0.002 A 
HETATM   32  C   UNL     1      39.089 -12.132   3.125  1.00  0.00     0.032 A 
BRANCH  28  33
HETATM   33  O   UNL     1      38.648 -10.120   6.134  1.00  0.00    -0.358 OA
HETATM   34  H   UNL     1      39.241 -10.763   6.573  1.00  0.00     0.218 HD
ENDBRANCH  28  33
ENDBRANCH  24  27
ENDBRANCH  18  19
ENDBRANCH   1  18
TORSDOF 5
ENDMDL
