MODEL 1
REMARK VINA RESULT:      -8.5      0.000      0.000
REMARK  7 active torsions:
REMARK  status: ('A' for Active; 'I' for Inactive)
REMARK       I    between atoms: N_2  and  C_3 
REMARK    1  A    between atoms: N_2  and  C_24 
REMARK    2  A    between atoms: C_3  and  C_4 
REMARK    3  A    between atoms: C_7  and  N_8 
REMARK    4  A    between atoms: C_11  and  N_12 
REMARK       I    between atoms: N_12  and  C_13 
REMARK    5  A    between atoms: C_13  and  C_14 
REMARK    6  A    between atoms: C_24  and  C_25 
REMARK    7  A    between atoms: C_27  and  O_28 
ROOT
HETATM    1  C   UNL     1      42.632 -16.667   5.805  1.00  0.00     0.032 A 
HETATM    2  C   UNL     1      43.449 -15.615   5.388  1.00  0.00     0.019 A 
HETATM    3  C   UNL     1      43.135 -14.889   4.237  1.00  0.00     0.032 A 
HETATM    4  C   UNL     1      42.025 -15.241   3.454  1.00  0.00     0.058 A 
HETATM    5  C   UNL     1      41.208 -16.303   3.863  1.00  0.00     0.032 A 
HETATM    6  C   UNL     1      41.514 -17.010   5.033  1.00  0.00     0.019 A 
ENDROOT
BRANCH   4   7
HETATM    7  N   UNL     1      41.798 -14.551   2.230  1.00  0.00    -0.243 N 
HETATM    8  N   UNL     1      42.334 -13.321   2.022  1.00  0.00    -0.178 NA
HETATM    9  C   UNL     1      42.041 -13.034   0.753  1.00  0.00     0.170 A 
HETATM   10  C   UNL     1      41.302 -14.055   0.130  1.00  0.00     0.071 A 
HETATM   11  C   UNL     1      41.114 -14.994   1.116  1.00  0.00     0.149 A 
BRANCH  10  12
HETATM   12  N   UNL     1      40.852 -14.197  -1.167  1.00  0.00    -0.324 N 
HETATM   13  C   UNL     1      39.562 -13.915  -1.574  1.00  0.00     0.228 C 
HETATM   14  O   UNL     1      38.641 -13.587  -0.828  1.00  0.00    -0.273 OA
HETATM   15  H   UNL     1      41.527 -14.507  -1.861  1.00  0.00     0.169 HD
BRANCH  13  16
HETATM   16  C   UNL     1      39.347 -13.950  -3.084  1.00  0.00     0.104 C 
HETATM   17  C   UNL     1      37.882 -13.976  -3.451  1.00  0.00     0.181 C 
HETATM   18  O   UNL     1      37.518 -15.366  -3.399  1.00  0.00    -0.390 OA
HETATM   19  C   UNL     1      38.657 -16.126  -3.832  1.00  0.00     0.168 C 
HETATM   20  C   UNL     1      39.877 -15.231  -3.697  1.00  0.00     0.042 C 
ENDBRANCH  13  16
ENDBRANCH  10  12
ENDBRANCH   4   7
BRANCH   1  21
HETATM   21  C   UNL     1      42.985 -17.527   6.966  1.00  0.00     0.253 C 
HETATM   22  N   UNL     1      43.922 -18.557   6.837  1.00  0.00    -0.348 N 
HETATM   23  C   UNL     1      44.143 -19.401   8.004  1.00  0.00     0.153 C 
HETATM   24  O   UNL     1      42.404 -17.293   8.026  1.00  0.00    -0.267 OA
BRANCH  22  25
HETATM   25  C   UNL     1      44.958 -18.603   5.804  1.00  0.00     0.164 C 
BRANCH  25  26
HETATM   26  C   UNL     1      44.585 -19.371   4.551  1.00  0.00    -0.038 A 
HETATM   27  C   UNL     1      44.102 -18.749   3.385  1.00  0.00     0.045 A 
HETATM   28  C   UNL     1      43.855 -19.487   2.224  1.00  0.00     0.068 A 
HETATM   29  C   UNL     1      44.049 -20.867   2.237  1.00  0.00     0.037 A 
HETATM   30  C   UNL     1      44.514 -21.505   3.386  1.00  0.00     0.003 A 
HETATM   31  C   UNL     1      44.788 -20.760   4.533  1.00  0.00     0.009 A 
BRANCH  28  32
HETATM   32  O   UNL     1      43.424 -18.975   1.031  1.00  0.00    -0.356 OA
HETATM   33  C   UNL     1      43.624 -17.580   0.830  1.00  0.00     0.210 C 
ENDBRANCH  28  32
ENDBRANCH  25  26
ENDBRANCH  22  25
ENDBRANCH   1  21
TORSDOF 7
ENDMDL
MODEL 2
REMARK VINA RESULT:      -8.3      1.231      1.887
REMARK  7 active torsions:
REMARK  status: ('A' for Active; 'I' for Inactive)
REMARK       I    between atoms: N_2  and  C_3 
REMARK    1  A    between atoms: N_2  and  C_24 
REMARK    2  A    between atoms: C_3  and  C_4 
REMARK    3  A    between atoms: C_7  and  N_8 
REMARK    4  A    between atoms: C_11  and  N_12 
REMARK       I    between atoms: N_12  and  C_13 
REMARK    5  A    between atoms: C_13  and  C_14 
REMARK    6  A    between atoms: C_24  and  C_25 
REMARK    7  A    between atoms: C_27  and  O_28 
ROOT
HETATM    1  C   UNL     1      42.401 -16.362   5.383  1.00  0.00     0.032 A 
HETATM    2  C   UNL     1      43.186 -15.240   5.111  1.00  0.00     0.019 A 
HETATM    3  C   UNL     1      42.924 -14.448   3.991  1.00  0.00     0.032 A 
HETATM    4  C   UNL     1      41.902 -14.799   3.095  1.00  0.00     0.058 A 
HETATM    5  C   UNL     1      41.118 -15.930   3.358  1.00  0.00     0.032 A 
HETATM    6  C   UNL     1      41.370 -16.705   4.498  1.00  0.00     0.019 A 
ENDROOT
BRANCH   4   7
HETATM    7  N   UNL     1      41.734 -14.033   1.907  1.00  0.00    -0.243 N 
HETATM    8  N   UNL     1      42.371 -12.842   1.758  1.00  0.00    -0.178 NA
HETATM    9  C   UNL     1      42.103 -12.470   0.506  1.00  0.00     0.170 A 
HETATM   10  C   UNL     1      41.283 -13.394  -0.164  1.00  0.00     0.071 A 
HETATM   11  C   UNL     1      41.017 -14.362   0.775  1.00  0.00     0.149 A 
BRANCH  10  12
HETATM   12  N   UNL     1      40.823 -13.434  -1.465  1.00  0.00    -0.324 N 
HETATM   13  C   UNL     1      40.670 -14.595  -2.197  1.00  0.00     0.228 C 
HETATM   14  O   UNL     1      40.999 -15.718  -1.819  1.00  0.00    -0.273 OA
HETATM   15  H   UNL     1      40.562 -12.548  -1.892  1.00  0.00     0.169 HD
BRANCH  13  16
HETATM   16  C   UNL     1      39.958 -14.418  -3.534  1.00  0.00     0.104 C 
HETATM   17  C   UNL     1      38.885 -13.357  -3.474  1.00  0.00     0.181 C 
HETATM   18  O   UNL     1      37.722 -14.042  -2.981  1.00  0.00    -0.390 OA
HETATM   19  C   UNL     1      37.757 -15.380  -3.501  1.00  0.00     0.168 C 
HETATM   20  C   UNL     1      39.187 -15.663  -3.929  1.00  0.00     0.042 C 
ENDBRANCH  13  16
ENDBRANCH  10  12
ENDBRANCH   4   7
BRANCH   1  21
HETATM   21  C   UNL     1      42.710 -17.286   6.507  1.00  0.00     0.253 C 
HETATM   22  N   UNL     1      43.649 -18.311   6.356  1.00  0.00    -0.348 N 
HETATM   23  C   UNL     1      43.825 -19.219   7.482  1.00  0.00     0.153 C 
HETATM   24  O   UNL     1      42.089 -17.109   7.556  1.00  0.00    -0.267 OA
BRANCH  22  25
HETATM   25  C   UNL     1      44.723 -18.303   5.361  1.00  0.00     0.164 C 
BRANCH  25  26
HETATM   26  C   UNL     1      44.466 -19.148   4.129  1.00  0.00    -0.038 A 
HETATM   27  C   UNL     1      44.711 -20.533   4.083  1.00  0.00     0.045 A 
HETATM   28  C   UNL     1      44.376 -21.287   2.955  1.00  0.00     0.068 A 
HETATM   29  C   UNL     1      43.832 -20.648   1.842  1.00  0.00     0.037 A 
HETATM   30  C   UNL     1      43.594 -19.275   1.862  1.00  0.00     0.003 A 
HETATM   31  C   UNL     1      43.901 -18.531   3.001  1.00  0.00     0.009 A 
BRANCH  28  32
HETATM   32  O   UNL     1      44.536 -22.639   2.824  1.00  0.00    -0.356 OA
HETATM   33  C   UNL     1      44.795 -23.366   4.021  1.00  0.00     0.210 C 
ENDBRANCH  28  32
ENDBRANCH  25  26
ENDBRANCH  22  25
ENDBRANCH   1  21
TORSDOF 7
ENDMDL
MODEL 3
REMARK VINA RESULT:      -8.2      2.551      3.720
REMARK  7 active torsions:
REMARK  status: ('A' for Active; 'I' for Inactive)
REMARK       I    between atoms: N_2  and  C_3 
REMARK    1  A    between atoms: N_2  and  C_24 
REMARK    2  A    between atoms: C_3  and  C_4 
REMARK    3  A    between atoms: C_7  and  N_8 
REMARK    4  A    between atoms: C_11  and  N_12 
REMARK       I    between atoms: N_12  and  C_13 
REMARK    5  A    between atoms: C_13  and  C_14 
REMARK    6  A    between atoms: C_24  and  C_25 
REMARK    7  A    between atoms: C_27  and  O_28 
ROOT
HETATM    1  C   UNL     1      41.368 -15.858   3.639  1.00  0.00     0.032 A 
HETATM    2  C   UNL     1      42.059 -14.750   3.145  1.00  0.00     0.019 A 
HETATM    3  C   UNL     1      42.009 -14.434   1.785  1.00  0.00     0.032 A 
HETATM    4  C   UNL     1      41.307 -15.255   0.890  1.00  0.00     0.058 A 
HETATM    5  C   UNL     1      40.620 -16.373   1.379  1.00  0.00     0.032 A 
HETATM    6  C   UNL     1      40.653 -16.670   2.748  1.00  0.00     0.019 A 
ENDROOT
BRANCH   4   7
HETATM    7  N   UNL     1      41.367 -14.964  -0.503  1.00  0.00    -0.243 N 
HETATM    8  N   UNL     1      41.034 -15.908  -1.420  1.00  0.00    -0.178 NA
HETATM    9  C   UNL     1      41.072 -15.270  -2.591  1.00  0.00     0.170 A 
HETATM   10  C   UNL     1      41.446 -13.922  -2.455  1.00  0.00     0.071 A 
HETATM   11  C   UNL     1      41.681 -13.765  -1.110  1.00  0.00     0.149 A 
BRANCH  10  12
HETATM   12  N   UNL     1      41.550 -12.904  -3.381  1.00  0.00    -0.324 N 
HETATM   13  C   UNL     1      40.481 -12.153  -3.830  1.00  0.00     0.228 C 
HETATM   14  O   UNL     1      39.304 -12.348  -3.530  1.00  0.00    -0.273 OA
HETATM   15  H   UNL     1      42.480 -12.688  -3.729  1.00  0.00     0.169 HD
BRANCH  13  16
HETATM   16  C   UNL     1      40.860 -10.954  -4.694  1.00  0.00     0.104 C 
HETATM   17  C   UNL     1      42.356 -10.803  -4.836  1.00  0.00     0.181 C 
HETATM   18  O   UNL     1      42.759 -10.055  -3.676  1.00  0.00    -0.390 OA
HETATM   19  C   UNL     1      41.699  -9.135  -3.368  1.00  0.00     0.168 C 
HETATM   20  C   UNL     1      40.443  -9.645  -4.052  1.00  0.00     0.042 C 
ENDBRANCH  13  16
ENDBRANCH  10  12
ENDBRANCH   4   7
BRANCH   1  21
HETATM   21  C   UNL     1      41.478 -16.287   5.059  1.00  0.00     0.253 C 
HETATM   22  N   UNL     1      42.525 -17.111   5.481  1.00  0.00    -0.348 N 
HETATM   23  C   UNL     1      42.505 -17.548   6.871  1.00  0.00     0.153 C 
HETATM   24  O   UNL     1      40.598 -15.892   5.826  1.00  0.00    -0.267 OA
BRANCH  22  25
HETATM   25  C   UNL     1      43.808 -17.233   4.786  1.00  0.00     0.164 C 
BRANCH  25  26
HETATM   26  C   UNL     1      43.945 -18.451   3.896  1.00  0.00    -0.038 A 
HETATM   27  C   UNL     1      44.350 -19.711   4.375  1.00  0.00     0.045 A 
HETATM   28  C   UNL     1      44.377 -20.827   3.534  1.00  0.00     0.068 A 
HETATM   29  C   UNL     1      44.041 -20.678   2.189  1.00  0.00     0.037 A 
HETATM   30  C   UNL     1      43.651 -19.436   1.692  1.00  0.00     0.003 A 
HETATM   31  C   UNL     1      43.595 -18.332   2.541  1.00  0.00     0.009 A 
BRANCH  28  32
HETATM   32  O   UNL     1      44.716 -22.098   3.908  1.00  0.00    -0.356 OA
HETATM   33  C   UNL     1      45.049 -22.288   5.279  1.00  0.00     0.210 C 
ENDBRANCH  28  32
ENDBRANCH  25  26
ENDBRANCH  22  25
ENDBRANCH   1  21
TORSDOF 7
ENDMDL
MODEL 4
REMARK VINA RESULT:      -8.2      4.857      8.982
REMARK  7 active torsions:
REMARK  status: ('A' for Active; 'I' for Inactive)
REMARK       I    between atoms: N_2  and  C_3 
REMARK    1  A    between atoms: N_2  and  C_24 
REMARK    2  A    between atoms: C_3  and  C_4 
REMARK    3  A    between atoms: C_7  and  N_8 
REMARK    4  A    between atoms: C_11  and  N_12 
REMARK       I    between atoms: N_12  and  C_13 
REMARK    5  A    between atoms: C_13  and  C_14 
REMARK    6  A    between atoms: C_24  and  C_25 
REMARK    7  A    between atoms: C_27  and  O_28 
ROOT
HETATM    1  C   UNL     1      42.630 -15.698   4.127  1.00  0.00     0.032 A 
HETATM    2  C   UNL     1      43.075 -14.391   3.925  1.00  0.00     0.019 A 
HETATM    3  C   UNL     1      43.682 -13.682   4.964  1.00  0.00     0.032 A 
HETATM    4  C   UNL     1      43.804 -14.255   6.240  1.00  0.00     0.058 A 
HETATM    5  C   UNL     1      43.350 -15.563   6.450  1.00  0.00     0.032 A 
HETATM    6  C   UNL     1      42.765 -16.278   5.395  1.00  0.00     0.019 A 
ENDROOT
BRANCH   4   7
HETATM    7  N   UNL     1      44.327 -13.465   7.302  1.00  0.00    -0.243 N 
HETATM    8  N   UNL     1      45.667 -13.295   7.441  1.00  0.00    -0.178 NA
HETATM    9  C   UNL     1      45.796 -12.412   8.432  1.00  0.00     0.170 A 
HETATM   10  C   UNL     1      44.555 -12.012   8.958  1.00  0.00     0.071 A 
HETATM   11  C   UNL     1      43.630 -12.743   8.251  1.00  0.00     0.149 A 
BRANCH  10  12
HETATM   12  N   UNL     1      44.228 -11.089   9.930  1.00  0.00    -0.324 N 
HETATM   13  C   UNL     1      44.010 -11.405  11.257  1.00  0.00     0.228 C 
HETATM   14  O   UNL     1      43.995 -12.545  11.719  1.00  0.00    -0.273 OA
HETATM   15  H   UNL     1      44.171 -10.115   9.644  1.00  0.00     0.169 HD
BRANCH  13  16
HETATM   16  C   UNL     1      43.864 -10.203  12.185  1.00  0.00     0.104 C 
HETATM   17  C   UNL     1      42.976 -10.501  13.370  1.00  0.00     0.181 C 
HETATM   18  O   UNL     1      41.641 -10.257  12.896  1.00  0.00    -0.390 OA
HETATM   19  C   UNL     1      41.708  -9.168  11.963  1.00  0.00     0.168 C 
HETATM   20  C   UNL     1      43.151  -9.051  11.504  1.00  0.00     0.042 C 
ENDBRANCH  13  16
ENDBRANCH  10  12
ENDBRANCH   4   7
BRANCH   1  21
HETATM   21  C   UNL     1      41.890 -16.450   3.078  1.00  0.00     0.253 C 
HETATM   22  N   UNL     1      42.571 -17.100   2.045  1.00  0.00    -0.348 N 
HETATM   23  C   UNL     1      41.760 -17.740   1.017  1.00  0.00     0.153 C 
HETATM   24  O   UNL     1      40.661 -16.454   3.164  1.00  0.00    -0.267 OA
BRANCH  22  25
HETATM   25  C   UNL     1      43.968 -17.529   2.122  1.00  0.00     0.164 C 
BRANCH  25  26
HETATM   26  C   UNL     1      44.187 -18.913   2.702  1.00  0.00    -0.038 A 
HETATM   27  C   UNL     1      44.246 -19.165   4.085  1.00  0.00     0.045 A 
HETATM   28  C   UNL     1      44.361 -20.469   4.575  1.00  0.00     0.068 A 
HETATM   29  C   UNL     1      44.463 -21.530   3.677  1.00  0.00     0.037 A 
HETATM   30  C   UNL     1      44.420 -21.300   2.303  1.00  0.00     0.003 A 
HETATM   31  C   UNL     1      44.275 -20.001   1.819  1.00  0.00     0.009 A 
BRANCH  28  32
HETATM   32  O   UNL     1      44.387 -20.824   5.895  1.00  0.00    -0.356 OA
HETATM   33  C   UNL     1      43.882 -19.867   6.820  1.00  0.00     0.210 C 
ENDBRANCH  28  32
ENDBRANCH  25  26
ENDBRANCH  22  25
ENDBRANCH   1  21
TORSDOF 7
ENDMDL
MODEL 5
REMARK VINA RESULT:      -8.2      6.026     10.228
REMARK  7 active torsions:
REMARK  status: ('A' for Active; 'I' for Inactive)
REMARK       I    between atoms: N_2  and  C_3 
REMARK    1  A    between atoms: N_2  and  C_24 
REMARK    2  A    between atoms: C_3  and  C_4 
REMARK    3  A    between atoms: C_7  and  N_8 
REMARK    4  A    between atoms: C_11  and  N_12 
REMARK       I    between atoms: N_12  and  C_13 
REMARK    5  A    between atoms: C_13  and  C_14 
REMARK    6  A    between atoms: C_24  and  C_25 
REMARK    7  A    between atoms: C_27  and  O_28 
ROOT
HETATM    1  C   UNL     1      43.315 -13.788   5.028  1.00  0.00     0.032 A 
HETATM    2  C   UNL     1      42.475 -12.891   5.690  1.00  0.00     0.019 A 
HETATM    3  C   UNL     1      42.836 -12.372   6.936  1.00  0.00     0.032 A 
HETATM    4  C   UNL     1      44.022 -12.786   7.562  1.00  0.00     0.058 A 
HETATM    5  C   UNL     1      44.862 -13.694   6.906  1.00  0.00     0.032 A 
HETATM    6  C   UNL     1      44.506 -14.191   5.645  1.00  0.00     0.019 A 
ENDROOT
BRANCH   4   7
HETATM    7  N   UNL     1      44.304 -12.321   8.878  1.00  0.00    -0.243 N 
HETATM    8  N   UNL     1      45.406 -12.755   9.542  1.00  0.00    -0.178 NA
HETATM    9  C   UNL     1      45.432 -12.032  10.662  1.00  0.00     0.170 A 
HETATM   10  C   UNL     1      44.349 -11.141  10.751  1.00  0.00     0.071 A 
HETATM   11  C   UNL     1      43.610 -11.384   9.617  1.00  0.00     0.149 A 
BRANCH  10  12
HETATM   12  N   UNL     1      44.027 -10.183  11.691  1.00  0.00    -0.324 N 
HETATM   13  C   UNL     1      43.240 -10.422  12.802  1.00  0.00     0.228 C 
HETATM   14  O   UNL     1      42.666 -11.482  13.047  1.00  0.00    -0.273 OA
HETATM   15  H   UNL     1      44.418  -9.254  11.560  1.00  0.00     0.169 HD
BRANCH  13  16
HETATM   16  C   UNL     1      43.186  -9.275  13.805  1.00  0.00     0.104 C 
HETATM   17  C   UNL     1      42.232  -9.554  14.942  1.00  0.00     0.181 C 
HETATM   18  O   UNL     1      40.946  -9.141  14.448  1.00  0.00    -0.390 OA
HETATM   19  C   UNL     1      41.157  -8.006  13.594  1.00  0.00     0.168 C 
HETATM   20  C   UNL     1      42.620  -8.012  13.185  1.00  0.00     0.042 C 
ENDBRANCH  13  16
ENDBRANCH  10  12
ENDBRANCH   4   7
BRANCH   1  21
HETATM   21  C   UNL     1      42.921 -14.440   3.751  1.00  0.00     0.253 C 
HETATM   22  N   UNL     1      42.255 -15.670   3.747  1.00  0.00    -0.348 N 
HETATM   23  C   UNL     1      41.984 -16.273   2.449  1.00  0.00     0.153 C 
HETATM   24  O   UNL     1      43.223 -13.851   2.712  1.00  0.00    -0.267 OA
BRANCH  22  25
HETATM   25  C   UNL     1      41.474 -16.186   4.873  1.00  0.00     0.164 C 
BRANCH  25  26
HETATM   26  C   UNL     1      42.231 -17.095   5.821  1.00  0.00    -0.038 A 
HETATM   27  C   UNL     1      42.738 -18.351   5.439  1.00  0.00     0.045 A 
HETATM   28  C   UNL     1      43.506 -19.116   6.321  1.00  0.00     0.068 A 
HETATM   29  C   UNL     1      43.736 -18.645   7.613  1.00  0.00     0.037 A 
HETATM   30  C   UNL     1      43.231 -17.409   8.015  1.00  0.00     0.003 A 
HETATM   31  C   UNL     1      42.491 -16.636   7.122  1.00  0.00     0.009 A 
BRANCH  28  32
HETATM   32  O   UNL     1      44.076 -20.326   6.038  1.00  0.00    -0.356 OA
HETATM   33  C   UNL     1      43.770 -21.395   6.928  1.00  0.00     0.210 C 
ENDBRANCH  28  32
ENDBRANCH  25  26
ENDBRANCH  22  25
ENDBRANCH   1  21
TORSDOF 7
ENDMDL
MODEL 6
REMARK VINA RESULT:      -8.1      2.228      2.572
REMARK  7 active torsions:
REMARK  status: ('A' for Active; 'I' for Inactive)
REMARK       I    between atoms: N_2  and  C_3 
REMARK    1  A    between atoms: N_2  and  C_24 
REMARK    2  A    between atoms: C_3  and  C_4 
REMARK    3  A    between atoms: C_7  and  N_8 
REMARK    4  A    between atoms: C_11  and  N_12 
REMARK       I    between atoms: N_12  and  C_13 
REMARK    5  A    between atoms: C_13  and  C_14 
REMARK    6  A    between atoms: C_24  and  C_25 
REMARK    7  A    between atoms: C_27  and  O_28 
ROOT
HETATM    1  C   UNL     1      42.477 -16.881   5.846  1.00  0.00     0.032 A 
HETATM    2  C   UNL     1      43.087 -15.724   5.359  1.00  0.00     0.019 A 
HETATM    3  C   UNL     1      42.657 -15.148   4.161  1.00  0.00     0.032 A 
HETATM    4  C   UNL     1      41.642 -15.754   3.405  1.00  0.00     0.058 A 
HETATM    5  C   UNL     1      41.033 -16.920   3.885  1.00  0.00     0.032 A 
HETATM    6  C   UNL     1      41.452 -17.478   5.100  1.00  0.00     0.019 A 
ENDROOT
BRANCH   4   7
HETATM    7  N   UNL     1      41.305 -15.201   2.137  1.00  0.00    -0.243 N 
HETATM    8  N   UNL     1      40.009 -15.130   1.738  1.00  0.00    -0.178 NA
HETATM    9  C   UNL     1      40.045 -14.451   0.591  1.00  0.00     0.170 A 
HETATM   10  C   UNL     1      41.353 -14.091   0.222  1.00  0.00     0.071 A 
HETATM   11  C   UNL     1      42.148 -14.630   1.205  1.00  0.00     0.149 A 
BRANCH  10  12
HETATM   12  N   UNL     1      41.832 -13.346  -0.836  1.00  0.00    -0.324 N 
HETATM   13  C   UNL     1      42.396 -12.091  -0.707  1.00  0.00     0.228 C 
HETATM   14  O   UNL     1      42.465 -11.451   0.341  1.00  0.00    -0.273 OA
HETATM   15  H   UNL     1      41.783 -13.768  -1.760  1.00  0.00     0.169 HD
BRANCH  13  16
HETATM   16  C   UNL     1      43.039 -11.546  -1.979  1.00  0.00     0.104 C 
HETATM   17  C   UNL     1      42.834 -10.057  -2.129  1.00  0.00     0.181 C 
HETATM   18  O   UNL     1      41.549  -9.928  -2.762  1.00  0.00    -0.390 OA
HETATM   19  C   UNL     1      41.397 -11.041  -3.657  1.00  0.00     0.168 C 
HETATM   20  C   UNL     1      42.385 -12.110  -3.225  1.00  0.00     0.042 C 
ENDBRANCH  13  16
ENDBRANCH  10  12
ENDBRANCH   4   7
BRANCH   1  21
HETATM   21  C   UNL     1      42.971 -17.581   7.062  1.00  0.00     0.253 C 
HETATM   22  N   UNL     1      44.023 -18.499   6.984  1.00  0.00    -0.348 N 
HETATM   23  C   UNL     1      44.383 -19.198   8.211  1.00  0.00     0.153 C 
HETATM   24  O   UNL     1      42.400 -17.319   8.122  1.00  0.00    -0.267 OA
BRANCH  22  25
HETATM   25  C   UNL     1      45.022 -18.517   5.915  1.00  0.00     0.164 C 
BRANCH  25  26
HETATM   26  C   UNL     1      44.671 -19.380   4.719  1.00  0.00    -0.038 A 
HETATM   27  C   UNL     1      44.196 -18.852   3.505  1.00  0.00     0.045 A 
HETATM   28  C   UNL     1      43.970 -19.678   2.400  1.00  0.00     0.068 A 
HETATM   29  C   UNL     1      44.176 -21.051   2.519  1.00  0.00     0.037 A 
HETATM   30  C   UNL     1      44.634 -21.596   3.717  1.00  0.00     0.003 A 
HETATM   31  C   UNL     1      44.888 -20.765   4.808  1.00  0.00     0.009 A 
BRANCH  28  32
HETATM   32  O   UNL     1      43.547 -19.261   1.167  1.00  0.00    -0.356 OA
HETATM   33  C   UNL     1      43.589 -17.859   0.923  1.00  0.00     0.210 C 
ENDBRANCH  28  32
ENDBRANCH  25  26
ENDBRANCH  22  25
ENDBRANCH   1  21
TORSDOF 7
ENDMDL
MODEL 7
REMARK VINA RESULT:      -8.0      2.514      4.520
REMARK  7 active torsions:
REMARK  status: ('A' for Active; 'I' for Inactive)
REMARK       I    between atoms: N_2  and  C_3 
REMARK    1  A    between atoms: N_2  and  C_24 
REMARK    2  A    between atoms: C_3  and  C_4 
REMARK    3  A    between atoms: C_7  and  N_8 
REMARK    4  A    between atoms: C_11  and  N_12 
REMARK       I    between atoms: N_12  and  C_13 
REMARK    5  A    between atoms: C_13  and  C_14 
REMARK    6  A    between atoms: C_24  and  C_25 
REMARK    7  A    between atoms: C_27  and  O_28 
ROOT
HETATM    1  C   UNL     1      43.358 -18.330   2.409  1.00  0.00     0.032 A 
HETATM    2  C   UNL     1      42.057 -18.557   1.956  1.00  0.00     0.019 A 
HETATM    3  C   UNL     1      41.353 -17.549   1.294  1.00  0.00     0.032 A 
HETATM    4  C   UNL     1      41.923 -16.278   1.124  1.00  0.00     0.058 A 
HETATM    5  C   UNL     1      43.224 -16.042   1.586  1.00  0.00     0.032 A 
HETATM    6  C   UNL     1      43.934 -17.067   2.226  1.00  0.00     0.019 A 
ENDROOT
BRANCH   4   7
HETATM    7  N   UNL     1      41.136 -15.243   0.543  1.00  0.00    -0.243 N 
HETATM    8  N   UNL     1      39.938 -14.900   1.084  1.00  0.00    -0.178 NA
HETATM    9  C   UNL     1      39.546 -13.833   0.388  1.00  0.00     0.170 A 
HETATM   10  C   UNL     1      40.464 -13.480  -0.617  1.00  0.00     0.071 A 
HETATM   11  C   UNL     1      41.450 -14.434  -0.530  1.00  0.00     0.149 A 
BRANCH  10  12
HETATM   12  N   UNL     1      40.484 -12.428  -1.510  1.00  0.00    -0.324 N 
HETATM   13  C   UNL     1      41.157 -11.241  -1.293  1.00  0.00     0.228 C 
HETATM   14  O   UNL     1      41.746 -10.941  -0.256  1.00  0.00    -0.273 OA
HETATM   15  H   UNL     1      39.988 -12.556  -2.388  1.00  0.00     0.169 HD
BRANCH  13  16
HETATM   16  C   UNL     1      41.208 -10.307  -2.498  1.00  0.00     0.104 C 
HETATM   17  C   UNL     1      40.196 -10.682  -3.555  1.00  0.00     0.181 C 
HETATM   18  O   UNL     1      40.852 -11.687  -4.346  1.00  0.00    -0.390 OA
HETATM   19  C   UNL     1      42.249 -11.357  -4.391  1.00  0.00     0.168 C 
HETATM   20  C   UNL     1      42.529 -10.413  -3.235  1.00  0.00     0.042 C 
ENDBRANCH  13  16
ENDBRANCH  10  12
ENDBRANCH   4   7
BRANCH   1  21
HETATM   21  C   UNL     1      44.103 -19.342   3.205  1.00  0.00     0.253 C 
HETATM   22  N   UNL     1      43.981 -19.392   4.597  1.00  0.00    -0.348 N 
HETATM   23  C   UNL     1      44.812 -20.360   5.300  1.00  0.00     0.153 C 
HETATM   24  O   UNL     1      44.833 -20.111   2.579  1.00  0.00    -0.267 OA
BRANCH  22  25
HETATM   25  C   UNL     1      42.838 -18.863   5.343  1.00  0.00     0.164 C 
BRANCH  25  26
HETATM   26  C   UNL     1      42.873 -17.370   5.604  1.00  0.00    -0.038 A 
HETATM   27  C   UNL     1      43.980 -16.718   6.178  1.00  0.00     0.045 A 
HETATM   28  C   UNL     1      44.003 -15.327   6.319  1.00  0.00     0.068 A 
HETATM   29  C   UNL     1      42.893 -14.582   5.926  1.00  0.00     0.037 A 
HETATM   30  C   UNL     1      41.781 -15.211   5.368  1.00  0.00     0.003 A 
HETATM   31  C   UNL     1      41.774 -16.595   5.201  1.00  0.00     0.009 A 
BRANCH  28  32
HETATM   32  O   UNL     1      45.042 -14.595   6.824  1.00  0.00    -0.356 OA
HETATM   33  C   UNL     1      44.698 -13.542   7.719  1.00  0.00     0.210 C 
ENDBRANCH  28  32
ENDBRANCH  25  26
ENDBRANCH  22  25
ENDBRANCH   1  21
TORSDOF 7
ENDMDL
MODEL 8
REMARK VINA RESULT:      -7.8      2.437      4.622
REMARK  7 active torsions:
REMARK  status: ('A' for Active; 'I' for Inactive)
REMARK       I    between atoms: N_2  and  C_3 
REMARK    1  A    between atoms: N_2  and  C_24 
REMARK    2  A    between atoms: C_3  and  C_4 
REMARK    3  A    between atoms: C_7  and  N_8 
REMARK    4  A    between atoms: C_11  and  N_12 
REMARK       I    between atoms: N_12  and  C_13 
REMARK    5  A    between atoms: C_13  and  C_14 
REMARK    6  A    between atoms: C_24  and  C_25 
REMARK    7  A    between atoms: C_27  and  O_28 
ROOT
HETATM    1  C   UNL     1      43.226 -18.531   2.411  1.00  0.00     0.032 A 
HETATM    2  C   UNL     1      41.861 -18.612   2.130  1.00  0.00     0.019 A 
HETATM    3  C   UNL     1      41.267 -17.711   1.242  1.00  0.00     0.032 A 
HETATM    4  C   UNL     1      42.023 -16.680   0.664  1.00  0.00     0.058 A 
HETATM    5  C   UNL     1      43.390 -16.588   0.952  1.00  0.00     0.032 A 
HETATM    6  C   UNL     1      43.985 -17.511   1.823  1.00  0.00     0.019 A 
ENDROOT
BRANCH   4   7
HETATM    7  N   UNL     1      41.363 -15.715  -0.149  1.00  0.00    -0.243 N 
HETATM    8  N   UNL     1      41.231 -15.913  -1.485  1.00  0.00    -0.178 NA
HETATM    9  C   UNL     1      40.464 -14.905  -1.902  1.00  0.00     0.170 A 
HETATM   10  C   UNL     1      40.104 -14.037  -0.857  1.00  0.00     0.071 A 
HETATM   11  C   UNL     1      40.738 -14.550   0.249  1.00  0.00     0.149 A 
BRANCH  10  12
HETATM   12  N   UNL     1      39.288 -12.924  -0.832  1.00  0.00    -0.324 N 
HETATM   13  C   UNL     1      37.974 -12.937  -0.405  1.00  0.00     0.228 C 
HETATM   14  O   UNL     1      37.347 -13.944  -0.078  1.00  0.00    -0.273 OA
HETATM   15  H   UNL     1      39.698 -12.041  -1.126  1.00  0.00     0.169 HD
BRANCH  13  16
HETATM   16  C   UNL     1      37.332 -11.560  -0.272  1.00  0.00     0.104 C 
HETATM   17  C   UNL     1      38.347 -10.445  -0.362  1.00  0.00     0.181 C 
HETATM   18  O   UNL     1      38.853 -10.304   0.977  1.00  0.00    -0.390 OA
HETATM   19  C   UNL     1      37.770 -10.582   1.878  1.00  0.00     0.168 C 
HETATM   20  C   UNL     1      36.720 -11.357   1.101  1.00  0.00     0.042 C 
ENDBRANCH  13  16
ENDBRANCH  10  12
ENDBRANCH   4   7
BRANCH   1  21
HETATM   21  C   UNL     1      43.875 -19.405   3.425  1.00  0.00     0.253 C 
HETATM   22  N   UNL     1      43.870 -19.059   4.780  1.00  0.00    -0.348 N 
HETATM   23  C   UNL     1      44.602 -19.931   5.689  1.00  0.00     0.153 C 
HETATM   24  O   UNL     1      44.421 -20.427   3.007  1.00  0.00    -0.267 OA
BRANCH  22  25
HETATM   25  C   UNL     1      42.891 -18.162   5.397  1.00  0.00     0.164 C 
BRANCH  25  26
HETATM   26  C   UNL     1      43.367 -16.741   5.618  1.00  0.00    -0.038 A 
HETATM   27  C   UNL     1      43.006 -15.670   4.779  1.00  0.00     0.045 A 
HETATM   28  C   UNL     1      43.397 -14.361   5.072  1.00  0.00     0.068 A 
HETATM   29  C   UNL     1      44.195 -14.120   6.188  1.00  0.00     0.037 A 
HETATM   30  C   UNL     1      44.576 -15.168   7.025  1.00  0.00     0.003 A 
HETATM   31  C   UNL     1      44.158 -16.468   6.746  1.00  0.00     0.009 A 
BRANCH  28  32
HETATM   32  O   UNL     1      43.067 -13.250   4.346  1.00  0.00    -0.356 OA
HETATM   33  C   UNL     1      42.834 -13.447   2.955  1.00  0.00     0.210 C 
ENDBRANCH  28  32
ENDBRANCH  25  26
ENDBRANCH  22  25
ENDBRANCH   1  21
TORSDOF 7
ENDMDL
MODEL 9
REMARK VINA RESULT:      -7.8      1.626      2.497
REMARK  7 active torsions:
REMARK  status: ('A' for Active; 'I' for Inactive)
REMARK       I    between atoms: N_2  and  C_3 
REMARK    1  A    between atoms: N_2  and  C_24 
REMARK    2  A    between atoms: C_3  and  C_4 
REMARK    3  A    between atoms: C_7  and  N_8 
REMARK    4  A    between atoms: C_11  and  N_12 
REMARK       I    between atoms: N_12  and  C_13 
REMARK    5  A    between atoms: C_13  and  C_14 
REMARK    6  A    between atoms: C_24  and  C_25 
REMARK    7  A    between atoms: C_27  and  O_28 
ROOT
HETATM    1  C   UNL     1      42.179 -16.944   5.565  1.00  0.00     0.032 A 
HETATM    2  C   UNL     1      41.287 -17.647   4.753  1.00  0.00     0.019 A 
HETATM    3  C   UNL     1      40.648 -17.009   3.686  1.00  0.00     0.032 A 
HETATM    4  C   UNL     1      40.854 -15.641   3.450  1.00  0.00     0.058 A 
HETATM    5  C   UNL     1      41.740 -14.930   4.268  1.00  0.00     0.032 A 
HETATM    6  C   UNL     1      42.397 -15.582   5.320  1.00  0.00     0.019 A 
ENDROOT
BRANCH   4   7
HETATM    7  N   UNL     1      40.103 -15.000   2.424  1.00  0.00    -0.243 N 
HETATM    8  N   UNL     1      39.291 -13.952   2.715  1.00  0.00    -0.178 NA
HETATM    9  C   UNL     1      38.859 -13.520   1.530  1.00  0.00     0.170 A 
HETATM   10  C   UNL     1      39.364 -14.284   0.463  1.00  0.00     0.071 A 
HETATM   11  C   UNL     1      40.118 -15.261   1.068  1.00  0.00     0.149 A 
BRANCH  10  12
HETATM   12  N   UNL     1      39.226 -14.151  -0.904  1.00  0.00    -0.324 N 
HETATM   13  C   UNL     1      39.228 -12.939  -1.568  1.00  0.00     0.228 C 
HETATM   14  O   UNL     1      39.267 -11.836  -1.026  1.00  0.00    -0.273 OA
HETATM   15  H   UNL     1      39.142 -15.006  -1.446  1.00  0.00     0.169 HD
BRANCH  13  16
HETATM   16  C   UNL     1      39.266 -13.045  -3.089  1.00  0.00     0.104 C 
HETATM   17  C   UNL     1      39.737 -14.403  -3.556  1.00  0.00     0.181 C 
HETATM   18  O   UNL     1      41.172 -14.309  -3.557  1.00  0.00    -0.390 OA
HETATM   19  C   UNL     1      41.516 -12.965  -3.928  1.00  0.00     0.168 C 
HETATM   20  C   UNL     1      40.289 -12.102  -3.692  1.00  0.00     0.042 C 
ENDBRANCH  13  16
ENDBRANCH  10  12
ENDBRANCH   4   7
BRANCH   1  21
HETATM   21  C   UNL     1      42.800 -17.558   6.769  1.00  0.00     0.253 C 
HETATM   22  N   UNL     1      43.967 -18.321   6.664  1.00  0.00    -0.348 N 
HETATM   23  C   UNL     1      44.457 -18.952   7.883  1.00  0.00     0.153 C 
HETATM   24  O   UNL     1      42.229 -17.369   7.844  1.00  0.00    -0.267 OA
BRANCH  22  25
HETATM   25  C   UNL     1      44.928 -18.210   5.566  1.00  0.00     0.164 C 
BRANCH  25  26
HETATM   26  C   UNL     1      44.611 -19.049   4.344  1.00  0.00    -0.038 A 
HETATM   27  C   UNL     1      44.766 -20.448   4.313  1.00  0.00     0.045 A 
HETATM   28  C   UNL     1      44.377 -21.190   3.194  1.00  0.00     0.068 A 
HETATM   29  C   UNL     1      43.871 -20.529   2.076  1.00  0.00     0.037 A 
HETATM   30  C   UNL     1      43.723 -19.143   2.082  1.00  0.00     0.003 A 
HETATM   31  C   UNL     1      44.083 -18.409   3.212  1.00  0.00     0.009 A 
BRANCH  28  32
HETATM   32  O   UNL     1      44.448 -22.551   3.078  1.00  0.00    -0.356 OA
HETATM   33  C   UNL     1      44.786 -23.272   4.258  1.00  0.00     0.210 C 
ENDBRANCH  28  32
ENDBRANCH  25  26
ENDBRANCH  22  25
ENDBRANCH   1  21
TORSDOF 7
ENDMDL
MODEL 10
REMARK VINA RESULT:      -7.7      5.379      9.162
REMARK  7 active torsions:
REMARK  status: ('A' for Active; 'I' for Inactive)
REMARK       I    between atoms: N_2  and  C_3 
REMARK    1  A    between atoms: N_2  and  C_24 
REMARK    2  A    between atoms: C_3  and  C_4 
REMARK    3  A    between atoms: C_7  and  N_8 
REMARK    4  A    between atoms: C_11  and  N_12 
REMARK       I    between atoms: N_12  and  C_13 
REMARK    5  A    between atoms: C_13  and  C_14 
REMARK    6  A    between atoms: C_24  and  C_25 
REMARK    7  A    between atoms: C_27  and  O_28 
ROOT
HETATM    1  C   UNL     1      40.710 -14.344   3.550  1.00  0.00     0.032 A 
HETATM    2  C   UNL     1      41.088 -13.010   3.395  1.00  0.00     0.019 A 
HETATM    3  C   UNL     1      41.079 -12.141   4.489  1.00  0.00     0.032 A 
HETATM    4  C   UNL     1      40.641 -12.585   5.746  1.00  0.00     0.058 A 
HETATM    5  C   UNL     1      40.251 -13.921   5.904  1.00  0.00     0.032 A 
HETATM    6  C   UNL     1      40.287 -14.793   4.808  1.00  0.00     0.019 A 
ENDROOT
BRANCH   4   7
HETATM    7  N   UNL     1      40.542 -11.645   6.812  1.00  0.00    -0.243 N 
HETATM    8  N   UNL     1      39.332 -11.323   7.338  1.00  0.00    -0.178 NA
HETATM    9  C   UNL     1      39.614 -10.540   8.379  1.00  0.00     0.170 A 
HETATM   10  C   UNL     1      40.995 -10.328   8.533  1.00  0.00     0.071 A 
HETATM   11  C   UNL     1      41.566 -11.006   7.482  1.00  0.00     0.149 A 
BRANCH  10  12
HETATM   12  N   UNL     1      41.715  -9.648   9.494  1.00  0.00    -0.324 N 
HETATM   13  C   UNL     1      42.162 -10.214  10.672  1.00  0.00     0.228 C 
HETATM   14  O   UNL     1      41.907 -11.356  11.050  1.00  0.00    -0.273 OA
HETATM   15  H   UNL     1      41.945  -8.677   9.300  1.00  0.00     0.169 HD
BRANCH  13  16
HETATM   16  C   UNL     1      43.107  -9.335  11.485  1.00  0.00     0.104 C 
HETATM   17  C   UNL     1      43.514  -9.984  12.787  1.00  0.00     0.181 C 
HETATM   18  O   UNL     1      42.461  -9.647  13.706  1.00  0.00    -0.390 OA
HETATM   19  C   UNL     1      41.993  -8.333  13.363  1.00  0.00     0.168 C 
HETATM   20  C   UNL     1      42.434  -8.054  11.937  1.00  0.00     0.042 C 
ENDBRANCH  13  16
ENDBRANCH  10  12
ENDBRANCH   4   7
BRANCH   1  21
HETATM   21  C   UNL     1      40.608 -15.274   2.393  1.00  0.00     0.253 C 
HETATM   22  N   UNL     1      41.755 -15.739   1.742  1.00  0.00    -0.348 N 
HETATM   23  C   UNL     1      41.555 -16.578   0.568  1.00  0.00     0.153 C 
HETATM   24  O   UNL     1      39.472 -15.594   2.039  1.00  0.00    -0.267 OA
BRANCH  22  25
HETATM   25  C   UNL     1      43.084 -15.792   2.353  1.00  0.00     0.164 C 
BRANCH  25  26
HETATM   26  C   UNL     1      43.362 -17.027   3.186  1.00  0.00    -0.038 A 
HETATM   27  C   UNL     1      43.775 -18.251   2.629  1.00  0.00     0.045 A 
HETATM   28  C   UNL     1      44.106 -19.338   3.444  1.00  0.00     0.068 A 
HETATM   29  C   UNL     1      43.981 -19.219   4.827  1.00  0.00     0.037 A 
HETATM   30  C   UNL     1      43.559 -18.020   5.398  1.00  0.00     0.003 A 
HETATM   31  C   UNL     1      43.260 -16.928   4.583  1.00  0.00     0.009 A 
BRANCH  28  32
HETATM   32  O   UNL     1      44.554 -20.554   3.006  1.00  0.00    -0.356 OA
HETATM   33  C   UNL     1      43.840 -21.141   1.924  1.00  0.00     0.210 C 
ENDBRANCH  28  32
ENDBRANCH  25  26
ENDBRANCH  22  25
ENDBRANCH   1  21
TORSDOF 7
ENDMDL
