MODEL 1
REMARK VINA RESULT:      -8.3      0.000      0.000
REMARK  3 active torsions:
REMARK  status: ('A' for Active; 'I' for Inactive)
REMARK    1  A    between atoms: C_6  and  N_7 
REMARK       I    between atoms: N_7  and  C_8 
REMARK    2  A    between atoms: C_8  and  C_9 
REMARK    3  A    between atoms: C_9  and  C_10 
ROOT
HETATM    1  C   UNL     1      41.332 -14.441   4.480  1.00  0.00     0.286 C 
HETATM    2  N   UNL     1      40.178 -15.101   3.722  1.00  0.00    -0.056 N 
HETATM    3  H   UNL     1      40.545 -16.012   3.372  1.00  0.00     0.278 HD
HETATM    4  H   UNL     1      39.402 -15.321   4.358  1.00  0.00     0.278 HD
HETATM    5  C   UNL     1      39.737 -14.245   2.580  1.00  0.00     0.209 C 
HETATM    6  C   UNL     1      39.240 -12.897   3.149  1.00  0.00     0.115 C 
HETATM    7  N   UNL     1      40.212 -12.272   4.048  1.00  0.00    -0.353 N 
HETATM    8  C   UNL     1      40.971 -13.014   4.936  1.00  0.00     0.249 C 
HETATM    9  O   UNL     1      41.392 -12.514   5.971  1.00  0.00    -0.271 OA
HETATM   10  C   UNL     1      38.641 -14.944   1.788  1.00  0.00     0.035 C 
HETATM   11  C   UNL     1      38.185 -14.047   0.637  1.00  0.00     0.002 C 
HETATM   12  C   UNL     1      37.773 -12.650   1.113  1.00  0.00     0.002 C 
HETATM   13  C   UNL     1      38.836 -11.981   1.993  1.00  0.00     0.027 C 
HETATM   14  H   UNL     1      39.992 -11.345   4.408  1.00  0.00     0.163 HD
ENDROOT
BRANCH   1  15
HETATM   15  C   UNL     1      41.804 -15.342   5.628  1.00  0.00     0.146 C 
BRANCH  15  16
HETATM   16  C   UNL     1      41.930 -16.757   5.105  1.00  0.00     0.224 C 
HETATM   17  N   UNL     1      43.101 -17.019   4.434  1.00  0.00    -0.327 N 
HETATM   18  H   UNL     1      43.847 -16.336   4.489  1.00  0.00     0.169 HD
HETATM   19  O   UNL     1      41.041 -17.566   5.376  1.00  0.00    -0.273 OA
BRANCH  17  20
HETATM   20  C   UNL     1      43.416 -18.232   3.767  1.00  0.00     0.040 A 
HETATM   21  C   UNL     1      44.289 -19.153   4.380  1.00  0.00    -0.035 A 
HETATM   22  C   UNL     1      44.601 -20.354   3.711  1.00  0.00     0.015 A 
HETATM   23  C   UNL     1      44.888 -18.922   5.741  1.00  0.00     0.050 C 
HETATM   24  C   UNL     1      44.076 -20.643   2.447  1.00  0.00    -0.061 A 
HETATM   25  C   UNL     1      44.388 -21.933   1.749  1.00  0.00     0.048 C 
HETATM   26  C   UNL     1      43.224 -19.719   1.846  1.00  0.00     0.009 A 
HETATM   27  C   UNL     1      42.902 -18.527   2.498  1.00  0.00     0.030 A 
ENDBRANCH  17  20
ENDBRANCH  15  16
ENDBRANCH   1  15
TORSDOF 3
ENDMDL
MODEL 2
REMARK VINA RESULT:      -8.3      2.271      3.148
REMARK  3 active torsions:
REMARK  status: ('A' for Active; 'I' for Inactive)
REMARK    1  A    between atoms: C_6  and  N_7 
REMARK       I    between atoms: N_7  and  C_8 
REMARK    2  A    between atoms: C_8  and  C_9 
REMARK    3  A    between atoms: C_9  and  C_10 
ROOT
HETATM    1  C   UNL     1      43.472 -15.439   6.551  1.00  0.00     0.286 C 
HETATM    2  N   UNL     1      41.972 -15.484   6.249  1.00  0.00    -0.056 N 
HETATM    3  H   UNL     1      41.799 -16.399   5.779  1.00  0.00     0.278 HD
HETATM    4  H   UNL     1      41.425 -15.492   7.119  1.00  0.00     0.278 HD
HETATM    5  C   UNL     1      41.578 -14.356   5.353  1.00  0.00     0.209 C 
HETATM    6  C   UNL     1      41.890 -13.029   6.080  1.00  0.00     0.115 C 
HETATM    7  N   UNL     1      43.266 -12.968   6.577  1.00  0.00    -0.353 N 
HETATM    8  C   UNL     1      43.896 -14.072   7.124  1.00  0.00     0.249 C 
HETATM    9  O   UNL     1      44.794 -13.939   7.945  1.00  0.00    -0.271 OA
HETATM   10  C   UNL     1      40.101 -14.455   4.999  1.00  0.00     0.035 C 
HETATM   11  C   UNL     1      39.709 -13.282   4.099  1.00  0.00     0.002 C 
HETATM   12  C   UNL     1      40.083 -11.928   4.709  1.00  0.00     0.002 C 
HETATM   13  C   UNL     1      41.547 -11.859   5.157  1.00  0.00     0.027 C 
HETATM   14  H   UNL     1      43.574 -12.096   7.004  1.00  0.00     0.163 HD
ENDROOT
BRANCH   1  15
HETATM   15  C   UNL     1      43.876 -16.621   7.442  1.00  0.00     0.146 C 
BRANCH  15  16
HETATM   16  C   UNL     1      43.741 -17.894   6.636  1.00  0.00     0.224 C 
HETATM   17  N   UNL     1      44.327 -17.854   5.393  1.00  0.00    -0.327 N 
HETATM   18  H   UNL     1      44.940 -17.076   5.179  1.00  0.00     0.169 HD
HETATM   19  O   UNL     1      43.203 -18.870   7.163  1.00  0.00    -0.273 OA
BRANCH  17  20
HETATM   20  C   UNL     1      44.256 -18.877   4.413  1.00  0.00     0.040 A 
HETATM   21  C   UNL     1      43.469 -18.679   3.261  1.00  0.00    -0.035 A 
HETATM   22  C   UNL     1      43.399 -19.701   2.292  1.00  0.00     0.015 A 
HETATM   23  C   UNL     1      42.715 -17.403   3.002  1.00  0.00     0.050 C 
HETATM   24  C   UNL     1      44.079 -20.911   2.457  1.00  0.00    -0.061 A 
HETATM   25  C   UNL     1      44.024 -21.987   1.413  1.00  0.00     0.048 C 
HETATM   26  C   UNL     1      44.844 -21.101   3.606  1.00  0.00     0.009 A 
HETATM   27  C   UNL     1      44.927 -20.097   4.573  1.00  0.00     0.030 A 
ENDBRANCH  17  20
ENDBRANCH  15  16
ENDBRANCH   1  15
TORSDOF 3
ENDMDL
MODEL 3
REMARK VINA RESULT:      -8.2      1.865      7.188
REMARK  3 active torsions:
REMARK  status: ('A' for Active; 'I' for Inactive)
REMARK    1  A    between atoms: C_6  and  N_7 
REMARK       I    between atoms: N_7  and  C_8 
REMARK    2  A    between atoms: C_8  and  C_9 
REMARK    3  A    between atoms: C_9  and  C_10 
ROOT
HETATM    1  C   UNL     1      43.564 -17.480   5.089  1.00  0.00     0.286 C 
HETATM    2  N   UNL     1      43.653 -17.817   3.599  1.00  0.00    -0.056 N 
HETATM    3  H   UNL     1      42.857 -17.322   3.142  1.00  0.00     0.278 HD
HETATM    4  H   UNL     1      44.513 -17.433   3.188  1.00  0.00     0.278 HD
HETATM    5  C   UNL     1      43.542 -19.291   3.381  1.00  0.00     0.209 C 
HETATM    6  C   UNL     1      44.720 -19.977   4.108  1.00  0.00     0.115 C 
HETATM    7  N   UNL     1      44.833 -19.568   5.510  1.00  0.00    -0.353 N 
HETATM    8  C   UNL     1      44.604 -18.265   5.912  1.00  0.00     0.249 C 
HETATM    9  O   UNL     1      45.141 -17.815   6.917  1.00  0.00    -0.271 OA
HETATM   10  C   UNL     1      43.556 -19.607   1.893  1.00  0.00     0.035 C 
HETATM   11  C   UNL     1      43.464 -21.120   1.687  1.00  0.00     0.002 C 
HETATM   12  C   UNL     1      44.542 -21.881   2.465  1.00  0.00     0.002 C 
HETATM   13  C   UNL     1      44.596 -21.492   3.947  1.00  0.00     0.027 C 
HETATM   14  H   UNL     1      45.539 -20.031   6.079  1.00  0.00     0.163 HD
ENDROOT
BRANCH   1  15
HETATM   15  C   UNL     1      43.641 -15.963   5.302  1.00  0.00     0.146 C 
BRANCH  15  16
HETATM   16  C   UNL     1      42.862 -15.285   4.196  1.00  0.00     0.224 C 
HETATM   17  N   UNL     1      41.509 -15.189   4.420  1.00  0.00    -0.327 N 
HETATM   18  H   UNL     1      41.162 -15.404   5.347  1.00  0.00     0.169 HD
HETATM   19  O   UNL     1      43.484 -14.813   3.243  1.00  0.00    -0.273 OA
BRANCH  17  20
HETATM   20  C   UNL     1      40.553 -14.688   3.499  1.00  0.00     0.040 A 
HETATM   21  C   UNL     1      40.052 -15.536   2.492  1.00  0.00    -0.035 A 
HETATM   22  C   UNL     1      39.105 -15.033   1.577  1.00  0.00     0.015 A 
HETATM   23  C   UNL     1      40.465 -16.978   2.363  1.00  0.00     0.050 C 
HETATM   24  C   UNL     1      38.665 -13.707   1.638  1.00  0.00    -0.061 A 
HETATM   25  C   UNL     1      37.637 -13.180   0.680  1.00  0.00     0.048 C 
HETATM   26  C   UNL     1      39.177 -12.874   2.631  1.00  0.00     0.009 A 
HETATM   27  C   UNL     1      40.112 -13.359   3.547  1.00  0.00     0.030 A 
ENDBRANCH  17  20
ENDBRANCH  15  16
ENDBRANCH   1  15
TORSDOF 3
ENDMDL
MODEL 4
REMARK VINA RESULT:      -8.1      1.686      2.078
REMARK  3 active torsions:
REMARK  status: ('A' for Active; 'I' for Inactive)
REMARK    1  A    between atoms: C_6  and  N_7 
REMARK       I    between atoms: N_7  and  C_8 
REMARK    2  A    between atoms: C_8  and  C_9 
REMARK    3  A    between atoms: C_9  and  C_10 
ROOT
HETATM    1  C   UNL     1      41.581 -14.085   3.371  1.00  0.00     0.286 C 
HETATM    2  N   UNL     1      41.707 -14.129   1.847  1.00  0.00    -0.056 N 
HETATM    3  H   UNL     1      42.508 -13.508   1.605  1.00  0.00     0.278 HD
HETATM    4  H   UNL     1      41.959 -15.073   1.529  1.00  0.00     0.278 HD
HETATM    5  C   UNL     1      40.454 -13.639   1.198  1.00  0.00     0.209 C 
HETATM    6  C   UNL     1      39.295 -14.568   1.619  1.00  0.00     0.115 C 
HETATM    7  N   UNL     1      39.209 -14.741   3.070  1.00  0.00    -0.353 N 
HETATM    8  C   UNL     1      40.338 -14.853   3.862  1.00  0.00     0.249 C 
HETATM    9  O   UNL     1      40.300 -15.457   4.926  1.00  0.00    -0.271 OA
HETATM   10  C   UNL     1      40.618 -13.616  -0.316  1.00  0.00     0.035 C 
HETATM   11  C   UNL     1      39.321 -13.133  -0.966  1.00  0.00     0.002 C 
HETATM   12  C   UNL     1      38.104 -13.945  -0.514  1.00  0.00     0.002 C 
HETATM   13  C   UNL     1      37.990 -14.052   1.011  1.00  0.00     0.027 C 
HETATM   14  H   UNL     1      38.426 -15.281   3.435  1.00  0.00     0.163 HD
ENDROOT
BRANCH   1  15
HETATM   15  C   UNL     1      42.883 -14.554   4.031  1.00  0.00     0.146 C 
BRANCH  15  16
HETATM   16  C   UNL     1      43.364 -15.795   3.311  1.00  0.00     0.224 C 
HETATM   17  N   UNL     1      42.936 -16.981   3.860  1.00  0.00    -0.327 N 
HETATM   18  H   UNL     1      42.212 -16.946   4.568  1.00  0.00     0.169 HD
HETATM   19  O   UNL     1      44.016 -15.658   2.275  1.00  0.00    -0.273 OA
BRANCH  17  20
HETATM   20  C   UNL     1      43.327 -18.277   3.433  1.00  0.00     0.040 A 
HETATM   21  C   UNL     1      44.241 -19.015   4.210  1.00  0.00    -0.035 A 
HETATM   22  C   UNL     1      44.628 -20.300   3.779  1.00  0.00     0.015 A 
HETATM   23  C   UNL     1      44.808 -18.501   5.505  1.00  0.00     0.050 C 
HETATM   24  C   UNL     1      44.137 -20.850   2.591  1.00  0.00    -0.061 A 
HETATM   25  C   UNL     1      44.530 -22.229   2.147  1.00  0.00     0.048 C 
HETATM   26  C   UNL     1      43.243 -20.106   1.824  1.00  0.00     0.009 A 
HETATM   27  C   UNL     1      42.847 -18.833   2.240  1.00  0.00     0.030 A 
ENDBRANCH  17  20
ENDBRANCH  15  16
ENDBRANCH   1  15
TORSDOF 3
ENDMDL
MODEL 5
REMARK VINA RESULT:      -7.8      1.886      1.930
REMARK  3 active torsions:
REMARK  status: ('A' for Active; 'I' for Inactive)
REMARK    1  A    between atoms: C_6  and  N_7 
REMARK       I    between atoms: N_7  and  C_8 
REMARK    2  A    between atoms: C_8  and  C_9 
REMARK    3  A    between atoms: C_9  and  C_10 
ROOT
HETATM    1  C   UNL     1      42.035 -14.539   3.567  1.00  0.00     0.286 C 
HETATM    2  N   UNL     1      41.177 -14.871   2.345  1.00  0.00    -0.056 N 
HETATM    3  H   UNL     1      41.261 -15.900   2.203  1.00  0.00     0.278 HD
HETATM    4  H   UNL     1      40.185 -14.680   2.533  1.00  0.00     0.278 HD
HETATM    5  C   UNL     1      41.667 -14.137   1.139  1.00  0.00     0.209 C 
HETATM    6  C   UNL     1      41.556 -12.622   1.417  1.00  0.00     0.115 C 
HETATM    7  N   UNL     1      42.193 -12.231   2.676  1.00  0.00    -0.353 N 
HETATM    8  C   UNL     1      42.116 -13.019   3.811  1.00  0.00     0.249 C 
HETATM    9  O   UNL     1      42.200 -12.522   4.926  1.00  0.00    -0.271 OA
HETATM   10  C   UNL     1      40.854 -14.532  -0.085  1.00  0.00     0.035 C 
HETATM   11  C   UNL     1      41.352 -13.757  -1.306  1.00  0.00     0.002 C 
HETATM   12  C   UNL     1      41.370 -12.244  -1.069  1.00  0.00     0.002 C 
HETATM   13  C   UNL     1      42.106 -11.849   0.217  1.00  0.00     0.027 C 
HETATM   14  H   UNL     1      42.229 -11.237   2.898  1.00  0.00     0.163 HD
ENDROOT
BRANCH   1  15
HETATM   15  C   UNL     1      41.550 -15.324   4.793  1.00  0.00     0.146 C 
BRANCH  15  16
HETATM   16  C   UNL     1      41.792 -16.797   4.544  1.00  0.00     0.224 C 
HETATM   17  N   UNL     1      42.981 -17.085   3.916  1.00  0.00    -0.327 N 
HETATM   18  H   UNL     1      43.668 -16.346   3.828  1.00  0.00     0.169 HD
HETATM   19  O   UNL     1      40.975 -17.609   4.978  1.00  0.00    -0.273 OA
BRANCH  17  20
HETATM   20  C   UNL     1      43.395 -18.373   3.485  1.00  0.00     0.040 A 
HETATM   21  C   UNL     1      44.300 -19.110   4.275  1.00  0.00    -0.035 A 
HETATM   22  C   UNL     1      44.710 -20.386   3.839  1.00  0.00     0.015 A 
HETATM   23  C   UNL     1      44.832 -18.603   5.588  1.00  0.00     0.050 C 
HETATM   24  C   UNL     1      44.252 -20.929   2.635  1.00  0.00    -0.061 A 
HETATM   25  C   UNL     1      44.670 -22.298   2.186  1.00  0.00     0.048 C 
HETATM   26  C   UNL     1      43.368 -20.186   1.856  1.00  0.00     0.009 A 
HETATM   27  C   UNL     1      42.949 -18.921   2.275  1.00  0.00     0.030 A 
ENDBRANCH  17  20
ENDBRANCH  15  16
ENDBRANCH   1  15
TORSDOF 3
ENDMDL
MODEL 6
REMARK VINA RESULT:      -7.8      2.984      3.761
REMARK  3 active torsions:
REMARK  status: ('A' for Active; 'I' for Inactive)
REMARK    1  A    between atoms: C_6  and  N_7 
REMARK       I    between atoms: N_7  and  C_8 
REMARK    2  A    between atoms: C_8  and  C_9 
REMARK    3  A    between atoms: C_9  and  C_10 
ROOT
HETATM    1  C   UNL     1      40.459 -13.524   1.554  1.00  0.00     0.286 C 
HETATM    2  N   UNL     1      41.632 -13.468   0.572  1.00  0.00    -0.056 N 
HETATM    3  H   UNL     1      42.270 -12.723   0.925  1.00  0.00     0.278 HD
HETATM    4  H   UNL     1      42.166 -14.346   0.591  1.00  0.00     0.278 HD
HETATM    5  C   UNL     1      41.155 -13.136  -0.804  1.00  0.00     0.209 C 
HETATM    6  C   UNL     1      40.187 -14.249  -1.262  1.00  0.00     0.115 C 
HETATM    7  N   UNL     1      39.124 -14.509  -0.289  1.00  0.00    -0.353 N 
HETATM    8  C   UNL     1      39.361 -14.493   1.074  1.00  0.00     0.249 C 
HETATM    9  O   UNL     1      38.667 -15.151   1.838  1.00  0.00    -0.271 OA
HETATM   10  C   UNL     1      42.336 -13.009  -1.756  1.00  0.00     0.035 C 
HETATM   11  C   UNL     1      41.831 -12.691  -3.163  1.00  0.00     0.002 C 
HETATM   12  C   UNL     1      40.784 -13.698  -3.649  1.00  0.00     0.002 C 
HETATM   13  C   UNL     1      39.641 -13.901  -2.648  1.00  0.00     0.027 C 
HETATM   14  H   UNL     1      38.401 -15.177  -0.548  1.00  0.00     0.163 HD
ENDROOT
BRANCH   1  15
HETATM   15  C   UNL     1      40.960 -13.829   2.971  1.00  0.00     0.146 C 
BRANCH  15  16
HETATM   16  C   UNL     1      42.024 -14.900   2.882  1.00  0.00     0.224 C 
HETATM   17  N   UNL     1      41.546 -16.189   2.899  1.00  0.00    -0.327 N 
HETATM   18  H   UNL     1      40.548 -16.330   2.790  1.00  0.00     0.169 HD
HETATM   19  O   UNL     1      43.196 -14.554   2.726  1.00  0.00    -0.273 OA
BRANCH  17  20
HETATM   20  C   UNL     1      42.341 -17.365   2.926  1.00  0.00     0.040 A 
HETATM   21  C   UNL     1      42.713 -17.919   4.167  1.00  0.00    -0.035 A 
HETATM   22  C   UNL     1      43.506 -19.085   4.188  1.00  0.00     0.015 A 
HETATM   23  C   UNL     1      42.277 -17.334   5.482  1.00  0.00     0.050 C 
HETATM   24  C   UNL     1      43.942 -19.692   3.007  1.00  0.00    -0.061 A 
HETATM   25  C   UNL     1      44.764 -20.947   3.032  1.00  0.00     0.048 C 
HETATM   26  C   UNL     1      43.578 -19.128   1.786  1.00  0.00     0.009 A 
HETATM   27  C   UNL     1      42.790 -17.976   1.749  1.00  0.00     0.030 A 
ENDBRANCH  17  20
ENDBRANCH  15  16
ENDBRANCH   1  15
TORSDOF 3
ENDMDL
MODEL 7
REMARK VINA RESULT:      -7.8      1.971      3.080
REMARK  3 active torsions:
REMARK  status: ('A' for Active; 'I' for Inactive)
REMARK    1  A    between atoms: C_6  and  N_7 
REMARK       I    between atoms: N_7  and  C_8 
REMARK    2  A    between atoms: C_8  and  C_9 
REMARK    3  A    between atoms: C_9  and  C_10 
ROOT
HETATM    1  C   UNL     1      42.436 -15.621   6.460  1.00  0.00     0.286 C 
HETATM    2  N   UNL     1      43.116 -15.229   5.147  1.00  0.00    -0.056 N 
HETATM    3  H   UNL     1      44.025 -14.792   5.411  1.00  0.00     0.278 HD
HETATM    4  H   UNL     1      43.341 -16.062   4.589  1.00  0.00     0.278 HD
HETATM    5  C   UNL     1      42.275 -14.258   4.385  1.00  0.00     0.209 C 
HETATM    6  C   UNL     1      40.929 -14.940   4.053  1.00  0.00     0.115 C 
HETATM    7  N   UNL     1      40.284 -15.519   5.233  1.00  0.00    -0.353 N 
HETATM    8  C   UNL     1      41.009 -16.155   6.225  1.00  0.00     0.249 C 
HETATM    9  O   UNL     1      40.495 -17.023   6.918  1.00  0.00    -0.271 OA
HETATM   10  C   UNL     1      42.995 -13.818   3.118  1.00  0.00     0.035 C 
HETATM   11  C   UNL     1      42.113 -12.842   2.338  1.00  0.00     0.002 C 
HETATM   12  C   UNL     1      40.718 -13.410   2.060  1.00  0.00     0.002 C 
HETATM   13  C   UNL     1      40.028 -13.945   3.321  1.00  0.00     0.027 C 
HETATM   14  H   UNL     1      39.357 -15.923   5.112  1.00  0.00     0.163 HD
ENDROOT
BRANCH   1  15
HETATM   15  C   UNL     1      43.321 -16.589   7.255  1.00  0.00     0.146 C 
BRANCH  15  16
HETATM   16  C   UNL     1      44.030 -17.501   6.278  1.00  0.00     0.224 C 
HETATM   17  N   UNL     1      43.196 -18.216   5.451  1.00  0.00    -0.327 N 
HETATM   18  H   UNL     1      42.216 -17.963   5.425  1.00  0.00     0.169 HD
HETATM   19  O   UNL     1      45.261 -17.480   6.239  1.00  0.00    -0.273 OA
BRANCH  17  20
HETATM   20  C   UNL     1      43.607 -19.207   4.521  1.00  0.00     0.040 A 
HETATM   21  C   UNL     1      43.254 -19.071   3.164  1.00  0.00    -0.035 A 
HETATM   22  C   UNL     1      43.662 -20.060   2.245  1.00  0.00     0.015 A 
HETATM   23  C   UNL     1      42.478 -17.894   2.640  1.00  0.00     0.050 C 
HETATM   24  C   UNL     1      44.394 -21.179   2.655  1.00  0.00    -0.061 A 
HETATM   25  C   UNL     1      44.849 -22.217   1.672  1.00  0.00     0.048 C 
HETATM   26  C   UNL     1      44.726 -21.309   4.002  1.00  0.00     0.009 A 
HETATM   27  C   UNL     1      44.333 -20.336   4.923  1.00  0.00     0.030 A 
ENDBRANCH  17  20
ENDBRANCH  15  16
ENDBRANCH   1  15
TORSDOF 3
ENDMDL
MODEL 8
REMARK VINA RESULT:      -7.7      2.553      6.728
REMARK  3 active torsions:
REMARK  status: ('A' for Active; 'I' for Inactive)
REMARK    1  A    between atoms: C_6  and  N_7 
REMARK       I    between atoms: N_7  and  C_8 
REMARK    2  A    between atoms: C_8  and  C_9 
REMARK    3  A    between atoms: C_9  and  C_10 
ROOT
HETATM    1  C   UNL     1      42.792 -16.465   5.019  1.00  0.00     0.286 C 
HETATM    2  N   UNL     1      43.461 -17.092   3.793  1.00  0.00    -0.056 N 
HETATM    3  H   UNL     1      42.852 -16.857   2.980  1.00  0.00     0.278 HD
HETATM    4  H   UNL     1      44.373 -16.656   3.613  1.00  0.00     0.278 HD
HETATM    5  C   UNL     1      43.571 -18.573   3.950  1.00  0.00     0.209 C 
HETATM    6  C   UNL     1      44.448 -18.864   5.188  1.00  0.00     0.115 C 
HETATM    7  N   UNL     1      43.993 -18.152   6.382  1.00  0.00    -0.353 N 
HETATM    8  C   UNL     1      43.514 -16.855   6.323  1.00  0.00     0.249 C 
HETATM    9  O   UNL     1      43.594 -16.112   7.293  1.00  0.00    -0.271 OA
HETATM   10  C   UNL     1      44.169 -19.193   2.695  1.00  0.00     0.035 C 
HETATM   11  C   UNL     1      44.296 -20.706   2.879  1.00  0.00     0.002 C 
HETATM   12  C   UNL     1      45.069 -21.077   4.148  1.00  0.00     0.002 C 
HETATM   13  C   UNL     1      44.530 -20.377   5.401  1.00  0.00     0.027 C 
HETATM   14  H   UNL     1      44.473 -18.347   7.259  1.00  0.00     0.163 HD
ENDROOT
BRANCH   1  15
HETATM   15  C   UNL     1      42.647 -14.949   4.835  1.00  0.00     0.146 C 
BRANCH  15  16
HETATM   16  C   UNL     1      42.775 -14.632   3.361  1.00  0.00     0.224 C 
HETATM   17  N   UNL     1      41.617 -14.786   2.637  1.00  0.00    -0.327 N 
HETATM   18  H   UNL     1      40.750 -14.919   3.144  1.00  0.00     0.169 HD
HETATM   19  O   UNL     1      43.850 -14.197   2.944  1.00  0.00    -0.273 OA
BRANCH  17  20
HETATM   20  C   UNL     1      41.498 -14.647   1.230  1.00  0.00     0.040 A 
HETATM   21  C   UNL     1      41.352 -15.798   0.431  1.00  0.00    -0.035 A 
HETATM   22  C   UNL     1      41.238 -15.655  -0.967  1.00  0.00     0.015 A 
HETATM   23  C   UNL     1      41.283 -17.186   1.010  1.00  0.00     0.050 C 
HETATM   24  C   UNL     1      41.284 -14.398  -1.578  1.00  0.00    -0.061 A 
HETATM   25  C   UNL     1      41.137 -14.246  -3.063  1.00  0.00     0.048 C 
HETATM   26  C   UNL     1      41.442 -13.268  -0.779  1.00  0.00     0.009 A 
HETATM   27  C   UNL     1      41.551 -13.393   0.608  1.00  0.00     0.030 A 
ENDBRANCH  17  20
ENDBRANCH  15  16
ENDBRANCH   1  15
TORSDOF 3
ENDMDL
MODEL 9
REMARK VINA RESULT:      -7.6      2.510      7.719
REMARK  3 active torsions:
REMARK  status: ('A' for Active; 'I' for Inactive)
REMARK    1  A    between atoms: C_6  and  N_7 
REMARK       I    between atoms: N_7  and  C_8 
REMARK    2  A    between atoms: C_8  and  C_9 
REMARK    3  A    between atoms: C_9  and  C_10 
ROOT
HETATM    1  C   UNL     1      43.222 -17.482   3.185  1.00  0.00     0.286 C 
HETATM    2  N   UNL     1      44.033 -18.597   2.523  1.00  0.00    -0.056 N 
HETATM    3  H   UNL     1      43.629 -18.722   1.569  1.00  0.00     0.278 HD
HETATM    4  H   UNL     1      45.011 -18.310   2.392  1.00  0.00     0.278 HD
HETATM    5  C   UNL     1      43.924 -19.866   3.303  1.00  0.00     0.209 C 
HETATM    6  C   UNL     1      44.500 -19.617   4.715  1.00  0.00     0.115 C 
HETATM    7  N   UNL     1      43.914 -18.443   5.364  1.00  0.00    -0.353 N 
HETATM    8  C   UNL     1      43.623 -17.287   4.661  1.00  0.00     0.249 C 
HETATM    9  O   UNL     1      43.604 -16.200   5.223  1.00  0.00    -0.271 OA
HETATM   10  C   UNL     1      44.673 -20.987   2.595  1.00  0.00     0.035 C 
HETATM   11  C   UNL     1      44.571 -22.273   3.416  1.00  0.00     0.002 C 
HETATM   12  C   UNL     1      45.028 -22.078   4.865  1.00  0.00     0.002 C 
HETATM   13  C   UNL     1      44.348 -20.888   5.551  1.00  0.00     0.027 C 
HETATM   14  H   UNL     1      44.186 -18.252   6.327  1.00  0.00     0.163 HD
ENDROOT
BRANCH   1  15
HETATM   15  C   UNL     1      43.308 -16.192   2.359  1.00  0.00     0.146 C 
BRANCH  15  16
HETATM   16  C   UNL     1      42.212 -16.219   1.316  1.00  0.00     0.224 C 
HETATM   17  N   UNL     1      41.985 -15.017   0.689  1.00  0.00    -0.327 N 
HETATM   18  H   UNL     1      42.656 -14.271   0.829  1.00  0.00     0.169 HD
HETATM   19  O   UNL     1      41.674 -17.296   1.055  1.00  0.00    -0.273 OA
BRANCH  17  20
HETATM   20  C   UNL     1      40.953 -14.756  -0.249  1.00  0.00     0.040 A 
HETATM   21  C   UNL     1      39.768 -14.128   0.182  1.00  0.00    -0.035 A 
HETATM   22  C   UNL     1      38.744 -13.875  -0.754  1.00  0.00     0.015 A 
HETATM   23  C   UNL     1      39.554 -13.685   1.604  1.00  0.00     0.050 C 
HETATM   24  C   UNL     1      38.873 -14.249  -2.095  1.00  0.00    -0.061 A 
HETATM   25  C   UNL     1      37.793 -13.956  -3.095  1.00  0.00     0.048 C 
HETATM   26  C   UNL     1      40.044 -14.882  -2.507  1.00  0.00     0.009 A 
HETATM   27  C   UNL     1      41.069 -15.135  -1.593  1.00  0.00     0.030 A 
ENDBRANCH  17  20
ENDBRANCH  15  16
ENDBRANCH   1  15
TORSDOF 3
ENDMDL
MODEL 10
REMARK VINA RESULT:      -7.5      3.364      4.594
REMARK  3 active torsions:
REMARK  status: ('A' for Active; 'I' for Inactive)
REMARK    1  A    between atoms: C_6  and  N_7 
REMARK       I    between atoms: N_7  and  C_8 
REMARK    2  A    between atoms: C_8  and  C_9 
REMARK    3  A    between atoms: C_9  and  C_10 
ROOT
HETATM    1  C   UNL     1      40.065 -14.134   0.308  1.00  0.00     0.286 C 
HETATM    2  N   UNL     1      40.646 -12.865   0.937  1.00  0.00    -0.056 N 
HETATM    3  H   UNL     1      39.856 -12.402   1.435  1.00  0.00     0.278 HD
HETATM    4  H   UNL     1      41.347 -13.100   1.651  1.00  0.00     0.278 HD
HETATM    5  C   UNL     1      41.201 -11.960  -0.114  1.00  0.00     0.209 C 
HETATM    6  C   UNL     1      42.338 -12.707  -0.845  1.00  0.00     0.115 C 
HETATM    7  N   UNL     1      41.928 -14.028  -1.325  1.00  0.00    -0.353 N 
HETATM    8  C   UNL     1      41.098 -14.850  -0.584  1.00  0.00     0.249 C 
HETATM    9  O   UNL     1      41.141 -16.067  -0.715  1.00  0.00    -0.271 OA
HETATM   10  C   UNL     1      41.706 -10.669   0.516  1.00  0.00     0.035 C 
HETATM   11  C   UNL     1      42.291  -9.763  -0.569  1.00  0.00     0.002 C 
HETATM   12  C   UNL     1      43.358 -10.471  -1.408  1.00  0.00     0.002 C 
HETATM   13  C   UNL     1      42.884 -11.819  -1.964  1.00  0.00     0.027 C 
HETATM   14  H   UNL     1      42.598 -14.555  -1.882  1.00  0.00     0.163 HD
ENDROOT
BRANCH   1  15
HETATM   15  C   UNL     1      39.464 -15.042   1.389  1.00  0.00     0.146 C 
BRANCH  15  16
HETATM   16  C   UNL     1      40.573 -15.467   2.327  1.00  0.00     0.224 C 
HETATM   17  N   UNL     1      40.935 -16.789   2.226  1.00  0.00    -0.327 N 
HETATM   18  H   UNL     1      40.581 -17.324   1.442  1.00  0.00     0.169 HD
HETATM   19  O   UNL     1      41.107 -14.610   3.033  1.00  0.00    -0.273 OA
BRANCH  17  20
HETATM   20  C   UNL     1      41.874 -17.454   3.059  1.00  0.00     0.040 A 
HETATM   21  C   UNL     1      43.099 -17.886   2.513  1.00  0.00    -0.035 A 
HETATM   22  C   UNL     1      44.025 -18.548   3.344  1.00  0.00     0.015 A 
HETATM   23  C   UNL     1      43.478 -17.646   1.077  1.00  0.00     0.050 C 
HETATM   24  C   UNL     1      43.749 -18.799   4.691  1.00  0.00    -0.061 A 
HETATM   25  C   UNL     1      44.747 -19.481   5.580  1.00  0.00     0.048 C 
HETATM   26  C   UNL     1      42.529 -18.378   5.216  1.00  0.00     0.009 A 
HETATM   27  C   UNL     1      41.602 -17.717   4.408  1.00  0.00     0.030 A 
ENDBRANCH  17  20
ENDBRANCH  15  16
ENDBRANCH   1  15
TORSDOF 3
ENDMDL
