MODEL 1
REMARK VINA RESULT:      -8.3      0.000      0.000
REMARK  2 active torsions:
REMARK  status: ('A' for Active; 'I' for Inactive)
REMARK    1  A    between atoms: C_8  and  N_9 
REMARK       I    between atoms: N_9  and  C_10 
REMARK       I    between atoms: C_10  and  N_11 
REMARK    2  A    between atoms: N_11  and  C_12 
ROOT
HETATM    1  C   UNL     1      44.314 -19.891   2.548  1.00  0.00     0.044 A 
HETATM    2  C   UNL     1      44.429 -19.835   3.928  1.00  0.00     0.117 A 
HETATM    3  F   UNL     1      45.350 -20.584   4.544  1.00  0.00    -0.206 F 
HETATM    4  C   UNL     1      43.582 -19.033   4.681  1.00  0.00     0.067 A 
HETATM    5  C   UNL     1      42.596 -18.254   4.051  1.00  0.00     0.074 A 
HETATM    6  C   UNL     1      41.672 -17.568   4.908  1.00  0.00     0.102 C 
HETATM    7  N   UNL     1      40.912 -17.038   5.608  1.00  0.00    -0.191 NA
HETATM    8  C   UNL     1      42.487 -18.273   2.643  1.00  0.00     0.057 A 
HETATM    9  C   UNL     1      43.343 -19.117   1.909  1.00  0.00     0.034 A 
ENDROOT
BRANCH   8  10
HETATM   10  N   UNL     1      41.535 -17.561   1.870  1.00  0.00    -0.308 N 
HETATM   11  C   UNL     1      41.610 -16.255   1.459  1.00  0.00     0.321 C 
HETATM   12  N   UNL     1      40.404 -15.817   0.964  1.00  0.00    -0.336 N 
HETATM   13  O   UNL     1      42.590 -15.523   1.498  1.00  0.00    -0.247 OA
HETATM   14  H   UNL     1      39.596 -16.362   1.239  1.00  0.00     0.164 HD
HETATM   15  H   UNL     1      40.913 -18.129   1.307  1.00  0.00     0.170 HD
BRANCH  12  16
HETATM   16  C   UNL     1      40.154 -14.459   0.471  1.00  0.00     0.118 C 
HETATM   17  C   UNL     1      40.000 -14.295  -1.054  1.00  0.00     0.210 C 
HETATM   18  N   UNL     1      38.533 -14.530  -1.272  1.00  0.00    -0.065 N 
HETATM   19  C   UNL     1      40.794 -15.201  -1.982  1.00  0.00     0.035 C 
HETATM   20  H   UNL     1      38.356 -15.545  -1.088  1.00  0.00     0.280 HD
HETATM   21  C   UNL     1      38.070 -14.219  -2.654  1.00  0.00     0.235 C 
HETATM   22  C   UNL     1      37.854 -13.804  -0.150  1.00  0.00     0.237 C 
HETATM   23  C   UNL     1      38.869 -15.058  -3.645  1.00  0.00     0.028 C 
HETATM   24  C   UNL     1      40.383 -14.951  -3.437  1.00  0.00     0.004 C 
HETATM   25  C   UNL     1      38.842 -13.871   1.019  1.00  0.00     0.055 C 
ENDBRANCH  12  16
ENDBRANCH   8  10
TORSDOF 2
ENDMDL
MODEL 2
REMARK VINA RESULT:      -7.8      2.071      2.745
REMARK  2 active torsions:
REMARK  status: ('A' for Active; 'I' for Inactive)
REMARK    1  A    between atoms: C_8  and  N_9 
REMARK       I    between atoms: N_9  and  C_10 
REMARK       I    between atoms: C_10  and  N_11 
REMARK    2  A    between atoms: N_11  and  C_12 
ROOT
HETATM    1  C   UNL     1      44.372 -20.222   2.840  1.00  0.00     0.044 A 
HETATM    2  C   UNL     1      44.373 -20.085   4.218  1.00  0.00     0.117 A 
HETATM    3  F   UNL     1      44.650 -21.146   4.986  1.00  0.00    -0.206 F 
HETATM    4  C   UNL     1      44.065 -18.869   4.814  1.00  0.00     0.067 A 
HETATM    5  C   UNL     1      43.753 -17.750   4.023  1.00  0.00     0.074 A 
HETATM    6  C   UNL     1      43.306 -16.576   4.715  1.00  0.00     0.102 C 
HETATM    7  N   UNL     1      42.920 -15.639   5.282  1.00  0.00    -0.191 NA
HETATM    8  C   UNL     1      43.780 -17.863   2.616  1.00  0.00     0.057 A 
HETATM    9  C   UNL     1      44.070 -19.116   2.042  1.00  0.00     0.034 A 
ENDROOT
BRANCH   8  10
HETATM   10  N   UNL     1      43.471 -16.834   1.690  1.00  0.00    -0.308 N 
HETATM   11  C   UNL     1      42.232 -16.491   1.213  1.00  0.00     0.321 C 
HETATM   12  N   UNL     1      42.327 -15.637   0.140  1.00  0.00    -0.336 N 
HETATM   13  O   UNL     1      41.147 -16.858   1.644  1.00  0.00    -0.247 OA
HETATM   14  H   UNL     1      43.226 -15.626  -0.328  1.00  0.00     0.164 HD
HETATM   15  H   UNL     1      44.155 -16.090   1.616  1.00  0.00     0.170 HD
BRANCH  12  16
HETATM   16  C   UNL     1      41.181 -15.112  -0.607  1.00  0.00     0.118 C 
HETATM   17  C   UNL     1      41.297 -13.664  -1.122  1.00  0.00     0.210 C 
HETATM   18  N   UNL     1      41.955 -13.834  -2.461  1.00  0.00    -0.065 N 
HETATM   19  C   UNL     1      42.079 -12.646  -0.307  1.00  0.00     0.035 C 
HETATM   20  H   UNL     1      42.941 -14.138  -2.280  1.00  0.00     0.280 HD
HETATM   21  C   UNL     1      41.995 -12.587  -3.277  1.00  0.00     0.235 C 
HETATM   22  C   UNL     1      41.284 -15.025  -3.074  1.00  0.00     0.237 C 
HETATM   23  C   UNL     1      42.722 -11.503  -2.491  1.00  0.00     0.028 C 
HETATM   24  C   UNL     1      42.173 -11.321  -1.072  1.00  0.00     0.004 C 
HETATM   25  C   UNL     1      40.900 -15.916  -1.889  1.00  0.00     0.055 C 
ENDBRANCH  12  16
ENDBRANCH   8  10
TORSDOF 2
ENDMDL
MODEL 3
REMARK VINA RESULT:      -7.8      3.146      4.550
REMARK  2 active torsions:
REMARK  status: ('A' for Active; 'I' for Inactive)
REMARK    1  A    between atoms: C_8  and  N_9 
REMARK       I    between atoms: N_9  and  C_10 
REMARK       I    between atoms: C_10  and  N_11 
REMARK    2  A    between atoms: N_11  and  C_12 
ROOT
HETATM    1  C   UNL     1      43.810 -21.377   2.130  1.00  0.00     0.044 A 
HETATM    2  C   UNL     1      44.628 -21.772   3.175  1.00  0.00     0.117 A 
HETATM    3  F   UNL     1      45.096 -23.026   3.210  1.00  0.00    -0.206 F 
HETATM    4  C   UNL     1      44.946 -20.894   4.202  1.00  0.00     0.067 A 
HETATM    5  C   UNL     1      44.448 -19.580   4.191  1.00  0.00     0.074 A 
HETATM    6  C   UNL     1      44.704 -18.784   5.358  1.00  0.00     0.102 C 
HETATM    7  N   UNL     1      44.892 -18.156   6.316  1.00  0.00    -0.191 NA
HETATM    8  C   UNL     1      43.640 -19.150   3.116  1.00  0.00     0.057 A 
HETATM    9  C   UNL     1      43.313 -20.073   2.104  1.00  0.00     0.034 A 
ENDROOT
BRANCH   8  10
HETATM   10  N   UNL     1      43.050 -17.867   2.976  1.00  0.00    -0.308 N 
HETATM   11  C   UNL     1      41.892 -17.419   3.557  1.00  0.00     0.321 C 
HETATM   12  N   UNL     1      41.478 -16.233   2.997  1.00  0.00    -0.336 N 
HETATM   13  O   UNL     1      41.263 -17.955   4.460  1.00  0.00    -0.247 OA
HETATM   14  H   UNL     1      41.868 -16.023   2.085  1.00  0.00     0.164 HD
HETATM   15  H   UNL     1      43.678 -17.124   2.694  1.00  0.00     0.170 HD
BRANCH  12  16
HETATM   16  C   UNL     1      40.261 -15.514   3.382  1.00  0.00     0.118 C 
HETATM   17  C   UNL     1      40.449 -14.245   4.236  1.00  0.00     0.210 C 
HETATM   18  N   UNL     1      40.630 -13.168   3.205  1.00  0.00    -0.065 N 
HETATM   19  C   UNL     1      41.597 -14.182   5.230  1.00  0.00     0.035 C 
HETATM   20  H   UNL     1      41.560 -13.333   2.752  1.00  0.00     0.280 HD
HETATM   21  C   UNL     1      40.622 -11.787   3.765  1.00  0.00     0.235 C 
HETATM   22  C   UNL     1      39.618 -13.476   2.143  1.00  0.00     0.237 C 
HETATM   23  C   UNL     1      41.721 -11.672   4.815  1.00  0.00     0.028 C 
HETATM   24  C   UNL     1      41.669 -12.788   5.863  1.00  0.00     0.004 C 
HETATM   25  C   UNL     1      39.474 -15.001   2.163  1.00  0.00     0.055 C 
ENDBRANCH  12  16
ENDBRANCH   8  10
TORSDOF 2
ENDMDL
MODEL 4
REMARK VINA RESULT:      -7.7      2.499      3.478
REMARK  2 active torsions:
REMARK  status: ('A' for Active; 'I' for Inactive)
REMARK    1  A    between atoms: C_8  and  N_9 
REMARK       I    between atoms: N_9  and  C_10 
REMARK       I    between atoms: C_10  and  N_11 
REMARK    2  A    between atoms: N_11  and  C_12 
ROOT
HETATM    1  C   UNL     1      43.654 -21.299   1.857  1.00  0.00     0.044 A 
HETATM    2  C   UNL     1      44.500 -21.826   2.818  1.00  0.00     0.117 A 
HETATM    3  F   UNL     1      44.970 -23.071   2.672  1.00  0.00    -0.206 F 
HETATM    4  C   UNL     1      44.845 -21.092   3.945  1.00  0.00     0.067 A 
HETATM    5  C   UNL     1      44.345 -19.791   4.123  1.00  0.00     0.074 A 
HETATM    6  C   UNL     1      44.631 -19.158   5.378  1.00  0.00     0.102 C 
HETATM    7  N   UNL     1      44.844 -18.663   6.407  1.00  0.00    -0.191 NA
HETATM    8  C   UNL     1      43.508 -19.225   3.137  1.00  0.00     0.057 A 
HETATM    9  C   UNL     1      43.155 -20.005   2.019  1.00  0.00     0.034 A 
ENDROOT
BRANCH   8  10
HETATM   10  N   UNL     1      42.913 -17.938   3.186  1.00  0.00    -0.308 N 
HETATM   11  C   UNL     1      43.391 -16.781   2.628  1.00  0.00     0.321 C 
HETATM   12  N   UNL     1      42.710 -15.681   3.093  1.00  0.00    -0.336 N 
HETATM   13  O   UNL     1      44.300 -16.673   1.815  1.00  0.00    -0.247 OA
HETATM   14  H   UNL     1      42.200 -15.819   3.958  1.00  0.00     0.164 HD
HETATM   15  H   UNL     1      41.915 -17.922   3.361  1.00  0.00     0.170 HD
BRANCH  12  16
HETATM   16  C   UNL     1      43.003 -14.298   2.707  1.00  0.00     0.118 C 
HETATM   17  C   UNL     1      42.027 -13.636   1.715  1.00  0.00     0.210 C 
HETATM   18  N   UNL     1      40.977 -13.049   2.614  1.00  0.00    -0.065 N 
HETATM   19  C   UNL     1      41.354 -14.492   0.653  1.00  0.00     0.035 C 
HETATM   20  H   UNL     1      40.445 -13.852   3.025  1.00  0.00     0.280 HD
HETATM   21  C   UNL     1      40.010 -12.159   1.913  1.00  0.00     0.235 C 
HETATM   22  C   UNL     1      41.738 -12.456   3.760  1.00  0.00     0.237 C 
HETATM   23  C   UNL     1      39.336 -12.944   0.793  1.00  0.00     0.028 C 
HETATM   24  C   UNL     1      40.333 -13.655  -0.126  1.00  0.00     0.004 C 
HETATM   25  C   UNL     1      42.981 -13.338   3.909  1.00  0.00     0.055 C 
ENDBRANCH  12  16
ENDBRANCH   8  10
TORSDOF 2
ENDMDL
MODEL 5
REMARK VINA RESULT:      -7.7      6.068      8.980
REMARK  2 active torsions:
REMARK  status: ('A' for Active; 'I' for Inactive)
REMARK    1  A    between atoms: C_8  and  N_9 
REMARK       I    between atoms: N_9  and  C_10 
REMARK       I    between atoms: C_10  and  N_11 
REMARK    2  A    between atoms: N_11  and  C_12 
ROOT
HETATM    1  C   UNL     1      45.003 -18.498   5.917  1.00  0.00     0.044 A 
HETATM    2  C   UNL     1      44.441 -18.624   4.657  1.00  0.00     0.117 A 
HETATM    3  F   UNL     1      44.730 -19.697   3.910  1.00  0.00    -0.206 F 
HETATM    4  C   UNL     1      43.604 -17.641   4.149  1.00  0.00     0.067 A 
HETATM    5  C   UNL     1      43.304 -16.499   4.912  1.00  0.00     0.074 A 
HETATM    6  C   UNL     1      42.552 -15.467   4.259  1.00  0.00     0.102 C 
HETATM    7  N   UNL     1      41.966 -14.625   3.715  1.00  0.00    -0.191 NA
HETATM    8  C   UNL     1      43.841 -16.370   6.211  1.00  0.00     0.057 A 
HETATM    9  C   UNL     1      44.709 -17.372   6.688  1.00  0.00     0.034 A 
ENDROOT
BRANCH   8  10
HETATM   10  N   UNL     1      43.647 -15.273   7.089  1.00  0.00    -0.308 N 
HETATM   11  C   UNL     1      44.409 -14.136   7.177  1.00  0.00     0.321 C 
HETATM   12  N   UNL     1      44.101 -13.414   8.306  1.00  0.00    -0.336 N 
HETATM   13  O   UNL     1      45.265 -13.757   6.388  1.00  0.00    -0.247 OA
HETATM   14  H   UNL     1      43.622 -13.929   9.035  1.00  0.00     0.164 HD
HETATM   15  H   UNL     1      42.708 -15.162   7.452  1.00  0.00     0.170 HD
BRANCH  12  16
HETATM   16  C   UNL     1      44.760 -12.165   8.697  1.00  0.00     0.118 C 
HETATM   17  C   UNL     1      43.840 -10.996   9.103  1.00  0.00     0.210 C 
HETATM   18  N   UNL     1      43.635 -11.223  10.573  1.00  0.00    -0.065 N 
HETATM   19  C   UNL     1      42.487 -10.847   8.427  1.00  0.00     0.035 C 
HETATM   20  H   UNL     1      43.043 -12.081  10.669  1.00  0.00     0.280 HD
HETATM   21  C   UNL     1      42.944 -10.100  11.267  1.00  0.00     0.235 C 
HETATM   22  C   UNL     1      44.984 -11.616  11.096  1.00  0.00     0.237 C 
HETATM   23  C   UNL     1      41.595  -9.860  10.599  1.00  0.00     0.028 C 
HETATM   24  C   UNL     1      41.697  -9.706   9.078  1.00  0.00     0.004 C 
HETATM   25  C   UNL     1      45.663 -12.341   9.930  1.00  0.00     0.055 C 
ENDBRANCH  12  16
ENDBRANCH   8  10
TORSDOF 2
ENDMDL
MODEL 6
REMARK VINA RESULT:      -7.7      1.492      2.465
REMARK  2 active torsions:
REMARK  status: ('A' for Active; 'I' for Inactive)
REMARK    1  A    between atoms: C_8  and  N_9 
REMARK       I    between atoms: N_9  and  C_10 
REMARK       I    between atoms: C_10  and  N_11 
REMARK    2  A    between atoms: N_11  and  C_12 
ROOT
HETATM    1  C   UNL     1      41.583 -17.022   6.368  1.00  0.00     0.044 A 
HETATM    2  C   UNL     1      42.598 -17.963   6.316  1.00  0.00     0.117 A 
HETATM    3  F   UNL     1      43.223 -18.323   7.444  1.00  0.00    -0.206 F 
HETATM    4  C   UNL     1      42.995 -18.517   5.107  1.00  0.00     0.067 A 
HETATM    5  C   UNL     1      42.363 -18.136   3.911  1.00  0.00     0.074 A 
HETATM    6  C   UNL     1      42.927 -18.645   2.694  1.00  0.00     0.102 C 
HETATM    7  N   UNL     1      43.406 -19.039   1.712  1.00  0.00    -0.191 NA
HETATM    8  C   UNL     1      41.304 -17.203   3.949  1.00  0.00     0.057 A 
HETATM    9  C   UNL     1      40.943 -16.639   5.188  1.00  0.00     0.034 A 
ENDROOT
BRANCH   8  10
HETATM   10  N   UNL     1      40.586 -16.709   2.830  1.00  0.00    -0.308 N 
HETATM   11  C   UNL     1      40.871 -15.591   2.089  1.00  0.00     0.321 C 
HETATM   12  N   UNL     1      39.828 -15.262   1.257  1.00  0.00    -0.336 N 
HETATM   13  O   UNL     1      41.901 -14.930   2.116  1.00  0.00    -0.247 OA
HETATM   14  H   UNL     1      38.930 -15.660   1.507  1.00  0.00     0.164 HD
HETATM   15  H   UNL     1      40.018 -17.388   2.338  1.00  0.00     0.170 HD
BRANCH  12  16
HETATM   16  C   UNL     1      39.815 -14.103   0.360  1.00  0.00     0.118 C 
HETATM   17  C   UNL     1      40.105 -14.379  -1.129  1.00  0.00     0.210 C 
HETATM   18  N   UNL     1      38.745 -14.689  -1.685  1.00  0.00    -0.065 N 
HETATM   19  C   UNL     1      41.065 -15.497  -1.504  1.00  0.00     0.035 C 
HETATM   20  H   UNL     1      38.457 -15.614  -1.287  1.00  0.00     0.280 HD
HETATM   21  C   UNL     1      38.708 -14.789  -3.172  1.00  0.00     0.235 C 
HETATM   22  C   UNL     1      37.829 -13.688  -1.050  1.00  0.00     0.237 C 
HETATM   23  C   UNL     1      39.695 -15.861  -3.621  1.00  0.00     0.028 C 
HETATM   24  C   UNL     1      41.094 -15.675  -3.026  1.00  0.00     0.004 C 
HETATM   25  C   UNL     1      38.444 -13.405   0.324  1.00  0.00     0.055 C 
ENDBRANCH  12  16
ENDBRANCH   8  10
TORSDOF 2
ENDMDL
MODEL 7
REMARK VINA RESULT:      -7.5      3.437      7.676
REMARK  2 active torsions:
REMARK  status: ('A' for Active; 'I' for Inactive)
REMARK    1  A    between atoms: C_8  and  N_9 
REMARK       I    between atoms: N_9  and  C_10 
REMARK       I    between atoms: C_10  and  N_11 
REMARK    2  A    between atoms: N_11  and  C_12 
ROOT
HETATM    1  C   UNL     1      40.283 -14.661  -3.243  1.00  0.00     0.044 A 
HETATM    2  C   UNL     1      40.148 -13.296  -3.051  1.00  0.00     0.117 A 
HETATM    3  F   UNL     1      39.555 -12.553  -3.993  1.00  0.00    -0.206 F 
HETATM    4  C   UNL     1      40.644 -12.685  -1.907  1.00  0.00     0.067 A 
HETATM    5  C   UNL     1      41.287 -13.448  -0.917  1.00  0.00     0.074 A 
HETATM    6  C   UNL     1      41.897 -12.723   0.160  1.00  0.00     0.102 C 
HETATM    7  N   UNL     1      42.411 -12.127   1.013  1.00  0.00    -0.191 NA
HETATM    8  C   UNL     1      41.403 -14.846  -1.081  1.00  0.00     0.057 A 
HETATM    9  C   UNL     1      40.913 -15.432  -2.264  1.00  0.00     0.034 A 
ENDROOT
BRANCH   8  10
HETATM   10  N   UNL     1      42.039 -15.741  -0.183  1.00  0.00    -0.308 N 
HETATM   11  C   UNL     1      41.481 -16.361   0.905  1.00  0.00     0.321 C 
HETATM   12  N   UNL     1      42.443 -16.941   1.698  1.00  0.00    -0.336 N 
HETATM   13  O   UNL     1      40.292 -16.428   1.188  1.00  0.00    -0.247 OA
HETATM   14  H   UNL     1      43.385 -16.592   1.566  1.00  0.00     0.164 HD
HETATM   15  H   UNL     1      42.861 -16.212  -0.542  1.00  0.00     0.170 HD
BRANCH  12  16
HETATM   16  C   UNL     1      42.168 -17.655   2.948  1.00  0.00     0.118 C 
HETATM   17  C   UNL     1      42.826 -19.039   3.113  1.00  0.00     0.210 C 
HETATM   18  N   UNL     1      44.159 -18.708   3.720  1.00  0.00    -0.065 N 
HETATM   19  C   UNL     1      43.038 -19.910   1.885  1.00  0.00     0.035 C 
HETATM   20  H   UNL     1      44.720 -18.226   2.979  1.00  0.00     0.280 HD
HETATM   21  C   UNL     1      44.924 -19.901   4.183  1.00  0.00     0.235 C 
HETATM   22  C   UNL     1      43.867 -17.651   4.741  1.00  0.00     0.237 C 
HETATM   23  C   UNL     1      45.125 -20.848   3.006  1.00  0.00     0.028 C 
HETATM   24  C   UNL     1      43.823 -21.171   2.266  1.00  0.00     0.004 C 
HETATM   25  C   UNL     1      42.664 -16.884   4.184  1.00  0.00     0.055 C 
ENDBRANCH  12  16
ENDBRANCH   8  10
TORSDOF 2
ENDMDL
MODEL 8
REMARK VINA RESULT:      -7.4      2.434      3.004
REMARK  2 active torsions:
REMARK  status: ('A' for Active; 'I' for Inactive)
REMARK    1  A    between atoms: C_8  and  N_9 
REMARK       I    between atoms: N_9  and  C_10 
REMARK       I    between atoms: C_10  and  N_11 
REMARK    2  A    between atoms: N_11  and  C_12 
ROOT
HETATM    1  C   UNL     1      43.714 -21.302   1.861  1.00  0.00     0.044 A 
HETATM    2  C   UNL     1      44.386 -21.730   2.994  1.00  0.00     0.117 A 
HETATM    3  F   UNL     1      44.712 -23.022   3.120  1.00  0.00    -0.206 F 
HETATM    4  C   UNL     1      44.700 -20.841   4.014  1.00  0.00     0.067 A 
HETATM    5  C   UNL     1      44.348 -19.485   3.907  1.00  0.00     0.074 A 
HETATM    6  C   UNL     1      44.579 -18.667   5.062  1.00  0.00     0.102 C 
HETATM    7  N   UNL     1      44.744 -18.017   6.011  1.00  0.00    -0.191 NA
HETATM    8  C   UNL     1      43.693 -19.025   2.744  1.00  0.00     0.057 A 
HETATM    9  C   UNL     1      43.364 -19.956   1.739  1.00  0.00     0.034 A 
ENDROOT
BRANCH   8  10
HETATM   10  N   UNL     1      43.259 -17.697   2.500  1.00  0.00    -0.308 N 
HETATM   11  C   UNL     1      42.134 -17.088   2.993  1.00  0.00     0.321 C 
HETATM   12  N   UNL     1      41.883 -15.901   2.346  1.00  0.00    -0.336 N 
HETATM   13  O   UNL     1      41.407 -17.494   3.890  1.00  0.00    -0.247 OA
HETATM   14  H   UNL     1      42.335 -15.792   1.446  1.00  0.00     0.164 HD
HETATM   15  H   UNL     1      43.979 -17.046   2.211  1.00  0.00     0.170 HD
BRANCH  12  16
HETATM   16  C   UNL     1      40.738 -15.030   2.625  1.00  0.00     0.118 C 
HETATM   17  C   UNL     1      40.763 -13.629   1.982  1.00  0.00     0.210 C 
HETATM   18  N   UNL     1      40.123 -13.861   0.644  1.00  0.00    -0.065 N 
HETATM   19  C   UNL     1      42.096 -12.927   1.784  1.00  0.00     0.035 C 
HETATM   20  H   UNL     1      40.796 -14.432   0.080  1.00  0.00     0.280 HD
HETATM   21  C   UNL     1      39.828 -12.609  -0.109  1.00  0.00     0.235 C 
HETATM   22  C   UNL     1      38.969 -14.776   0.919  1.00  0.00     0.237 C 
HETATM   23  C   UNL     1      41.122 -11.826  -0.296  1.00  0.00     0.028 C 
HETATM   24  C   UNL     1      41.891 -11.619   1.013  1.00  0.00     0.004 C 
HETATM   25  C   UNL     1      39.413 -15.624   2.115  1.00  0.00     0.055 C 
ENDBRANCH  12  16
ENDBRANCH   8  10
TORSDOF 2
ENDMDL
MODEL 9
REMARK VINA RESULT:      -7.3      1.950      2.463
REMARK  2 active torsions:
REMARK  status: ('A' for Active; 'I' for Inactive)
REMARK    1  A    between atoms: C_8  and  N_9 
REMARK       I    between atoms: N_9  and  C_10 
REMARK       I    between atoms: C_10  and  N_11 
REMARK    2  A    between atoms: N_11  and  C_12 
ROOT
HETATM    1  C   UNL     1      42.366 -18.275   5.195  1.00  0.00     0.044 A 
HETATM    2  C   UNL     1      42.371 -17.530   6.363  1.00  0.00     0.117 A 
HETATM    3  F   UNL     1      43.006 -18.001   7.443  1.00  0.00    -0.206 F 
HETATM    4  C   UNL     1      41.704 -16.315   6.435  1.00  0.00     0.067 A 
HETATM    5  C   UNL     1      41.017 -15.815   5.316  1.00  0.00     0.074 A 
HETATM    6  C   UNL     1      40.236 -14.629   5.517  1.00  0.00     0.102 C 
HETATM    7  N   UNL     1      39.584 -13.684   5.695  1.00  0.00    -0.191 NA
HETATM    8  C   UNL     1      41.029 -16.545   4.108  1.00  0.00     0.057 A 
HETATM    9  C   UNL     1      41.692 -17.787   4.074  1.00  0.00     0.034 A 
ENDROOT
BRANCH   8  10
HETATM   10  N   UNL     1      40.368 -16.181   2.906  1.00  0.00    -0.308 N 
HETATM   11  C   UNL     1      40.666 -15.127   2.082  1.00  0.00     0.321 C 
HETATM   12  N   UNL     1      39.667 -14.913   1.162  1.00  0.00    -0.336 N 
HETATM   13  O   UNL     1      41.672 -14.430   2.108  1.00  0.00    -0.247 OA
HETATM   14  H   UNL     1      38.768 -15.318   1.395  1.00  0.00     0.164 HD
HETATM   15  H   UNL     1      39.853 -16.923   2.447  1.00  0.00     0.170 HD
BRANCH  12  16
HETATM   16  C   UNL     1      39.677 -13.843   0.161  1.00  0.00     0.118 C 
HETATM   17  C   UNL     1      40.017 -14.254  -1.286  1.00  0.00     0.210 C 
HETATM   18  N   UNL     1      38.678 -14.627  -1.854  1.00  0.00    -0.065 N 
HETATM   19  C   UNL     1      40.996 -15.392  -1.524  1.00  0.00     0.035 C 
HETATM   20  H   UNL     1      38.383 -15.514  -1.381  1.00  0.00     0.280 HD
HETATM   21  C   UNL     1      38.691 -14.865  -3.325  1.00  0.00     0.235 C 
HETATM   22  C   UNL     1      37.735 -13.580  -1.344  1.00  0.00     0.237 C 
HETATM   23  C   UNL     1      39.699 -15.964  -3.640  1.00  0.00     0.028 C 
HETATM   24  C   UNL     1      41.077 -15.710  -3.021  1.00  0.00     0.004 C 
HETATM   25  C   UNL     1      38.303 -13.165   0.017  1.00  0.00     0.055 C 
ENDBRANCH  12  16
ENDBRANCH   8  10
TORSDOF 2
ENDMDL
MODEL 10
REMARK VINA RESULT:      -7.2      7.841      9.346
REMARK  2 active torsions:
REMARK  status: ('A' for Active; 'I' for Inactive)
REMARK    1  A    between atoms: C_8  and  N_9 
REMARK       I    between atoms: N_9  and  C_10 
REMARK       I    between atoms: C_10  and  N_11 
REMARK    2  A    between atoms: N_11  and  C_12 
ROOT
HETATM    1  C   UNL     1      41.579 -10.315  12.428  1.00  0.00     0.044 A 
HETATM    2  C   UNL     1      42.835 -10.026  12.937  1.00  0.00     0.117 A 
HETATM    3  F   UNL     1      42.948  -9.555  14.185  1.00  0.00    -0.206 F 
HETATM    4  C   UNL     1      43.974 -10.193  12.161  1.00  0.00     0.067 A 
HETATM    5  C   UNL     1      43.870 -10.669  10.843  1.00  0.00     0.074 A 
HETATM    6  C   UNL     1      45.075 -10.675  10.064  1.00  0.00     0.102 C 
HETATM    7  N   UNL     1      46.049 -10.651   9.432  1.00  0.00    -0.191 NA
HETATM    8  C   UNL     1      42.602 -11.000  10.319  1.00  0.00     0.057 A 
HETATM    9  C   UNL     1      41.463 -10.794  11.122  1.00  0.00     0.034 A 
ENDROOT
BRANCH   8  10
HETATM   10  N   UNL     1      42.337 -11.470   9.007  1.00  0.00    -0.308 N 
HETATM   11  C   UNL     1      42.014 -10.719   7.906  1.00  0.00     0.321 C 
HETATM   12  N   UNL     1      41.565 -11.511   6.876  1.00  0.00    -0.336 N 
HETATM   13  O   UNL     1      42.095  -9.503   7.791  1.00  0.00    -0.247 OA
HETATM   14  H   UNL     1      41.248 -12.435   7.143  1.00  0.00     0.164 HD
HETATM   15  H   UNL     1      42.723 -12.379   8.780  1.00  0.00     0.170 HD
BRANCH  12  16
HETATM   16  C   UNL     1      41.116 -11.004   5.576  1.00  0.00     0.118 C 
HETATM   17  C   UNL     1      41.289 -11.948   4.369  1.00  0.00     0.210 C 
HETATM   18  N   UNL     1      40.015 -12.744   4.378  1.00  0.00    -0.065 N 
HETATM   19  C   UNL     1      42.473 -12.901   4.336  1.00  0.00     0.035 C 
HETATM   20  H   UNL     1      40.051 -13.366   5.219  1.00  0.00     0.280 HD
HETATM   21  C   UNL     1      39.829 -13.599   3.172  1.00  0.00     0.235 C 
HETATM   22  C   UNL     1      38.938 -11.745   4.676  1.00  0.00     0.237 C 
HETATM   23  C   UNL     1      41.016 -14.547   3.048  1.00  0.00     0.028 C 
HETATM   24  C   UNL     1      42.367 -13.828   3.120  1.00  0.00     0.004 C 
HETATM   25  C   UNL     1      39.610 -10.689   5.558  1.00  0.00     0.055 C 
ENDBRANCH  12  16
ENDBRANCH   8  10
TORSDOF 2
ENDMDL
