MODEL 1
REMARK VINA RESULT:     -10.1      0.000      0.000
REMARK  8 active torsions:
REMARK  status: ('A' for Active; 'I' for Inactive)
REMARK    1  A    between atoms: C_7  and  C_8 
REMARK       I    between atoms: C_8  and  N_9 
REMARK    2  A    between atoms: N_9  and  N_10 
REMARK    3  A    between atoms: N_10  and  C_11 
REMARK    4  A    between atoms: C_11  and  N_12 
REMARK    5  A    between atoms: N_12  and  C_13 
REMARK    6  A    between atoms: N_15  and  C_16 
REMARK    7  A    between atoms: C_16  and  C_17 
REMARK    8  A    between atoms: C_29  and  C_30 
ROOT
HETATM    1  C   UNL     1      44.889 -11.641   9.219  1.00  0.00     0.290 C 
HETATM    2  N   UNL     1      44.376 -12.817   8.706  1.00  0.00    -0.262 N 
HETATM    3  O   UNL     1      45.870 -11.053   8.772  1.00  0.00    -0.264 OA
HETATM    4  H   UNL     1      43.503 -13.176   9.093  1.00  0.00     0.190 HD
ENDROOT
BRANCH   2   5
HETATM    5  N   UNL     1      44.866 -13.377   7.528  1.00  0.00    -0.273 N 
HETATM    6  H   UNL     1      45.878 -13.340   7.362  1.00  0.00     0.189 HD
BRANCH   5   7
HETATM    7  C   UNL     1      44.109 -14.236   6.778  1.00  0.00     0.192 C 
HETATM    8  S   UNL     1      43.701 -13.988   5.168  1.00  0.00    -0.039 SA
BRANCH   7   9
HETATM    9  N   UNL     1      43.645 -15.368   7.383  1.00  0.00    -0.315 N 
HETATM   10  H   UNL     1      43.295 -15.244   8.323  1.00  0.00     0.170 HD
BRANCH   9  11
HETATM   11  C   UNL     1      43.673 -16.657   6.899  1.00  0.00     0.151 A 
HETATM   12  N   UNL     1      44.755 -17.253   6.389  1.00  0.00    -0.154 NA
HETATM   13  N   UNL     1      44.334 -18.496   6.072  1.00  0.00    -0.275 N 
HETATM   14  C   UNL     1      43.014 -18.703   6.355  1.00  0.00     0.116 A 
HETATM   15  C   UNL     1      42.555 -17.523   6.889  1.00  0.00     0.071 A 
BRANCH  13  16
HETATM   16  C   UNL     1      45.238 -19.432   5.417  1.00  0.00     0.192 C 
BRANCH  16  17
HETATM   17  C   UNL     1      44.653 -19.972   4.143  1.00  0.00     0.000 A 
HETATM   18  C   UNL     1      44.707 -21.340   3.866  1.00  0.00     0.124 A 
HETATM   19  F   UNL     1      45.276 -22.176   4.748  1.00  0.00    -0.205 F 
HETATM   20  C   UNL     1      44.174 -21.864   2.692  1.00  0.00     0.043 A 
HETATM   21  C   UNL     1      43.574 -21.010   1.768  1.00  0.00     0.003 A 
HETATM   22  C   UNL     1      43.519 -19.639   2.023  1.00  0.00     0.001 A 
HETATM   23  C   UNL     1      44.061 -19.120   3.202  1.00  0.00     0.012 A 
ENDBRANCH  16  17
ENDBRANCH  13  16
ENDBRANCH   9  11
ENDBRANCH   7   9
ENDBRANCH   5   7
ENDBRANCH   2   5
BRANCH   1  24
HETATM   24  C   UNL     1      44.119 -11.167  10.381  1.00  0.00     0.150 A 
HETATM   25  N   UNL     1      42.810 -11.476  10.535  1.00  0.00    -0.165 NA
HETATM   26  N   UNL     1      42.474 -10.869  11.684  1.00  0.00    -0.240 N 
HETATM   27  C   UNL     1      43.508 -10.217  12.294  1.00  0.00     0.123 A 
HETATM   28  C   UNL     1      41.134 -10.967  12.232  1.00  0.00     0.221 C 
HETATM   29  N   UNL     1      43.350  -9.610  13.494  1.00  0.00    -0.371 N 
HETATM   30  C   UNL     1      44.589 -10.373  11.465  1.00  0.00     0.089 A 
HETATM   31  C   UNL     1      42.021  -9.464  14.084  1.00  0.00     0.081 C 
HETATM   32  H   UNL     1      44.061  -8.959  13.825  1.00  0.00     0.161 HD
HETATM   33  C   UNL     1      42.156  -9.300  15.594  1.00  0.00     0.032 C 
HETATM   34  C   UNL     1      41.171 -10.702  13.749  1.00  0.00     0.061 C 
BRANCH  28  35
HETATM   35  C   UNL     1      40.207 -10.017  11.505  1.00  0.00     0.409 C 
HETATM   36  F   UNL     1      39.631 -10.576  10.419  1.00  0.00    -0.169 F 
HETATM   37  F   UNL     1      39.190  -9.650  12.331  1.00  0.00    -0.169 F 
HETATM   38  F   UNL     1      40.813  -8.877  11.111  1.00  0.00    -0.169 F 
ENDBRANCH  28  35
ENDBRANCH   1  24
TORSDOF 8
ENDMDL
MODEL 2
REMARK VINA RESULT:      -9.9      2.995      3.626
REMARK  8 active torsions:
REMARK  status: ('A' for Active; 'I' for Inactive)
REMARK    1  A    between atoms: C_7  and  C_8 
REMARK       I    between atoms: C_8  and  N_9 
REMARK    2  A    between atoms: N_9  and  N_10 
REMARK    3  A    between atoms: N_10  and  C_11 
REMARK    4  A    between atoms: C_11  and  N_12 
REMARK    5  A    between atoms: N_12  and  C_13 
REMARK    6  A    between atoms: N_15  and  C_16 
REMARK    7  A    between atoms: C_16  and  C_17 
REMARK    8  A    between atoms: C_29  and  C_30 
ROOT
HETATM    1  C   UNL     1      39.566 -11.235   7.962  1.00  0.00     0.290 C 
HETATM    2  N   UNL     1      39.834 -12.445   7.354  1.00  0.00    -0.262 N 
HETATM    3  O   UNL     1      38.746 -10.415   7.557  1.00  0.00    -0.264 OA
HETATM    4  H   UNL     1      40.467 -13.094   7.822  1.00  0.00     0.190 HD
ENDROOT
BRANCH   2   5
HETATM    5  N   UNL     1      39.081 -12.905   6.275  1.00  0.00    -0.273 N 
HETATM    6  H   UNL     1      38.246 -12.371   6.008  1.00  0.00     0.189 HD
BRANCH   5   7
HETATM    7  C   UNL     1      39.587 -13.819   5.390  1.00  0.00     0.192 C 
HETATM    8  S   UNL     1      39.835 -13.525   3.755  1.00  0.00    -0.039 SA
BRANCH   7   9
HETATM    9  N   UNL     1      39.902 -15.058   5.867  1.00  0.00    -0.315 N 
HETATM   10  H   UNL     1      39.149 -15.549   6.328  1.00  0.00     0.170 HD
BRANCH   9  11
HETATM   11  C   UNL     1      41.133 -15.676   5.866  1.00  0.00     0.151 A 
HETATM   12  N   UNL     1      41.318 -16.999   5.852  1.00  0.00    -0.154 NA
HETATM   13  N   UNL     1      42.660 -17.149   5.830  1.00  0.00    -0.275 N 
HETATM   14  C   UNL     1      43.332 -15.960   5.840  1.00  0.00     0.116 A 
HETATM   15  C   UNL     1      42.366 -14.983   5.870  1.00  0.00     0.071 A 
BRANCH  13  16
HETATM   16  C   UNL     1      43.250 -18.480   5.878  1.00  0.00     0.192 C 
BRANCH  16  17
HETATM   17  C   UNL     1      43.486 -19.034   4.502  1.00  0.00     0.000 A 
HETATM   18  C   UNL     1      44.399 -20.073   4.306  1.00  0.00     0.124 A 
HETATM   19  F   UNL     1      45.061 -20.583   5.355  1.00  0.00    -0.205 F 
HETATM   20  C   UNL     1      44.635 -20.602   3.040  1.00  0.00     0.043 A 
HETATM   21  C   UNL     1      43.951 -20.087   1.941  1.00  0.00     0.003 A 
HETATM   22  C   UNL     1      43.043 -19.042   2.115  1.00  0.00     0.001 A 
HETATM   23  C   UNL     1      42.814 -18.513   3.388  1.00  0.00     0.012 A 
ENDBRANCH  16  17
ENDBRANCH  13  16
ENDBRANCH   9  11
ENDBRANCH   7   9
ENDBRANCH   5   7
ENDBRANCH   2   5
BRANCH   1  24
HETATM   24  C   UNL     1      40.390 -11.030   9.166  1.00  0.00     0.150 A 
HETATM   25  N   UNL     1      41.674 -10.613   9.080  1.00  0.00    -0.165 NA
HETATM   26  N   UNL     1      42.075 -10.555  10.359  1.00  0.00    -0.240 N 
HETATM   27  C   UNL     1      41.104 -10.879  11.264  1.00  0.00     0.123 A 
HETATM   28  C   UNL     1      43.414 -10.125  10.717  1.00  0.00     0.221 C 
HETATM   29  N   UNL     1      41.328 -10.806  12.596  1.00  0.00    -0.371 N 
HETATM   30  C   UNL     1      40.000 -11.212  10.522  1.00  0.00     0.089 A 
HETATM   31  C   UNL     1      42.675 -10.568  13.112  1.00  0.00     0.081 C 
HETATM   32  H   UNL     1      40.674 -11.248  13.241  1.00  0.00     0.161 HD
HETATM   33  C   UNL     1      42.580  -9.974  14.514  1.00  0.00     0.032 C 
HETATM   34  C   UNL     1      43.423  -9.609  12.169  1.00  0.00     0.061 C 
BRANCH  28  35
HETATM   35  C   UNL     1      44.396 -11.255  10.502  1.00  0.00     0.409 C 
HETATM   36  F   UNL     1      43.907 -12.454  10.887  1.00  0.00    -0.169 F 
HETATM   37  F   UNL     1      44.682 -11.366   9.177  1.00  0.00    -0.169 F 
HETATM   38  F   UNL     1      45.573 -11.067  11.136  1.00  0.00    -0.169 F 
ENDBRANCH  28  35
ENDBRANCH   1  24
TORSDOF 8
ENDMDL
MODEL 3
REMARK VINA RESULT:      -9.7      3.480      4.143
REMARK  8 active torsions:
REMARK  status: ('A' for Active; 'I' for Inactive)
REMARK    1  A    between atoms: C_7  and  C_8 
REMARK       I    between atoms: C_8  and  N_9 
REMARK    2  A    between atoms: N_9  and  N_10 
REMARK    3  A    between atoms: N_10  and  C_11 
REMARK    4  A    between atoms: C_11  and  N_12 
REMARK    5  A    between atoms: N_12  and  C_13 
REMARK    6  A    between atoms: N_15  and  C_16 
REMARK    7  A    between atoms: C_16  and  C_17 
REMARK    8  A    between atoms: C_29  and  C_30 
ROOT
HETATM    1  C   UNL     1      39.739 -11.229   7.826  1.00  0.00     0.290 C 
HETATM    2  N   UNL     1      39.831 -12.520   7.344  1.00  0.00    -0.262 N 
HETATM    3  O   UNL     1      39.093 -10.329   7.296  1.00  0.00    -0.264 OA
HETATM    4  H   UNL     1      40.320 -13.216   7.909  1.00  0.00     0.190 HD
ENDROOT
BRANCH   2   5
HETATM    5  N   UNL     1      39.071 -12.953   6.260  1.00  0.00    -0.273 N 
HETATM    6  H   UNL     1      38.064 -12.756   6.268  1.00  0.00     0.189 HD
BRANCH   5   7
HETATM    7  C   UNL     1      39.657 -13.320   5.078  1.00  0.00     0.192 C 
HETATM    8  S   UNL     1      40.209 -12.243   3.913  1.00  0.00    -0.039 SA
BRANCH   7   9
HETATM    9  N   UNL     1      39.793 -14.654   4.825  1.00  0.00    -0.315 N 
HETATM   10  H   UNL     1      39.336 -15.269   5.484  1.00  0.00     0.170 HD
BRANCH   9  11
HETATM   11  C   UNL     1      40.540 -15.254   3.834  1.00  0.00     0.151 A 
HETATM   12  N   UNL     1      41.847 -15.516   3.923  1.00  0.00    -0.154 NA
HETATM   13  N   UNL     1      42.146 -16.121   2.754  1.00  0.00    -0.275 N 
HETATM   14  C   UNL     1      41.070 -16.241   1.922  1.00  0.00     0.116 A 
HETATM   15  C   UNL     1      40.011 -15.681   2.595  1.00  0.00     0.071 A 
BRANCH  13  16
HETATM   16  C   UNL     1      43.521 -16.499   2.454  1.00  0.00     0.192 C 
BRANCH  16  17
HETATM   17  C   UNL     1      43.762 -17.962   2.699  1.00  0.00     0.000 A 
HETATM   18  C   UNL     1      44.135 -18.413   3.967  1.00  0.00     0.124 A 
HETATM   19  F   UNL     1      44.270 -17.536   4.972  1.00  0.00    -0.205 F 
HETATM   20  C   UNL     1      44.365 -19.763   4.217  1.00  0.00     0.043 A 
HETATM   21  C   UNL     1      44.224 -20.688   3.184  1.00  0.00     0.003 A 
HETATM   22  C   UNL     1      43.861 -20.255   1.909  1.00  0.00     0.001 A 
HETATM   23  C   UNL     1      43.636 -18.898   1.664  1.00  0.00     0.012 A 
ENDBRANCH  16  17
ENDBRANCH  13  16
ENDBRANCH   9  11
ENDBRANCH   7   9
ENDBRANCH   5   7
ENDBRANCH   2   5
BRANCH   1  24
HETATM   24  C   UNL     1      40.520 -11.047   9.062  1.00  0.00     0.150 A 
HETATM   25  N   UNL     1      41.825 -10.691   9.027  1.00  0.00    -0.165 NA
HETATM   26  N   UNL     1      42.174 -10.634  10.321  1.00  0.00    -0.240 N 
HETATM   27  C   UNL     1      41.150 -10.902  11.187  1.00  0.00     0.123 A 
HETATM   28  C   UNL     1      43.514 -10.262  10.732  1.00  0.00     0.221 C 
HETATM   29  N   UNL     1      41.321 -10.822  12.527  1.00  0.00    -0.371 N 
HETATM   30  C   UNL     1      40.065 -11.194  10.402  1.00  0.00     0.089 A 
HETATM   31  C   UNL     1      42.654 -10.639  13.097  1.00  0.00     0.081 C 
HETATM   32  H   UNL     1      40.620 -11.225  13.148  1.00  0.00     0.161 HD
HETATM   33  C   UNL     1      42.527 -10.023  14.488  1.00  0.00     0.032 C 
HETATM   34  C   UNL     1      43.486  -9.729  12.177  1.00  0.00     0.061 C 
BRANCH  28  35
HETATM   35  C   UNL     1      44.451 -11.439  10.573  1.00  0.00     0.409 C 
HETATM   36  F   UNL     1      44.648 -11.780   9.281  1.00  0.00    -0.169 F 
HETATM   37  F   UNL     1      45.675 -11.121  11.075  1.00  0.00    -0.169 F 
HETATM   38  F   UNL     1      44.039 -12.543  11.233  1.00  0.00    -0.169 F 
ENDBRANCH  28  35
ENDBRANCH   1  24
TORSDOF 8
ENDMDL
MODEL 4
REMARK VINA RESULT:      -9.6      3.271      4.202
REMARK  8 active torsions:
REMARK  status: ('A' for Active; 'I' for Inactive)
REMARK    1  A    between atoms: C_7  and  C_8 
REMARK       I    between atoms: C_8  and  N_9 
REMARK    2  A    between atoms: N_9  and  N_10 
REMARK    3  A    between atoms: N_10  and  C_11 
REMARK    4  A    between atoms: C_11  and  N_12 
REMARK    5  A    between atoms: N_12  and  C_13 
REMARK    6  A    between atoms: N_15  and  C_16 
REMARK    7  A    between atoms: C_16  and  C_17 
REMARK    8  A    between atoms: C_29  and  C_30 
ROOT
HETATM    1  C   UNL     1      39.391 -12.533   6.562  1.00  0.00     0.290 C 
HETATM    2  N   UNL     1      39.965 -13.789   6.565  1.00  0.00    -0.262 N 
HETATM    3  O   UNL     1      38.682 -12.091   5.662  1.00  0.00    -0.264 OA
HETATM    4  H   UNL     1      40.462 -14.094   7.403  1.00  0.00     0.190 HD
ENDROOT
BRANCH   2   5
HETATM    5  N   UNL     1      39.672 -14.731   5.582  1.00  0.00    -0.273 N 
HETATM    6  H   UNL     1      38.912 -14.521   4.925  1.00  0.00     0.189 HD
BRANCH   5   7
HETATM    7  C   UNL     1      40.551 -15.734   5.269  1.00  0.00     0.192 C 
HETATM    8  S   UNL     1      41.502 -16.550   6.387  1.00  0.00    -0.039 SA
BRANCH   7   9
HETATM    9  N   UNL     1      40.668 -16.088   3.956  1.00  0.00    -0.315 N 
HETATM   10  H   UNL     1      39.818 -16.031   3.414  1.00  0.00     0.170 HD
BRANCH   9  11
HETATM   11  C   UNL     1      41.780 -16.586   3.312  1.00  0.00     0.151 A 
HETATM   12  N   UNL     1      41.892 -17.834   2.847  1.00  0.00    -0.154 NA
HETATM   13  N   UNL     1      43.115 -17.870   2.278  1.00  0.00    -0.275 N 
HETATM   14  C   UNL     1      43.787 -16.685   2.377  1.00  0.00     0.116 A 
HETATM   15  C   UNL     1      42.947 -15.831   3.050  1.00  0.00     0.071 A 
BRANCH  13  16
HETATM   16  C   UNL     1      43.625 -19.111   1.712  1.00  0.00     0.192 C 
BRANCH  16  17
HETATM   17  C   UNL     1      44.061 -20.072   2.781  1.00  0.00     0.000 A 
HETATM   18  C   UNL     1      44.187 -21.434   2.498  1.00  0.00     0.124 A 
HETATM   19  F   UNL     1      43.926 -21.883   1.261  1.00  0.00    -0.205 F 
HETATM   20  C   UNL     1      44.587 -22.344   3.472  1.00  0.00     0.043 A 
HETATM   21  C   UNL     1      44.868 -21.893   4.761  1.00  0.00     0.003 A 
HETATM   22  C   UNL     1      44.739 -20.538   5.066  1.00  0.00     0.001 A 
HETATM   23  C   UNL     1      44.332 -19.631   4.083  1.00  0.00     0.012 A 
ENDBRANCH  16  17
ENDBRANCH  13  16
ENDBRANCH   9  11
ENDBRANCH   7   9
ENDBRANCH   5   7
ENDBRANCH   2   5
BRANCH   1  24
HETATM   24  C   UNL     1      39.733 -11.769   7.774  1.00  0.00     0.150 A 
HETATM   25  N   UNL     1      40.889 -11.072   7.866  1.00  0.00    -0.165 NA
HETATM   26  N   UNL     1      40.837 -10.531   9.093  1.00  0.00    -0.240 N 
HETATM   27  C   UNL     1      39.690 -10.816   9.780  1.00  0.00     0.123 A 
HETATM   28  C   UNL     1      41.896  -9.676   9.593  1.00  0.00     0.221 C 
HETATM   29  N   UNL     1      39.454 -10.293  11.005  1.00  0.00    -0.371 N 
HETATM   30  C   UNL     1      38.958 -11.636   8.960  1.00  0.00     0.089 A 
HETATM   31  C   UNL     1      40.501  -9.564  11.718  1.00  0.00     0.081 C 
HETATM   32  H   UNL     1      38.707 -10.680  11.581  1.00  0.00     0.161 HD
HETATM   33  C   UNL     1      39.859  -8.627  12.736  1.00  0.00     0.032 C 
HETATM   34  C   UNL     1      41.349  -8.768  10.710  1.00  0.00     0.061 C 
BRANCH  28  35
HETATM   35  C   UNL     1      43.066 -10.516  10.056  1.00  0.00     0.409 C 
HETATM   36  F   UNL     1      43.895 -10.860   9.047  1.00  0.00    -0.169 F 
HETATM   37  F   UNL     1      43.816  -9.807  10.942  1.00  0.00    -0.169 F 
HETATM   38  F   UNL     1      42.692 -11.648  10.689  1.00  0.00    -0.169 F 
ENDBRANCH  28  35
ENDBRANCH   1  24
TORSDOF 8
ENDMDL
MODEL 5
REMARK VINA RESULT:      -9.4      6.602     10.076
REMARK  8 active torsions:
REMARK  status: ('A' for Active; 'I' for Inactive)
REMARK    1  A    between atoms: C_7  and  C_8 
REMARK       I    between atoms: C_8  and  N_9 
REMARK    2  A    between atoms: N_9  and  N_10 
REMARK    3  A    between atoms: N_10  and  C_11 
REMARK    4  A    between atoms: C_11  and  N_12 
REMARK    5  A    between atoms: N_12  and  C_13 
REMARK    6  A    between atoms: N_15  and  C_16 
REMARK    7  A    between atoms: C_16  and  C_17 
REMARK    8  A    between atoms: C_29  and  C_30 
ROOT
HETATM    1  C   UNL     1      41.971 -13.518   2.270  1.00  0.00     0.290 C 
HETATM    2  N   UNL     1      41.085 -13.333   3.313  1.00  0.00    -0.262 N 
HETATM    3  O   UNL     1      43.193 -13.521   2.383  1.00  0.00    -0.264 OA
HETATM    4  H   UNL     1      40.087 -13.440   3.129  1.00  0.00     0.190 HD
ENDROOT
BRANCH   2   5
HETATM    5  N   UNL     1      41.517 -13.262   4.636  1.00  0.00    -0.273 N 
HETATM    6  H   UNL     1      42.306 -12.643   4.853  1.00  0.00     0.189 HD
BRANCH   5   7
HETATM    7  C   UNL     1      40.739 -13.717   5.667  1.00  0.00     0.192 C 
HETATM    8  S   UNL     1      39.503 -12.837   6.388  1.00  0.00    -0.039 SA
BRANCH   7   9
HETATM    9  N   UNL     1      40.991 -14.968   6.148  1.00  0.00    -0.315 N 
HETATM   10  H   UNL     1      40.813 -15.098   7.134  1.00  0.00     0.170 HD
BRANCH   9  11
HETATM   11  C   UNL     1      41.532 -16.041   5.472  1.00  0.00     0.151 A 
HETATM   12  N   UNL     1      42.602 -15.973   4.675  1.00  0.00    -0.154 NA
HETATM   13  N   UNL     1      42.787 -17.243   4.256  1.00  0.00    -0.275 N 
HETATM   14  C   UNL     1      41.859 -18.112   4.755  1.00  0.00     0.116 A 
HETATM   15  C   UNL     1      41.025 -17.359   5.546  1.00  0.00     0.071 A 
BRANCH  13  16
HETATM   16  C   UNL     1      43.841 -17.555   3.300  1.00  0.00     0.192 C 
BRANCH  16  17
HETATM   17  C   UNL     1      43.991 -19.036   3.099  1.00  0.00     0.000 A 
HETATM   18  C   UNL     1      44.676 -19.810   4.039  1.00  0.00     0.124 A 
HETATM   19  F   UNL     1      45.195 -19.227   5.130  1.00  0.00    -0.205 F 
HETATM   20  C   UNL     1      44.829 -21.184   3.874  1.00  0.00     0.043 A 
HETATM   21  C   UNL     1      44.291 -21.806   2.749  1.00  0.00     0.003 A 
HETATM   22  C   UNL     1      43.611 -21.048   1.795  1.00  0.00     0.001 A 
HETATM   23  C   UNL     1      43.465 -19.669   1.965  1.00  0.00     0.012 A 
ENDBRANCH  16  17
ENDBRANCH  13  16
ENDBRANCH   9  11
ENDBRANCH   7   9
ENDBRANCH   5   7
ENDBRANCH   2   5
BRANCH   1  24
HETATM   24  C   UNL     1      41.274 -13.711   0.986  1.00  0.00     0.150 A 
HETATM   25  N   UNL     1      41.942 -13.680  -0.190  1.00  0.00    -0.165 NA
HETATM   26  N   UNL     1      40.982 -13.884  -1.105  1.00  0.00    -0.240 N 
HETATM   27  C   UNL     1      39.738 -14.080  -0.575  1.00  0.00     0.123 A 
HETATM   28  C   UNL     1      41.283 -13.944  -2.523  1.00  0.00     0.221 C 
HETATM   29  N   UNL     1      38.673 -14.365  -1.360  1.00  0.00    -0.371 N 
HETATM   30  C   UNL     1      39.887 -13.955   0.782  1.00  0.00     0.089 A 
HETATM   31  C   UNL     1      38.777 -14.278  -2.815  1.00  0.00     0.081 C 
HETATM   32  H   UNL     1      37.731 -14.298  -0.974  1.00  0.00     0.161 HD
HETATM   33  C   UNL     1      37.706 -15.159  -3.450  1.00  0.00     0.032 C 
HETATM   34  C   UNL     1      40.180 -14.730  -3.257  1.00  0.00     0.061 C 
BRANCH  28  35
HETATM   35  C   UNL     1      41.456 -12.546  -3.075  1.00  0.00     0.409 C 
HETATM   36  F   UNL     1      40.946 -11.595  -2.263  1.00  0.00    -0.169 F 
HETATM   37  F   UNL     1      42.781 -12.267  -3.207  1.00  0.00    -0.169 F 
HETATM   38  F   UNL     1      40.905 -12.383  -4.297  1.00  0.00    -0.169 F 
ENDBRANCH  28  35
ENDBRANCH   1  24
TORSDOF 8
ENDMDL
MODEL 6
REMARK VINA RESULT:      -9.4      5.680      8.528
REMARK  8 active torsions:
REMARK  status: ('A' for Active; 'I' for Inactive)
REMARK    1  A    between atoms: C_7  and  C_8 
REMARK       I    between atoms: C_8  and  N_9 
REMARK    2  A    between atoms: N_9  and  N_10 
REMARK    3  A    between atoms: N_10  and  C_11 
REMARK    4  A    between atoms: C_11  and  N_12 
REMARK    5  A    between atoms: N_12  and  C_13 
REMARK    6  A    between atoms: N_15  and  C_16 
REMARK    7  A    between atoms: C_16  and  C_17 
REMARK    8  A    between atoms: C_29  and  C_30 
ROOT
HETATM    1  C   UNL     1      41.769 -14.020   4.942  1.00  0.00     0.290 C 
HETATM    2  N   UNL     1      42.922 -13.445   5.439  1.00  0.00    -0.262 N 
HETATM    3  O   UNL     1      40.911 -14.571   5.626  1.00  0.00    -0.264 OA
HETATM    4  H   UNL     1      43.526 -12.932   4.796  1.00  0.00     0.190 HD
ENDROOT
BRANCH   2   5
HETATM    5  N   UNL     1      43.147 -13.324   6.809  1.00  0.00    -0.273 N 
HETATM    6  H   UNL     1      42.333 -13.216   7.424  1.00  0.00     0.189 HD
BRANCH   5   7
HETATM    7  C   UNL     1      44.349 -13.667   7.367  1.00  0.00     0.192 C 
HETATM    8  S   UNL     1      45.169 -12.744   8.506  1.00  0.00    -0.039 SA
BRANCH   7   9
HETATM    9  N   UNL     1      44.926 -14.835   6.962  1.00  0.00    -0.315 N 
HETATM   10  H   UNL     1      45.828 -14.742   6.516  1.00  0.00     0.170 HD
BRANCH   9  11
HETATM   11  C   UNL     1      44.393 -16.105   7.017  1.00  0.00     0.151 A 
HETATM   12  N   UNL     1      44.908 -17.171   6.398  1.00  0.00    -0.154 NA
HETATM   13  N   UNL     1      44.089 -18.187   6.746  1.00  0.00    -0.275 N 
HETATM   14  C   UNL     1      43.063 -17.794   7.557  1.00  0.00     0.116 A 
HETATM   15  C   UNL     1      43.230 -16.443   7.747  1.00  0.00     0.071 A 
BRANCH  13  16
HETATM   16  C   UNL     1      44.299 -19.520   6.197  1.00  0.00     0.192 C 
BRANCH  16  17
HETATM   17  C   UNL     1      44.033 -19.562   4.719  1.00  0.00     0.000 A 
HETATM   18  C   UNL     1      44.646 -20.528   3.918  1.00  0.00     0.124 A 
HETATM   19  F   UNL     1      45.469 -21.429   4.475  1.00  0.00    -0.205 F 
HETATM   20  C   UNL     1      44.416 -20.586   2.546  1.00  0.00     0.043 A 
HETATM   21  C   UNL     1      43.559 -19.661   1.953  1.00  0.00     0.003 A 
HETATM   22  C   UNL     1      42.945 -18.682   2.735  1.00  0.00     0.001 A 
HETATM   23  C   UNL     1      43.184 -18.627   4.111  1.00  0.00     0.012 A 
ENDBRANCH  16  17
ENDBRANCH  13  16
ENDBRANCH   9  11
ENDBRANCH   7   9
ENDBRANCH   5   7
ENDBRANCH   2   5
BRANCH   1  24
HETATM   24  C   UNL     1      41.685 -13.902   3.476  1.00  0.00     0.150 A 
HETATM   25  N   UNL     1      40.992 -14.797   2.734  1.00  0.00    -0.165 NA
HETATM   26  N   UNL     1      41.156 -14.362   1.476  1.00  0.00    -0.240 N 
HETATM   27  C   UNL     1      41.888 -13.212   1.374  1.00  0.00     0.123 A 
HETATM   28  C   UNL     1      40.545 -15.042   0.350  1.00  0.00     0.221 C 
HETATM   29  N   UNL     1      42.089 -12.607   0.181  1.00  0.00    -0.371 N 
HETATM   30  C   UNL     1      42.265 -12.896   2.654  1.00  0.00     0.089 A 
HETATM   31  C   UNL     1      41.695 -13.266  -1.063  1.00  0.00     0.081 C 
HETATM   32  H   UNL     1      42.803 -11.884   0.098  1.00  0.00     0.161 HD
HETATM   33  C   UNL     1      41.488 -12.213  -2.147  1.00  0.00     0.032 C 
HETATM   34  C   UNL     1      40.402 -14.066  -0.833  1.00  0.00     0.061 C 
BRANCH  28  35
HETATM   35  C   UNL     1      41.352 -16.270  -0.013  1.00  0.00     0.409 C 
HETATM   36  F   UNL     1      42.637 -16.191   0.395  1.00  0.00    -0.169 F 
HETATM   37  F   UNL     1      40.822 -17.363   0.600  1.00  0.00    -0.169 F 
HETATM   38  F   UNL     1      41.355 -16.535  -1.337  1.00  0.00    -0.169 F 
ENDBRANCH  28  35
ENDBRANCH   1  24
TORSDOF 8
ENDMDL
MODEL 7
REMARK VINA RESULT:      -9.2      2.565      3.319
REMARK  8 active torsions:
REMARK  status: ('A' for Active; 'I' for Inactive)
REMARK    1  A    between atoms: C_7  and  C_8 
REMARK       I    between atoms: C_8  and  N_9 
REMARK    2  A    between atoms: N_9  and  N_10 
REMARK    3  A    between atoms: N_10  and  C_11 
REMARK    4  A    between atoms: C_11  and  N_12 
REMARK    5  A    between atoms: N_12  and  C_13 
REMARK    6  A    between atoms: N_15  and  C_16 
REMARK    7  A    between atoms: C_16  and  C_17 
REMARK    8  A    between atoms: C_29  and  C_30 
ROOT
HETATM    1  C   UNL     1      39.997 -10.666   8.051  1.00  0.00     0.290 C 
HETATM    2  N   UNL     1      40.866 -11.688   7.722  1.00  0.00    -0.262 N 
HETATM    3  O   UNL     1      39.094 -10.256   7.328  1.00  0.00    -0.264 OA
HETATM    4  H   UNL     1      41.523 -12.014   8.431  1.00  0.00     0.190 HD
ENDROOT
BRANCH   2   5
HETATM    5  N   UNL     1      40.701 -12.444   6.564  1.00  0.00    -0.273 N 
HETATM    6  H   UNL     1      39.747 -12.587   6.213  1.00  0.00     0.189 HD
BRANCH   5   7
HETATM    7  C   UNL     1      41.753 -12.709   5.729  1.00  0.00     0.192 C 
HETATM    8  S   UNL     1      41.765 -12.390   4.080  1.00  0.00    -0.039 SA
BRANCH   7   9
HETATM    9  N   UNL     1      42.866 -13.282   6.272  1.00  0.00    -0.315 N 
HETATM   10  H   UNL     1      43.559 -12.635   6.623  1.00  0.00     0.170 HD
BRANCH   9  11
HETATM   11  C   UNL     1      43.188 -14.621   6.324  1.00  0.00     0.151 A 
HETATM   12  N   UNL     1      42.395 -15.609   5.898  1.00  0.00    -0.154 NA
HETATM   13  N   UNL     1      43.115 -16.730   6.114  1.00  0.00    -0.275 N 
HETATM   14  C   UNL     1      44.336 -16.484   6.675  1.00  0.00     0.116 A 
HETATM   15  C   UNL     1      44.411 -15.121   6.829  1.00  0.00     0.071 A 
BRANCH  13  16
HETATM   16  C   UNL     1      42.539 -18.038   5.830  1.00  0.00     0.192 C 
BRANCH  16  17
HETATM   17  C   UNL     1      43.249 -18.724   4.698  1.00  0.00     0.000 A 
HETATM   18  C   UNL     1      44.115 -19.791   4.950  1.00  0.00     0.124 A 
HETATM   19  F   UNL     1      44.306 -20.208   6.210  1.00  0.00    -0.205 F 
HETATM   20  C   UNL     1      44.785 -20.441   3.918  1.00  0.00     0.043 A 
HETATM   21  C   UNL     1      44.592 -20.023   2.602  1.00  0.00     0.003 A 
HETATM   22  C   UNL     1      43.739 -18.954   2.331  1.00  0.00     0.001 A 
HETATM   23  C   UNL     1      43.073 -18.303   3.373  1.00  0.00     0.012 A 
ENDBRANCH  16  17
ENDBRANCH  13  16
ENDBRANCH   9  11
ENDBRANCH   7   9
ENDBRANCH   5   7
ENDBRANCH   2   5
BRANCH   1  24
HETATM   24  C   UNL     1      40.282 -10.111   9.385  1.00  0.00     0.150 A 
HETATM   25  N   UNL     1      41.523  -9.695   9.727  1.00  0.00    -0.165 NA
HETATM   26  N   UNL     1      41.380  -9.272  10.992  1.00  0.00    -0.240 N 
HETATM   27  C   UNL     1      40.103  -9.362  11.469  1.00  0.00     0.123 A 
HETATM   28  C   UNL     1      42.493  -8.719  11.740  1.00  0.00     0.221 C 
HETATM   29  N   UNL     1      39.778  -8.916  12.705  1.00  0.00    -0.371 N 
HETATM   30  C   UNL     1      39.365  -9.922  10.458  1.00  0.00     0.089 A 
HETATM   31  C   UNL     1      40.819  -8.503  13.644  1.00  0.00     0.081 C 
HETATM   32  H   UNL     1      38.884  -9.183  13.117  1.00  0.00     0.161 HD
HETATM   33  C   UNL     1      40.220  -7.548  14.671  1.00  0.00     0.032 C 
HETATM   34  C   UNL     1      41.963  -7.821  12.874  1.00  0.00     0.061 C 
BRANCH  28  35
HETATM   35  C   UNL     1      43.377  -9.834  12.254  1.00  0.00     0.409 C 
HETATM   36  F   UNL     1      43.914  -9.560  13.463  1.00  0.00    -0.169 F 
HETATM   37  F   UNL     1      42.640 -10.966  12.411  1.00  0.00    -0.169 F 
HETATM   38  F   UNL     1      44.387 -10.145  11.414  1.00  0.00    -0.169 F 
ENDBRANCH  28  35
ENDBRANCH   1  24
TORSDOF 8
ENDMDL
MODEL 8
REMARK VINA RESULT:      -9.2      3.387      4.138
REMARK  8 active torsions:
REMARK  status: ('A' for Active; 'I' for Inactive)
REMARK    1  A    between atoms: C_7  and  C_8 
REMARK       I    between atoms: C_8  and  N_9 
REMARK    2  A    between atoms: N_9  and  N_10 
REMARK    3  A    between atoms: N_10  and  C_11 
REMARK    4  A    between atoms: C_11  and  N_12 
REMARK    5  A    between atoms: N_12  and  C_13 
REMARK    6  A    between atoms: N_15  and  C_16 
REMARK    7  A    between atoms: C_16  and  C_17 
REMARK    8  A    between atoms: C_29  and  C_30 
ROOT
HETATM    1  C   UNL     1      40.295 -10.730   7.029  1.00  0.00     0.290 C 
HETATM    2  N   UNL     1      41.121 -11.114   5.992  1.00  0.00    -0.262 N 
HETATM    3  O   UNL     1      39.113 -10.421   6.905  1.00  0.00    -0.264 OA
HETATM    4  H   UNL     1      42.063 -11.439   6.215  1.00  0.00     0.190 HD
ENDROOT
BRANCH   2   5
HETATM    5  N   UNL     1      40.632 -11.314   4.702  1.00  0.00    -0.273 N 
HETATM    6  H   UNL     1      39.830 -10.752   4.399  1.00  0.00     0.189 HD
BRANCH   5   7
HETATM    7  C   UNL     1      41.369 -11.970   3.754  1.00  0.00     0.192 C 
HETATM    8  S   UNL     1      41.014 -11.984   2.112  1.00  0.00    -0.039 SA
BRANCH   7   9
HETATM    9  N   UNL     1      42.463 -12.671   4.172  1.00  0.00    -0.315 N 
HETATM   10  H   UNL     1      43.355 -12.231   3.991  1.00  0.00     0.170 HD
BRANCH   9  11
HETATM   11  C   UNL     1      42.498 -13.929   4.732  1.00  0.00     0.151 A 
HETATM   12  N   UNL     1      41.898 -15.006   4.216  1.00  0.00    -0.154 NA
HETATM   13  N   UNL     1      42.215 -16.005   5.067  1.00  0.00    -0.275 N 
HETATM   14  C   UNL     1      42.989 -15.591   6.114  1.00  0.00     0.116 A 
HETATM   15  C   UNL     1      43.185 -14.244   5.927  1.00  0.00     0.071 A 
BRANCH  13  16
HETATM   16  C   UNL     1      41.673 -17.342   4.864  1.00  0.00     0.192 C 
BRANCH  16  17
HETATM   17  C   UNL     1      42.630 -18.221   4.111  1.00  0.00     0.000 A 
HETATM   18  C   UNL     1      42.515 -18.368   2.727  1.00  0.00     0.124 A 
HETATM   19  F   UNL     1      41.549 -17.712   2.067  1.00  0.00    -0.205 F 
HETATM   20  C   UNL     1      43.389 -19.179   2.008  1.00  0.00     0.043 A 
HETATM   21  C   UNL     1      44.401 -19.863   2.678  1.00  0.00     0.003 A 
HETATM   22  C   UNL     1      44.526 -19.737   4.062  1.00  0.00     0.001 A 
HETATM   23  C   UNL     1      43.643 -18.924   4.778  1.00  0.00     0.012 A 
ENDBRANCH  16  17
ENDBRANCH  13  16
ENDBRANCH   9  11
ENDBRANCH   7   9
ENDBRANCH   5   7
ENDBRANCH   2   5
BRANCH   1  24
HETATM   24  C   UNL     1      41.002 -10.726   8.322  1.00  0.00     0.150 A 
HETATM   25  N   UNL     1      42.320 -10.428   8.405  1.00  0.00    -0.165 NA
HETATM   26  N   UNL     1      42.587 -10.536   9.715  1.00  0.00    -0.240 N 
HETATM   27  C   UNL     1      41.501 -10.852  10.483  1.00  0.00     0.123 A 
HETATM   28  C   UNL     1      43.912 -10.275  10.245  1.00  0.00     0.221 C 
HETATM   29  N   UNL     1      41.589 -10.933  11.831  1.00  0.00    -0.371 N 
HETATM   30  C   UNL     1      40.457 -11.002   9.607  1.00  0.00     0.089 A 
HETATM   31  C   UNL     1      42.890 -10.878  12.496  1.00  0.00     0.081 C 
HETATM   32  H   UNL     1      40.835 -11.371  12.358  1.00  0.00     0.161 HD
HETATM   33  C   UNL     1      42.698 -10.418  13.938  1.00  0.00     0.032 C 
HETATM   34  C   UNL     1      43.813  -9.909  11.738  1.00  0.00     0.061 C 
BRANCH  28  35
HETATM   35  C   UNL     1      44.811 -11.468  10.005  1.00  0.00     0.409 C 
HETATM   36  F   UNL     1      45.790 -11.580  10.927  1.00  0.00    -0.169 F 
HETATM   37  F   UNL     1      44.080 -12.613  10.082  1.00  0.00    -0.169 F 
HETATM   38  F   UNL     1      45.390 -11.463   8.785  1.00  0.00    -0.169 F 
ENDBRANCH  28  35
ENDBRANCH   1  24
TORSDOF 8
ENDMDL
MODEL 9
REMARK VINA RESULT:      -9.0      7.159     10.447
REMARK  8 active torsions:
REMARK  status: ('A' for Active; 'I' for Inactive)
REMARK    1  A    between atoms: C_7  and  C_8 
REMARK       I    between atoms: C_8  and  N_9 
REMARK    2  A    between atoms: N_9  and  N_10 
REMARK    3  A    between atoms: N_10  and  C_11 
REMARK    4  A    between atoms: C_11  and  N_12 
REMARK    5  A    between atoms: N_12  and  C_13 
REMARK    6  A    between atoms: N_15  and  C_16 
REMARK    7  A    between atoms: C_16  and  C_17 
REMARK    8  A    between atoms: C_29  and  C_30 
ROOT
HETATM    1  C   UNL     1      41.574 -16.561   2.478  1.00  0.00     0.290 C 
HETATM    2  N   UNL     1      40.410 -16.241   3.150  1.00  0.00    -0.262 N 
HETATM    3  O   UNL     1      41.927 -16.060   1.414  1.00  0.00    -0.264 OA
HETATM    4  H   UNL     1      40.254 -16.648   4.073  1.00  0.00     0.190 HD
ENDROOT
BRANCH   2   5
HETATM    5  N   UNL     1      39.583 -15.202   2.728  1.00  0.00    -0.273 N 
HETATM    6  H   UNL     1      38.713 -15.446   2.242  1.00  0.00     0.189 HD
BRANCH   5   7
HETATM    7  C   UNL     1      39.727 -13.932   3.218  1.00  0.00     0.192 C 
HETATM    8  S   UNL     1      40.837 -13.485   4.397  1.00  0.00    -0.039 SA
BRANCH   7   9
HETATM    9  N   UNL     1      38.905 -12.963   2.721  1.00  0.00    -0.315 N 
HETATM   10  H   UNL     1      38.406 -12.421   3.412  1.00  0.00     0.170 HD
BRANCH   9  11
HETATM   11  C   UNL     1      38.616 -12.695   1.400  1.00  0.00     0.151 A 
HETATM   12  N   UNL     1      39.473 -12.860   0.388  1.00  0.00    -0.154 NA
HETATM   13  N   UNL     1      38.768 -12.506  -0.708  1.00  0.00    -0.275 N 
HETATM   14  C   UNL     1      37.493 -12.112  -0.419  1.00  0.00     0.116 A 
HETATM   15  C   UNL     1      37.366 -12.218   0.945  1.00  0.00     0.071 A 
BRANCH  13  16
HETATM   16  C   UNL     1      39.405 -12.493  -2.018  1.00  0.00     0.192 C 
BRANCH  16  17
HETATM   17  C   UNL     1      39.311 -13.831  -2.695  1.00  0.00     0.000 A 
HETATM   18  C   UNL     1      40.366 -14.742  -2.608  1.00  0.00     0.124 A 
HETATM   19  F   UNL     1      41.464 -14.423  -1.907  1.00  0.00    -0.205 F 
HETATM   20  C   UNL     1      40.304 -15.986  -3.228  1.00  0.00     0.043 A 
HETATM   21  C   UNL     1      39.167 -16.336  -3.956  1.00  0.00     0.003 A 
HETATM   22  C   UNL     1      38.107 -15.435  -4.063  1.00  0.00     0.001 A 
HETATM   23  C   UNL     1      38.179 -14.186  -3.441  1.00  0.00     0.012 A 
ENDBRANCH  16  17
ENDBRANCH  13  16
ENDBRANCH   9  11
ENDBRANCH   7   9
ENDBRANCH   5   7
ENDBRANCH   2   5
BRANCH   1  24
HETATM   24  C   UNL     1      42.354 -17.588   3.189  1.00  0.00     0.150 A 
HETATM   25  N   UNL     1      42.446 -17.596   4.539  1.00  0.00    -0.165 NA
HETATM   26  N   UNL     1      43.227 -18.656   4.798  1.00  0.00    -0.240 N 
HETATM   27  C   UNL     1      43.612 -19.351   3.685  1.00  0.00     0.123 A 
HETATM   28  C   UNL     1      43.567 -19.037   6.156  1.00  0.00     0.221 C 
HETATM   29  N   UNL     1      44.347 -20.483   3.780  1.00  0.00    -0.371 N 
HETATM   30  C   UNL     1      43.078 -18.673   2.620  1.00  0.00     0.089 A 
HETATM   31  C   UNL     1      44.920 -20.893   5.060  1.00  0.00     0.081 C 
HETATM   32  H   UNL     1      44.797 -20.861   2.946  1.00  0.00     0.161 HD
HETATM   33  C   UNL     1      45.179 -22.396   5.038  1.00  0.00     0.032 C 
HETATM   34  C   UNL     1      43.950 -20.529   6.197  1.00  0.00     0.061 C 
BRANCH  28  35
HETATM   35  C   UNL     1      44.670 -18.146   6.684  1.00  0.00     0.409 C 
HETATM   36  F   UNL     1      44.280 -16.861   6.828  1.00  0.00    -0.169 F 
HETATM   37  F   UNL     1      45.049 -18.572   7.919  1.00  0.00    -0.169 F 
HETATM   38  F   UNL     1      45.779 -18.157   5.915  1.00  0.00    -0.169 F 
ENDBRANCH  28  35
ENDBRANCH   1  24
TORSDOF 8
ENDMDL
MODEL 10
REMARK VINA RESULT:      -8.9      1.832      2.468
REMARK  8 active torsions:
REMARK  status: ('A' for Active; 'I' for Inactive)
REMARK    1  A    between atoms: C_7  and  C_8 
REMARK       I    between atoms: C_8  and  N_9 
REMARK    2  A    between atoms: N_9  and  N_10 
REMARK    3  A    between atoms: N_10  and  C_11 
REMARK    4  A    between atoms: C_11  and  N_12 
REMARK    5  A    between atoms: N_12  and  C_13 
REMARK    6  A    between atoms: N_15  and  C_16 
REMARK    7  A    between atoms: C_16  and  C_17 
REMARK    8  A    between atoms: C_29  and  C_30 
ROOT
HETATM    1  C   UNL     1      44.399 -11.288   9.352  1.00  0.00     0.290 C 
HETATM    2  N   UNL     1      44.036 -12.537   8.887  1.00  0.00    -0.262 N 
HETATM    3  O   UNL     1      45.467 -10.735   9.108  1.00  0.00    -0.264 OA
HETATM    4  H   UNL     1      43.088 -12.868   9.072  1.00  0.00     0.190 HD
ENDROOT
BRANCH   2   5
HETATM    5  N   UNL     1      44.821 -13.235   7.972  1.00  0.00    -0.273 N 
HETATM    6  H   UNL     1      45.837 -13.244   8.117  1.00  0.00     0.189 HD
BRANCH   5   7
HETATM    7  C   UNL     1      44.274 -14.148   7.112  1.00  0.00     0.192 C 
HETATM    8  S   UNL     1      44.370 -14.057   5.437  1.00  0.00    -0.039 SA
BRANCH   7   9
HETATM    9  N   UNL     1      43.594 -15.200   7.652  1.00  0.00    -0.315 N 
HETATM   10  H   UNL     1      42.907 -14.959   8.353  1.00  0.00     0.170 HD
BRANCH   9  11
HETATM   11  C   UNL     1      43.790 -16.544   7.417  1.00  0.00     0.151 A 
HETATM   12  N   UNL     1      44.271 -17.052   6.278  1.00  0.00    -0.154 NA
HETATM   13  N   UNL     1      44.318 -18.383   6.500  1.00  0.00    -0.275 N 
HETATM   14  C   UNL     1      43.869 -18.735   7.741  1.00  0.00     0.116 A 
HETATM   15  C   UNL     1      43.513 -17.561   8.360  1.00  0.00     0.071 A 
BRANCH  13  16
HETATM   16  C   UNL     1      44.735 -19.290   5.439  1.00  0.00     0.192 C 
BRANCH  16  17
HETATM   17  C   UNL     1      43.964 -19.056   4.172  1.00  0.00     0.000 A 
HETATM   18  C   UNL     1      44.359 -19.670   2.981  1.00  0.00     0.124 A 
HETATM   19  F   UNL     1      45.429 -20.479   2.974  1.00  0.00    -0.205 F 
HETATM   20  C   UNL     1      43.662 -19.467   1.793  1.00  0.00     0.043 A 
HETATM   21  C   UNL     1      42.545 -18.633   1.786  1.00  0.00     0.003 A 
HETATM   22  C   UNL     1      42.140 -18.004   2.963  1.00  0.00     0.001 A 
HETATM   23  C   UNL     1      42.848 -18.208   4.150  1.00  0.00     0.012 A 
ENDBRANCH  16  17
ENDBRANCH  13  16
ENDBRANCH   9  11
ENDBRANCH   7   9
ENDBRANCH   5   7
ENDBRANCH   2   5
BRANCH   1  24
HETATM   24  C   UNL     1      43.347 -10.687  10.190  1.00  0.00     0.150 A 
HETATM   25  N   UNL     1      43.643  -9.794  11.162  1.00  0.00    -0.165 NA
HETATM   26  N   UNL     1      42.448  -9.491  11.690  1.00  0.00    -0.240 N 
HETATM   27  C   UNL     1      41.395 -10.117  11.084  1.00  0.00     0.123 A 
HETATM   28  C   UNL     1      42.315  -8.534  12.772  1.00  0.00     0.221 C 
HETATM   29  N   UNL     1      40.118  -9.868  11.455  1.00  0.00    -0.371 N 
HETATM   30  C   UNL     1      41.945 -10.917  10.116  1.00  0.00     0.089 A 
HETATM   31  C   UNL     1      39.831  -9.072  12.646  1.00  0.00     0.081 C 
HETATM   32  H   UNL     1      39.373 -10.491  11.143  1.00  0.00     0.161 HD
HETATM   33  C   UNL     1      38.433  -8.472  12.527  1.00  0.00     0.032 C 
HETATM   34  C   UNL     1      40.885  -7.960  12.787  1.00  0.00     0.061 C 
BRANCH  28  35
HETATM   35  C   UNL     1      42.687  -9.184  14.087  1.00  0.00     0.409 C 
HETATM   36  F   UNL     1      44.005  -9.088  14.364  1.00  0.00    -0.169 F 
HETATM   37  F   UNL     1      42.036  -8.559  15.106  1.00  0.00    -0.169 F 
HETATM   38  F   UNL     1      42.344 -10.488  14.154  1.00  0.00    -0.169 F 
ENDBRANCH  28  35
ENDBRANCH   1  24
TORSDOF 8
ENDMDL
