MODEL 1
REMARK VINA RESULT:      -7.6      0.000      0.000
REMARK  6 active torsions:
REMARK  status: ('A' for Active; 'I' for Inactive)
REMARK    1  A    between atoms: C_3  and  N_4 
REMARK    2  A    between atoms: N_4  and  C_5 
REMARK    3  A    between atoms: C_5  and  C_6 
REMARK    4  A    between atoms: N_8  and  C_10 
REMARK    5  A    between atoms: C_10  and  C_11 
REMARK    6  A    between atoms: C_12  and  O_13 
ROOT
HETATM    1  C   UNL     1      44.286 -15.918   6.728  1.00  0.00     0.031 C 
HETATM    2  C   UNL     1      43.203 -15.945   5.653  1.00  0.00     0.241 C 
HETATM    3  N   UNL     1      42.403 -17.179   5.978  1.00  0.00    -0.067 N 
HETATM    4  H   UNL     1      41.394 -16.960   5.869  1.00  0.00     0.280 HD
HETATM    5  C   UNL     1      42.654 -17.533   7.427  1.00  0.00     0.235 C 
HETATM    6  C   UNL     1      43.509 -16.388   7.954  1.00  0.00     0.035 C 
ENDROOT
BRANCH   3   7
HETATM    7  C   UNL     1      42.602 -18.325   5.014  1.00  0.00     0.276 C 
BRANCH   7   8
HETATM    8  C   UNL     1      42.762 -17.885   3.586  1.00  0.00     0.002 A 
HETATM    9  C   UNL     1      41.759 -17.146   2.945  1.00  0.00     0.091 A 
HETATM   10  C   UNL     1      41.928 -16.689   1.635  1.00  0.00     0.044 A 
HETATM   11 BR   UNL     1      40.569 -15.687   0.780  1.00  0.00    -0.048 Br
HETATM   12  C   UNL     1      43.103 -16.974   0.946  1.00  0.00     0.022 A 
HETATM   13  C   UNL     1      44.110 -17.712   1.570  1.00  0.00     0.002 A 
HETATM   14  C   UNL     1      43.945 -18.160   2.884  1.00  0.00     0.012 A 
BRANCH   9  15
HETATM   15  O   UNL     1      40.603 -16.903   3.647  1.00  0.00    -0.359 OA
HETATM   16  H   UNL     1      40.734 -17.302   4.537  1.00  0.00     0.218 HD
ENDBRANCH   9  15
ENDBRANCH   7   8
ENDBRANCH   3   7
BRANCH   1  17
HETATM   17  C   UNL     1      44.938 -14.547   6.911  1.00  0.00     0.127 C 
BRANCH  17  18
HETATM   18  N   UNL     1      43.971 -13.589   7.431  1.00  0.00    -0.376 N 
HETATM   19  H   UNL     1      43.089 -14.042   7.703  1.00  0.00     0.161 HD
BRANCH  18  20
HETATM   20  C   UNL     1      44.251 -12.556   8.320  1.00  0.00     0.100 A 
HETATM   21  C   UNL     1      45.580 -12.348   8.720  1.00  0.00     0.048 A 
HETATM   22  C   UNL     1      45.892 -11.365   9.656  1.00  0.00     0.005 A 
HETATM   23  C   UNL     1      44.874 -10.595  10.197  1.00  0.00     0.017 A 
HETATM   24  C   UNL     1      43.571 -10.827   9.786  1.00  0.00     0.089 A 
HETATM   25  N   UNL     1      43.304 -11.787   8.883  1.00  0.00    -0.353 N 
HETATM   26  H   UNL     1      42.338 -11.911   8.601  1.00  0.00     0.166 HD
ENDBRANCH  18  20
ENDBRANCH  17  18
ENDBRANCH   1  17
TORSDOF 6
ENDMDL
MODEL 2
REMARK VINA RESULT:      -7.6      6.066      8.652
REMARK  6 active torsions:
REMARK  status: ('A' for Active; 'I' for Inactive)
REMARK    1  A    between atoms: C_3  and  N_4 
REMARK    2  A    between atoms: N_4  and  C_5 
REMARK    3  A    between atoms: C_5  and  C_6 
REMARK    4  A    between atoms: N_8  and  C_10 
REMARK    5  A    between atoms: C_10  and  C_11 
REMARK    6  A    between atoms: C_12  and  O_13 
ROOT
HETATM    1  C   UNL     1      41.878 -15.335   1.278  1.00  0.00     0.031 C 
HETATM    2  C   UNL     1      42.474 -16.675   0.857  1.00  0.00     0.241 C 
HETATM    3  N   UNL     1      42.167 -17.585   2.018  1.00  0.00    -0.067 N 
HETATM    4  H   UNL     1      41.858 -18.504   1.648  1.00  0.00     0.280 HD
HETATM    5  C   UNL     1      41.020 -16.982   2.798  1.00  0.00     0.235 C 
HETATM    6  C   UNL     1      40.592 -15.777   1.971  1.00  0.00     0.035 C 
ENDROOT
BRANCH   3   7
HETATM    7  C   UNL     1      43.367 -17.950   2.860  1.00  0.00     0.276 C 
BRANCH   7   8
HETATM    8  C   UNL     1      43.732 -19.406   2.782  1.00  0.00     0.002 A 
HETATM    9  C   UNL     1      44.268 -20.073   3.892  1.00  0.00     0.091 A 
HETATM   10  C   UNL     1      44.558 -21.439   3.840  1.00  0.00     0.044 A 
HETATM   11 BR   UNL     1      45.276 -22.331   5.346  1.00  0.00    -0.048 Br
HETATM   12  C   UNL     1      44.320 -22.156   2.671  1.00  0.00     0.022 A 
HETATM   13  C   UNL     1      43.790 -21.505   1.556  1.00  0.00     0.002 A 
HETATM   14  C   UNL     1      43.491 -20.140   1.611  1.00  0.00     0.012 A 
BRANCH   9  15
HETATM   15  O   UNL     1      44.511 -19.330   5.023  1.00  0.00    -0.359 OA
HETATM   16  H   UNL     1      45.229 -19.798   5.507  1.00  0.00     0.218 HD
ENDBRANCH   9  15
ENDBRANCH   7   8
ENDBRANCH   3   7
BRANCH   1  17
HETATM   17  C   UNL     1      41.640 -14.374   0.111  1.00  0.00     0.127 C 
BRANCH  17  18
HETATM   18  N   UNL     1      41.504 -15.114  -1.136  1.00  0.00    -0.376 N 
HETATM   19  H   UNL     1      41.897 -16.061  -1.068  1.00  0.00     0.161 HD
BRANCH  18  20
HETATM   20  C   UNL     1      40.367 -15.146  -1.939  1.00  0.00     0.100 A 
HETATM   21  C   UNL     1      40.395 -15.896  -3.124  1.00  0.00     0.048 A 
HETATM   22  C   UNL     1      39.299 -15.902  -3.984  1.00  0.00     0.005 A 
HETATM   23  C   UNL     1      38.178 -15.153  -3.661  1.00  0.00     0.017 A 
HETATM   24  C   UNL     1      38.182 -14.418  -2.486  1.00  0.00     0.089 A 
HETATM   25  N   UNL     1      39.259 -14.431  -1.680  1.00  0.00    -0.353 N 
HETATM   26  H   UNL     1      39.210 -13.891  -0.824  1.00  0.00     0.166 HD
ENDBRANCH  18  20
ENDBRANCH  17  18
ENDBRANCH   1  17
TORSDOF 6
ENDMDL
MODEL 3
REMARK VINA RESULT:      -7.4      4.520      7.118
REMARK  6 active torsions:
REMARK  status: ('A' for Active; 'I' for Inactive)
REMARK    1  A    between atoms: C_3  and  N_4 
REMARK    2  A    between atoms: N_4  and  C_5 
REMARK    3  A    between atoms: C_5  and  C_6 
REMARK    4  A    between atoms: N_8  and  C_10 
REMARK    5  A    between atoms: C_10  and  C_11 
REMARK    6  A    between atoms: C_12  and  O_13 
ROOT
HETATM    1  C   UNL     1      41.151 -15.246   4.146  1.00  0.00     0.031 C 
HETATM    2  C   UNL     1      41.304 -16.677   3.641  1.00  0.00     0.241 C 
HETATM    3  N   UNL     1      42.367 -17.262   4.535  1.00  0.00    -0.067 N 
HETATM    4  H   UNL     1      42.086 -18.226   4.798  1.00  0.00     0.280 HD
HETATM    5  C   UNL     1      42.431 -16.429   5.796  1.00  0.00     0.235 C 
HETATM    6  C   UNL     1      41.282 -15.439   5.654  1.00  0.00     0.035 C 
ENDROOT
BRANCH   3   7
HETATM    7  C   UNL     1      43.702 -17.476   3.862  1.00  0.00     0.276 C 
BRANCH   7   8
HETATM    8  C   UNL     1      43.930 -18.894   3.422  1.00  0.00     0.002 A 
HETATM    9  C   UNL     1      44.400 -19.859   4.323  1.00  0.00     0.091 A 
HETATM   10  C   UNL     1      44.563 -21.191   3.931  1.00  0.00     0.044 A 
HETATM   11 BR   UNL     1      45.192 -22.488   5.157  1.00  0.00    -0.048 Br
HETATM   12  C   UNL     1      44.263 -21.573   2.627  1.00  0.00     0.022 A 
HETATM   13  C   UNL     1      43.797 -20.623   1.717  1.00  0.00     0.002 A 
HETATM   14  C   UNL     1      43.626 -19.293   2.111  1.00  0.00     0.012 A 
BRANCH   9  15
HETATM   15  O   UNL     1      44.709 -19.443   5.596  1.00  0.00    -0.359 OA
HETATM   16  H   UNL     1      45.002 -20.246   6.082  1.00  0.00     0.218 HD
ENDBRANCH   9  15
ENDBRANCH   7   8
ENDBRANCH   3   7
BRANCH   1  17
HETATM   17  C   UNL     1      39.835 -14.584   3.731  1.00  0.00     0.127 C 
BRANCH  17  18
HETATM   18  N   UNL     1      39.279 -15.251   2.560  1.00  0.00    -0.376 N 
HETATM   19  H   UNL     1      38.452 -15.815   2.794  1.00  0.00     0.161 HD
BRANCH  18  20
HETATM   20  C   UNL     1      39.102 -14.672   1.307  1.00  0.00     0.100 A 
HETATM   21  C   UNL     1      37.913 -13.973   1.046  1.00  0.00     0.048 A 
HETATM   22  C   UNL     1      37.672 -13.434  -0.216  1.00  0.00     0.005 A 
HETATM   23  C   UNL     1      38.616 -13.599  -1.217  1.00  0.00     0.017 A 
HETATM   24  C   UNL     1      39.778 -14.298  -0.930  1.00  0.00     0.089 A 
HETATM   25  N   UNL     1      39.977 -14.810   0.297  1.00  0.00    -0.353 N 
HETATM   26  H   UNL     1      40.849 -15.300   0.465  1.00  0.00     0.166 HD
ENDBRANCH  18  20
ENDBRANCH  17  18
ENDBRANCH   1  17
TORSDOF 6
ENDMDL
MODEL 4
REMARK VINA RESULT:      -7.4      2.304      2.721
REMARK  6 active torsions:
REMARK  status: ('A' for Active; 'I' for Inactive)
REMARK    1  A    between atoms: C_3  and  N_4 
REMARK    2  A    between atoms: N_4  and  C_5 
REMARK    3  A    between atoms: C_5  and  C_6 
REMARK    4  A    between atoms: N_8  and  C_10 
REMARK    5  A    between atoms: C_10  and  C_11 
REMARK    6  A    between atoms: C_12  and  O_13 
ROOT
HETATM    1  C   UNL     1      43.211 -14.474   5.956  1.00  0.00     0.031 C 
HETATM    2  C   UNL     1      43.351 -15.108   4.575  1.00  0.00     0.241 C 
HETATM    3  N   UNL     1      41.927 -15.285   4.116  1.00  0.00    -0.067 N 
HETATM    4  H   UNL     1      41.865 -15.017   3.114  1.00  0.00     0.280 HD
HETATM    5  C   UNL     1      41.055 -14.339   4.911  1.00  0.00     0.235 C 
HETATM    6  C   UNL     1      42.039 -13.522   5.737  1.00  0.00     0.035 C 
ENDROOT
BRANCH   3   7
HETATM    7  C   UNL     1      41.446 -16.717   4.108  1.00  0.00     0.276 C 
BRANCH   7   8
HETATM    8  C   UNL     1      42.419 -17.672   3.475  1.00  0.00     0.002 A 
HETATM    9  C   UNL     1      43.107 -18.615   4.250  1.00  0.00     0.091 A 
HETATM   10  C   UNL     1      43.972 -19.540   3.658  1.00  0.00     0.044 A 
HETATM   11 BR   UNL     1      44.891 -20.814   4.712  1.00  0.00    -0.048 Br
HETATM   12  C   UNL     1      44.165 -19.527   2.279  1.00  0.00     0.022 A 
HETATM   13  C   UNL     1      43.489 -18.591   1.495  1.00  0.00     0.002 A 
HETATM   14  C   UNL     1      42.617 -17.672   2.086  1.00  0.00     0.012 A 
BRANCH   9  15
HETATM   15  O   UNL     1      42.911 -18.585   5.610  1.00  0.00    -0.359 OA
HETATM   16  H   UNL     1      43.507 -17.883   5.956  1.00  0.00     0.218 HD
ENDBRANCH   9  15
ENDBRANCH   7   8
ENDBRANCH   3   7
BRANCH   1  17
HETATM   17  C   UNL     1      44.481 -13.773   6.442  1.00  0.00     0.127 C 
BRANCH  17  18
HETATM   18  N   UNL     1      44.505 -13.719   7.898  1.00  0.00    -0.376 N 
HETATM   19  H   UNL     1      45.198 -14.366   8.297  1.00  0.00     0.161 HD
BRANCH  18  20
HETATM   20  C   UNL     1      44.464 -12.559   8.667  1.00  0.00     0.100 A 
HETATM   21  C   UNL     1      45.644 -12.109   9.279  1.00  0.00     0.048 A 
HETATM   22  C   UNL     1      45.629 -10.988  10.105  1.00  0.00     0.005 A 
HETATM   23  C   UNL     1      44.434 -10.321  10.325  1.00  0.00     0.017 A 
HETATM   24  C   UNL     1      43.284 -10.792   9.710  1.00  0.00     0.089 A 
HETATM   25  N   UNL     1      43.333 -11.881   8.921  1.00  0.00    -0.353 N 
HETATM   26  H   UNL     1      42.470 -12.179   8.480  1.00  0.00     0.166 HD
ENDBRANCH  18  20
ENDBRANCH  17  18
ENDBRANCH   1  17
TORSDOF 6
ENDMDL
MODEL 5
REMARK VINA RESULT:      -7.3      4.052      4.935
REMARK  6 active torsions:
REMARK  status: ('A' for Active; 'I' for Inactive)
REMARK    1  A    between atoms: C_3  and  N_4 
REMARK    2  A    between atoms: N_4  and  C_5 
REMARK    3  A    between atoms: C_5  and  C_6 
REMARK    4  A    between atoms: N_8  and  C_10 
REMARK    5  A    between atoms: C_10  and  C_11 
REMARK    6  A    between atoms: C_12  and  O_13 
ROOT
HETATM    1  C   UNL     1      41.432 -15.415   4.006  1.00  0.00     0.031 C 
HETATM    2  C   UNL     1      41.468 -16.913   3.721  1.00  0.00     0.241 C 
HETATM    3  N   UNL     1      42.795 -17.354   4.282  1.00  0.00    -0.067 N 
HETATM    4  H   UNL     1      42.663 -18.256   4.780  1.00  0.00     0.280 HD
HETATM    5  C   UNL     1      43.247 -16.321   5.290  1.00  0.00     0.235 C 
HETATM    6  C   UNL     1      42.075 -15.352   5.388  1.00  0.00     0.035 C 
ENDROOT
BRANCH   3   7
HETATM    7  C   UNL     1      43.831 -17.699   3.238  1.00  0.00     0.276 C 
BRANCH   7   8
HETATM    8  C   UNL     1      43.992 -19.178   3.021  1.00  0.00     0.002 A 
HETATM    9  C   UNL     1      44.477 -20.006   4.042  1.00  0.00     0.091 A 
HETATM   10  C   UNL     1      44.577 -21.388   3.861  1.00  0.00     0.044 A 
HETATM   11 BR   UNL     1      45.227 -22.499   5.248  1.00  0.00    -0.048 Br
HETATM   12  C   UNL     1      44.200 -21.959   2.648  1.00  0.00     0.022 A 
HETATM   13  C   UNL     1      43.719 -21.146   1.621  1.00  0.00     0.002 A 
HETATM   14  C   UNL     1      43.609 -19.765   1.805  1.00  0.00     0.012 A 
BRANCH   9  15
HETATM   15  O   UNL     1      44.862 -19.406   5.217  1.00  0.00    -0.359 OA
HETATM   16  H   UNL     1      45.267 -20.116   5.765  1.00  0.00     0.218 HD
ENDBRANCH   9  15
ENDBRANCH   7   8
ENDBRANCH   3   7
BRANCH   1  17
HETATM   17  C   UNL     1      40.026 -14.813   3.962  1.00  0.00     0.127 C 
BRANCH  17  18
HETATM   18  N   UNL     1      39.561 -14.511   5.309  1.00  0.00    -0.376 N 
HETATM   19  H   UNL     1      39.927 -15.177   6.002  1.00  0.00     0.161 HD
BRANCH  18  20
HETATM   20  C   UNL     1      39.498 -13.243   5.879  1.00  0.00     0.100 A 
HETATM   21  C   UNL     1      39.544 -12.120   5.039  1.00  0.00     0.048 A 
HETATM   22  C   UNL     1      39.547 -10.834   5.575  1.00  0.00     0.005 A 
HETATM   23  C   UNL     1      39.510 -10.673   6.952  1.00  0.00     0.017 A 
HETATM   24  C   UNL     1      39.470 -11.801   7.756  1.00  0.00     0.089 A 
HETATM   25  N   UNL     1      39.473 -13.028   7.205  1.00  0.00    -0.353 N 
HETATM   26  H   UNL     1      39.427 -13.824   7.831  1.00  0.00     0.166 HD
ENDBRANCH  18  20
ENDBRANCH  17  18
ENDBRANCH   1  17
TORSDOF 6
ENDMDL
MODEL 6
REMARK VINA RESULT:      -7.2      3.288      6.858
REMARK  6 active torsions:
REMARK  status: ('A' for Active; 'I' for Inactive)
REMARK    1  A    between atoms: C_3  and  N_4 
REMARK    2  A    between atoms: N_4  and  C_5 
REMARK    3  A    between atoms: C_5  and  C_6 
REMARK    4  A    between atoms: N_8  and  C_10 
REMARK    5  A    between atoms: C_10  and  C_11 
REMARK    6  A    between atoms: C_12  and  O_13 
ROOT
HETATM    1  C   UNL     1      43.179 -17.181   6.086  1.00  0.00     0.031 C 
HETATM    2  C   UNL     1      42.944 -16.549   4.718  1.00  0.00     0.241 C 
HETATM    3  N   UNL     1      43.154 -15.077   4.961  1.00  0.00    -0.067 N 
HETATM    4  H   UNL     1      43.699 -14.683   4.170  1.00  0.00     0.280 HD
HETATM    5  C   UNL     1      43.975 -14.921   6.222  1.00  0.00     0.235 C 
HETATM    6  C   UNL     1      44.343 -16.347   6.611  1.00  0.00     0.035 C 
ENDROOT
BRANCH   3   7
HETATM    7  C   UNL     1      41.888 -14.252   4.938  1.00  0.00     0.276 C 
BRANCH   7   8
HETATM    8  C   UNL     1      41.194 -14.258   3.605  1.00  0.00     0.002 A 
HETATM    9  C   UNL     1      41.786 -13.662   2.484  1.00  0.00     0.091 A 
HETATM   10  C   UNL     1      41.169 -13.712   1.231  1.00  0.00     0.044 A 
HETATM   11 BR   UNL     1      41.979 -12.908  -0.278  1.00  0.00    -0.048 Br
HETATM   12  C   UNL     1      39.943 -14.357   1.086  1.00  0.00     0.022 A 
HETATM   13  C   UNL     1      39.340 -14.953   2.195  1.00  0.00     0.002 A 
HETATM   14  C   UNL     1      39.962 -14.910   3.445  1.00  0.00     0.012 A 
BRANCH   9  15
HETATM   15  O   UNL     1      42.985 -13.014   2.667  1.00  0.00    -0.359 OA
HETATM   16  H   UNL     1      42.768 -12.158   3.101  1.00  0.00     0.218 HD
ENDBRANCH   9  15
ENDBRANCH   7   8
ENDBRANCH   3   7
BRANCH   1  17
HETATM   17  C   UNL     1      43.482 -18.680   6.027  1.00  0.00     0.127 C 
BRANCH  17  18
HETATM   18  N   UNL     1      44.480 -18.956   5.001  1.00  0.00    -0.376 N 
HETATM   19  H   UNL     1      45.435 -18.946   5.380  1.00  0.00     0.161 HD
BRANCH  18  20
HETATM   20  C   UNL     1      44.384 -19.941   4.023  1.00  0.00     0.100 A 
HETATM   21  C   UNL     1      43.813 -19.612   2.784  1.00  0.00     0.048 A 
HETATM   22  C   UNL     1      43.643 -20.585   1.802  1.00  0.00     0.005 A 
HETATM   23  C   UNL     1      44.038 -21.888   2.062  1.00  0.00     0.017 A 
HETATM   24  C   UNL     1      44.595 -22.184   3.297  1.00  0.00     0.089 A 
HETATM   25  N   UNL     1      44.740 -21.220   4.224  1.00  0.00    -0.353 N 
HETATM   26  H   UNL     1      45.167 -21.480   5.106  1.00  0.00     0.166 HD
ENDBRANCH  18  20
ENDBRANCH  17  18
ENDBRANCH   1  17
TORSDOF 6
ENDMDL
MODEL 7
REMARK VINA RESULT:      -7.2      4.649      7.990
REMARK  6 active torsions:
REMARK  status: ('A' for Active; 'I' for Inactive)
REMARK    1  A    between atoms: C_3  and  N_4 
REMARK    2  A    between atoms: N_4  and  C_5 
REMARK    3  A    between atoms: C_5  and  C_6 
REMARK    4  A    between atoms: N_8  and  C_10 
REMARK    5  A    between atoms: C_10  and  C_11 
REMARK    6  A    between atoms: C_12  and  O_13 
ROOT
HETATM    1  C   UNL     1      40.374 -14.945   2.401  1.00  0.00     0.031 C 
HETATM    2  C   UNL     1      40.802 -16.409   2.453  1.00  0.00     0.241 C 
HETATM    3  N   UNL     1      41.689 -16.481   3.668  1.00  0.00    -0.067 N 
HETATM    4  H   UNL     1      41.467 -17.350   4.191  1.00  0.00     0.280 HD
HETATM    5  C   UNL     1      41.366 -15.301   4.558  1.00  0.00     0.235 C 
HETATM    6  C   UNL     1      40.176 -14.633   3.881  1.00  0.00     0.035 C 
ENDROOT
BRANCH   3   7
HETATM    7  C   UNL     1      43.159 -16.644   3.360  1.00  0.00     0.276 C 
BRANCH   7   8
HETATM    8  C   UNL     1      43.697 -18.003   3.711  1.00  0.00     0.002 A 
HETATM    9  C   UNL     1      43.663 -19.051   2.781  1.00  0.00     0.091 A 
HETATM   10  C   UNL     1      44.211 -20.300   3.084  1.00  0.00     0.044 A 
HETATM   11 BR   UNL     1      44.165 -21.707   1.820  1.00  0.00    -0.048 Br
HETATM   12  C   UNL     1      44.795 -20.519   4.329  1.00  0.00     0.022 A 
HETATM   13  C   UNL     1      44.833 -19.486   5.266  1.00  0.00     0.002 A 
HETATM   14  C   UNL     1      44.294 -18.234   4.959  1.00  0.00     0.012 A 
BRANCH   9  15
HETATM   15  O   UNL     1      43.058 -18.807   1.571  1.00  0.00    -0.359 OA
HETATM   16  H   UNL     1      42.714 -17.886   1.618  1.00  0.00     0.218 HD
ENDBRANCH   9  15
ENDBRANCH   7   8
ENDBRANCH   3   7
BRANCH   1  17
HETATM   17  C   UNL     1      39.123 -14.699   1.555  1.00  0.00     0.127 C 
BRANCH  17  18
HETATM   18  N   UNL     1      39.460 -13.936   0.360  1.00  0.00    -0.376 N 
HETATM   19  H   UNL     1      40.235 -13.281   0.527  1.00  0.00     0.161 HD
BRANCH  18  20
HETATM   20  C   UNL     1      39.564 -14.453  -0.928  1.00  0.00     0.100 A 
HETATM   21  C   UNL     1      40.779 -15.027  -1.332  1.00  0.00     0.048 A 
HETATM   22  C   UNL     1      40.940 -15.498  -2.633  1.00  0.00     0.005 A 
HETATM   23  C   UNL     1      39.889 -15.389  -3.531  1.00  0.00     0.017 A 
HETATM   24  C   UNL     1      38.703 -14.813  -3.103  1.00  0.00     0.089 A 
HETATM   25  N   UNL     1      38.582 -14.365  -1.841  1.00  0.00    -0.353 N 
HETATM   26  H   UNL     1      37.691 -13.965  -1.569  1.00  0.00     0.166 HD
ENDBRANCH  18  20
ENDBRANCH  17  18
ENDBRANCH   1  17
TORSDOF 6
ENDMDL
MODEL 8
REMARK VINA RESULT:      -7.1      3.777      7.570
REMARK  6 active torsions:
REMARK  status: ('A' for Active; 'I' for Inactive)
REMARK    1  A    between atoms: C_3  and  N_4 
REMARK    2  A    between atoms: N_4  and  C_5 
REMARK    3  A    between atoms: C_5  and  C_6 
REMARK    4  A    between atoms: N_8  and  C_10 
REMARK    5  A    between atoms: C_10  and  C_11 
REMARK    6  A    between atoms: C_12  and  O_13 
ROOT
HETATM    1  C   UNL     1      42.239 -16.466   2.596  1.00  0.00     0.031 C 
HETATM    2  C   UNL     1      40.966 -16.879   3.328  1.00  0.00     0.241 C 
HETATM    3  N   UNL     1      40.228 -15.580   3.527  1.00  0.00    -0.067 N 
HETATM    4  H   UNL     1      39.220 -15.737   3.331  1.00  0.00     0.280 HD
HETATM    5  C   UNL     1      40.754 -14.582   2.520  1.00  0.00     0.235 C 
HETATM    6  C   UNL     1      41.712 -15.388   1.653  1.00  0.00     0.035 C 
ENDROOT
BRANCH   3   7
HETATM    7  C   UNL     1      40.217 -15.080   4.952  1.00  0.00     0.276 C 
BRANCH   7   8
HETATM    8  C   UNL     1      41.408 -15.526   5.753  1.00  0.00     0.002 A 
HETATM    9  C   UNL     1      42.535 -14.704   5.883  1.00  0.00     0.091 A 
HETATM   10  C   UNL     1      43.622 -15.092   6.670  1.00  0.00     0.044 A 
HETATM   11 BR   UNL     1      45.138 -13.973   6.844  1.00  0.00    -0.048 Br
HETATM   12  C   UNL     1      43.597 -16.316   7.334  1.00  0.00     0.022 A 
HETATM   13  C   UNL     1      42.482 -17.147   7.211  1.00  0.00     0.002 A 
HETATM   14  C   UNL     1      41.391 -16.754   6.431  1.00  0.00     0.012 A 
BRANCH   9  15
HETATM   15  O   UNL     1      42.536 -13.514   5.195  1.00  0.00    -0.359 OA
HETATM   16  H   UNL     1      43.461 -13.179   5.231  1.00  0.00     0.218 HD
ENDBRANCH   9  15
ENDBRANCH   7   8
ENDBRANCH   3   7
BRANCH   1  17
HETATM   17  C   UNL     1      42.934 -17.620   1.872  1.00  0.00     0.127 C 
BRANCH  17  18
HETATM   18  N   UNL     1      43.930 -18.237   2.739  1.00  0.00    -0.376 N 
HETATM   19  H   UNL     1      43.955 -17.800   3.669  1.00  0.00     0.161 HD
BRANCH  18  20
HETATM   20  C   UNL     1      44.158 -19.604   2.866  1.00  0.00     0.100 A 
HETATM   21  C   UNL     1      43.786 -20.454   1.813  1.00  0.00     0.048 A 
HETATM   22  C   UNL     1      43.941 -21.833   1.929  1.00  0.00     0.005 A 
HETATM   23  C   UNL     1      44.462 -22.363   3.100  1.00  0.00     0.017 A 
HETATM   24  C   UNL     1      44.816 -21.498   4.124  1.00  0.00     0.089 A 
HETATM   25  N   UNL     1      44.649 -20.171   3.981  1.00  0.00    -0.353 N 
HETATM   26  H   UNL     1      44.937 -19.577   4.750  1.00  0.00     0.166 HD
ENDBRANCH  18  20
ENDBRANCH  17  18
ENDBRANCH   1  17
TORSDOF 6
ENDMDL
MODEL 9
REMARK VINA RESULT:      -7.0      4.315      7.158
REMARK  6 active torsions:
REMARK  status: ('A' for Active; 'I' for Inactive)
REMARK    1  A    between atoms: C_3  and  N_4 
REMARK    2  A    between atoms: N_4  and  C_5 
REMARK    3  A    between atoms: C_5  and  C_6 
REMARK    4  A    between atoms: N_8  and  C_10 
REMARK    5  A    between atoms: C_10  and  C_11 
REMARK    6  A    between atoms: C_12  and  O_13 
ROOT
HETATM    1  C   UNL     1      42.333 -17.225   4.616  1.00  0.00     0.031 C 
HETATM    2  C   UNL     1      42.514 -16.813   3.158  1.00  0.00     0.241 C 
HETATM    3  N   UNL     1      41.473 -15.743   2.955  1.00  0.00    -0.067 N 
HETATM    4  H   UNL     1      41.892 -14.972   2.398  1.00  0.00     0.280 HD
HETATM    5  C   UNL     1      41.093 -15.192   4.311  1.00  0.00     0.235 C 
HETATM    6  C   UNL     1      42.047 -15.881   5.279  1.00  0.00     0.035 C 
ENDROOT
BRANCH   3   7
HETATM    7  C   UNL     1      40.298 -16.168   2.104  1.00  0.00     0.276 C 
BRANCH   7   8
HETATM    8  C   UNL     1      39.931 -15.165   1.047  1.00  0.00     0.002 A 
HETATM    9  C   UNL     1      40.733 -14.993  -0.089  1.00  0.00     0.091 A 
HETATM   10  C   UNL     1      40.367 -14.100  -1.100  1.00  0.00     0.044 A 
HETATM   11 BR   UNL     1      41.453 -13.879  -2.634  1.00  0.00    -0.048 Br
HETATM   12  C   UNL     1      39.193 -13.361  -0.982  1.00  0.00     0.022 A 
HETATM   13  C   UNL     1      38.386 -13.519   0.146  1.00  0.00     0.002 A 
HETATM   14  C   UNL     1      38.748 -14.419   1.152  1.00  0.00     0.012 A 
BRANCH   9  15
HETATM   15  O   UNL     1      41.896 -15.722  -0.163  1.00  0.00    -0.359 OA
HETATM   16  H   UNL     1      42.585 -15.103  -0.498  1.00  0.00     0.218 HD
ENDBRANCH   9  15
ENDBRANCH   7   8
ENDBRANCH   3   7
BRANCH   1  17
HETATM   17  C   UNL     1      43.545 -17.948   5.206  1.00  0.00     0.127 C 
BRANCH  17  18
HETATM   18  N   UNL     1      44.315 -18.593   4.150  1.00  0.00    -0.376 N 
HETATM   19  H   UNL     1      45.213 -18.120   3.984  1.00  0.00     0.161 HD
BRANCH  18  20
HETATM   20  C   UNL     1      44.482 -19.965   3.993  1.00  0.00     0.100 A 
HETATM   21  C   UNL     1      44.269 -20.534   2.728  1.00  0.00     0.048 A 
HETATM   22  C   UNL     1      44.366 -21.911   2.545  1.00  0.00     0.005 A 
HETATM   23  C   UNL     1      44.670 -22.721   3.630  1.00  0.00     0.017 A 
HETATM   24  C   UNL     1      44.872 -22.130   4.868  1.00  0.00     0.089 A 
HETATM   25  N   UNL     1      44.766 -20.797   5.010  1.00  0.00    -0.353 N 
HETATM   26  H   UNL     1      44.937 -20.409   5.930  1.00  0.00     0.166 HD
ENDBRANCH  18  20
ENDBRANCH  17  18
ENDBRANCH   1  17
TORSDOF 6
ENDMDL
MODEL 10
REMARK VINA RESULT:      -7.0      3.906      4.385
REMARK  6 active torsions:
REMARK  status: ('A' for Active; 'I' for Inactive)
REMARK    1  A    between atoms: C_3  and  N_4 
REMARK    2  A    between atoms: N_4  and  C_5 
REMARK    3  A    between atoms: C_5  and  C_6 
REMARK    4  A    between atoms: N_8  and  C_10 
REMARK    5  A    between atoms: C_10  and  C_11 
REMARK    6  A    between atoms: C_12  and  O_13 
ROOT
HETATM    1  C   UNL     1      41.172 -14.933   5.404  1.00  0.00     0.031 C 
HETATM    2  C   UNL     1      41.535 -15.488   4.030  1.00  0.00     0.241 C 
HETATM    3  N   UNL     1      42.032 -16.879   4.324  1.00  0.00    -0.067 N 
HETATM    4  H   UNL     1      41.649 -17.527   3.608  1.00  0.00     0.280 HD
HETATM    5  C   UNL     1      41.490 -17.296   5.673  1.00  0.00     0.235 C 
HETATM    6  C   UNL     1      40.560 -16.159   6.076  1.00  0.00     0.035 C 
ENDROOT
BRANCH   3   7
HETATM    7  C   UNL     1      43.524 -17.056   4.171  1.00  0.00     0.276 C 
BRANCH   7   8
HETATM    8  C   UNL     1      43.959 -18.495   4.163  1.00  0.00     0.002 A 
HETATM    9  C   UNL     1      43.704 -19.316   3.057  1.00  0.00     0.091 A 
HETATM   10  C   UNL     1      44.154 -20.639   3.025  1.00  0.00     0.044 A 
HETATM   11 BR   UNL     1      43.811 -21.739   1.524  1.00  0.00    -0.048 Br
HETATM   12  C   UNL     1      44.860 -21.160   4.106  1.00  0.00     0.022 A 
HETATM   13  C   UNL     1      45.118 -20.355   5.216  1.00  0.00     0.002 A 
HETATM   14  C   UNL     1      44.676 -19.029   5.244  1.00  0.00     0.012 A 
BRANCH   9  15
HETATM   15  O   UNL     1      42.985 -18.778   2.017  1.00  0.00    -0.359 OA
HETATM   16  H   UNL     1      42.075 -19.145   2.096  1.00  0.00     0.218 HD
ENDBRANCH   9  15
ENDBRANCH   7   8
ENDBRANCH   3   7
BRANCH   1  17
HETATM   17  C   UNL     1      40.225 -13.732   5.352  1.00  0.00     0.127 C 
BRANCH  17  18
HETATM   18  N   UNL     1      39.658 -13.475   6.670  1.00  0.00    -0.376 N 
HETATM   19  H   UNL     1      40.012 -14.132   7.377  1.00  0.00     0.161 HD
BRANCH  18  20
HETATM   20  C   UNL     1      39.493 -12.221   7.250  1.00  0.00     0.100 A 
HETATM   21  C   UNL     1      39.717 -11.078   6.467  1.00  0.00     0.048 A 
HETATM   22  C   UNL     1      39.623  -9.806   7.028  1.00  0.00     0.005 A 
HETATM   23  C   UNL     1      39.312  -9.679   8.374  1.00  0.00     0.017 A 
HETATM   24  C   UNL     1      39.101 -10.827   9.122  1.00  0.00     0.089 A 
HETATM   25  N   UNL     1      39.204 -12.039   8.549  1.00  0.00    -0.353 N 
HETATM   26  H   UNL     1      39.026 -12.849   9.132  1.00  0.00     0.166 HD
ENDBRANCH  18  20
ENDBRANCH  17  18
ENDBRANCH   1  17
TORSDOF 6
ENDMDL
