MODEL 1
REMARK VINA RESULT:      -8.8      0.000      0.000
REMARK  9 active torsions:
REMARK  status: ('A' for Active; 'I' for Inactive)
REMARK    1  A    between atoms: O_2  and  C_3 
REMARK    2  A    between atoms: C_4  and  O_5 
REMARK    3  A    between atoms: C_6  and  C_7 
REMARK    4  A    between atoms: N_8  and  N_9 
REMARK       I    between atoms: N_9  and  C_10 
REMARK    5  A    between atoms: C_10  and  C_11 
REMARK    6  A    between atoms: C_11  and  N_12 
REMARK       I    between atoms: N_12  and  C_13 
REMARK    7  A    between atoms: C_13  and  C_14 
REMARK    8  A    between atoms: C_15  and  C_16 
REMARK    9  A    between atoms: C_15  and  C_22 
ROOT
HETATM    1  N   UNL     1      43.483 -14.193   6.636  1.00  0.00    -0.352 N 
HETATM    2  C   UNL     1      43.449 -13.902   5.295  1.00  0.00     0.223 C 
HETATM    3  O   UNL     1      44.455 -13.655   4.640  1.00  0.00    -0.273 OA
HETATM    4  H   UNL     1      42.652 -14.532   7.102  1.00  0.00     0.162 HD
ENDROOT
BRANCH   1   5
HETATM    5  C   UNL     1      44.722 -14.147   7.387  1.00  0.00     0.227 C 
BRANCH   5   6
HETATM    6  C   UNL     1      44.825 -12.918   8.292  1.00  0.00     0.255 C 
HETATM    7  N   UNL     1      43.690 -12.122   8.230  1.00  0.00    -0.246 N 
HETATM    8  H   UNL     1      42.991 -12.303   7.505  1.00  0.00     0.192 HD
HETATM    9  O   UNL     1      45.821 -12.710   8.983  1.00  0.00    -0.270 OA
BRANCH   7  10
HETATM   10  N   UNL     1      43.540 -11.066   9.076  1.00  0.00    -0.184 NA
HETATM   11  C   UNL     1      43.167 -11.382  10.278  1.00  0.00     0.153 C 
BRANCH  11  12
HETATM   12  C   UNL     1      42.997 -10.357  11.328  1.00  0.00     0.019 A 
HETATM   13  C   UNL     1      42.123  -9.287  11.132  1.00  0.00     0.110 A 
HETATM   14  C   UNL     1      41.934  -8.318  12.131  1.00  0.00     0.102 A 
HETATM   15  C   UNL     1      42.635  -8.430  13.333  1.00  0.00     0.040 A 
HETATM   16  C   UNL     1      43.514  -9.500  13.532  1.00  0.00     0.004 A 
HETATM   17  C   UNL     1      43.695 -10.462  12.535  1.00  0.00     0.016 A 
BRANCH  13  18
HETATM   18  O   UNL     1      41.421  -9.166   9.958  1.00  0.00    -0.357 OA
HETATM   19  H   UNL     1      41.716  -8.319   9.570  1.00  0.00     0.218 HD
ENDBRANCH  13  18
BRANCH  14  20
HETATM   20  O   UNL     1      41.040  -7.327  11.809  1.00  0.00    -0.353 OA
HETATM   21  C   UNL     1      39.841  -7.276  12.574  1.00  0.00     0.210 C 
ENDBRANCH  14  20
ENDBRANCH  11  12
ENDBRANCH   7  10
ENDBRANCH   5   6
ENDBRANCH   1   5
BRANCH   2  22
HETATM   22  C   UNL     1      42.091 -13.942   4.704  1.00  0.00     0.097 A 
HETATM   23  C   UNL     1      41.613 -15.108   3.826  1.00  0.00     0.027 A 
HETATM   24  C   UNL     1      41.043 -14.877   5.227  1.00  0.00     0.035 A 
BRANCH  23  25
HETATM   25  C   UNL     1      40.771 -14.713   2.605  1.00  0.00    -0.044 A 
HETATM   26  C   UNL     1      39.427 -15.114   2.496  1.00  0.00     0.008 A 
HETATM   27  C   UNL     1      38.639 -14.749   1.401  1.00  0.00     0.001 A 
HETATM   28  C   UNL     1      39.183 -13.972   0.383  1.00  0.00     0.000 A 
HETATM   29  C   UNL     1      40.509 -13.557   0.464  1.00  0.00     0.001 A 
HETATM   30  C   UNL     1      41.290 -13.919   1.566  1.00  0.00     0.008 A 
ENDBRANCH  23  25
BRANCH  23  31
HETATM   31  C   UNL     1      42.434 -16.389   3.639  1.00  0.00    -0.044 A 
HETATM   32  C   UNL     1      42.359 -17.431   4.584  1.00  0.00     0.008 A 
HETATM   33  C   UNL     1      43.070 -18.623   4.421  1.00  0.00     0.001 A 
HETATM   34  C   UNL     1      43.876 -18.803   3.301  1.00  0.00     0.000 A 
HETATM   35  C   UNL     1      43.963 -17.795   2.346  1.00  0.00     0.001 A 
HETATM   36  C   UNL     1      43.244 -16.607   2.511  1.00  0.00     0.008 A 
ENDBRANCH  23  31
ENDBRANCH   2  22
TORSDOF 9
ENDMDL
MODEL 2
REMARK VINA RESULT:      -8.7      5.387      9.581
REMARK  9 active torsions:
REMARK  status: ('A' for Active; 'I' for Inactive)
REMARK    1  A    between atoms: O_2  and  C_3 
REMARK    2  A    between atoms: C_4  and  O_5 
REMARK    3  A    between atoms: C_6  and  C_7 
REMARK    4  A    between atoms: N_8  and  N_9 
REMARK       I    between atoms: N_9  and  C_10 
REMARK    5  A    between atoms: C_10  and  C_11 
REMARK    6  A    between atoms: C_11  and  N_12 
REMARK       I    between atoms: N_12  and  C_13 
REMARK    7  A    between atoms: C_13  and  C_14 
REMARK    8  A    between atoms: C_15  and  C_16 
REMARK    9  A    between atoms: C_15  and  C_22 
ROOT
HETATM    1  N   UNL     1      41.984 -14.874   5.523  1.00  0.00    -0.352 N 
HETATM    2  C   UNL     1      41.629 -16.113   5.995  1.00  0.00     0.223 C 
HETATM    3  O   UNL     1      40.468 -16.433   6.224  1.00  0.00    -0.273 OA
HETATM    4  H   UNL     1      42.931 -14.703   5.212  1.00  0.00     0.162 HD
ENDROOT
BRANCH   1   5
HETATM    5  C   UNL     1      41.000 -13.826   5.340  1.00  0.00     0.227 C 
BRANCH   5   6
HETATM    6  C   UNL     1      40.453 -13.764   3.913  1.00  0.00     0.255 C 
HETATM    7  N   UNL     1      41.166 -12.883   3.113  1.00  0.00    -0.246 N 
HETATM    8  H   UNL     1      41.843 -12.250   3.548  1.00  0.00     0.192 HD
HETATM    9  O   UNL     1      39.492 -14.447   3.563  1.00  0.00    -0.270 OA
BRANCH   7  10
HETATM   10  N   UNL     1      40.918 -12.806   1.777  1.00  0.00    -0.184 NA
HETATM   11  C   UNL     1      41.719 -13.507   1.035  1.00  0.00     0.153 C 
BRANCH  11  12
HETATM   12  C   UNL     1      41.561 -13.564  -0.432  1.00  0.00     0.019 A 
HETATM   13  C   UNL     1      40.485 -14.252  -0.997  1.00  0.00     0.110 A 
HETATM   14  C   UNL     1      40.310 -14.296  -2.390  1.00  0.00     0.102 A 
HETATM   15  C   UNL     1      41.228 -13.645  -3.215  1.00  0.00     0.040 A 
HETATM   16  C   UNL     1      42.309 -12.957  -2.652  1.00  0.00     0.004 A 
HETATM   17  C   UNL     1      42.475 -12.915  -1.267  1.00  0.00     0.016 A 
BRANCH  13  18
HETATM   18  O   UNL     1      39.570 -14.892  -0.199  1.00  0.00    -0.357 OA
HETATM   19  H   UNL     1      39.956 -15.772  -0.022  1.00  0.00     0.218 HD
ENDBRANCH  13  18
BRANCH  14  20
HETATM   20  O   UNL     1      39.206 -14.998  -2.809  1.00  0.00    -0.353 OA
HETATM   21  C   UNL     1      39.389 -15.873  -3.915  1.00  0.00     0.210 C 
ENDBRANCH  14  20
ENDBRANCH  11  12
ENDBRANCH   7  10
ENDBRANCH   5   6
ENDBRANCH   1   5
BRANCH   2  22
HETATM   22  C   UNL     1      42.771 -17.040   6.175  1.00  0.00     0.097 A 
HETATM   23  C   UNL     1      43.397 -17.809   5.002  1.00  0.00     0.027 A 
HETATM   24  C   UNL     1      44.148 -16.678   5.707  1.00  0.00     0.035 A 
BRANCH  23  25
HETATM   25  C   UNL     1      43.789 -19.262   5.300  1.00  0.00    -0.044 A 
HETATM   26  C   UNL     1      44.491 -20.027   4.350  1.00  0.00     0.008 A 
HETATM   27  C   UNL     1      44.873 -21.346   4.609  1.00  0.00     0.001 A 
HETATM   28  C   UNL     1      44.557 -21.934   5.830  1.00  0.00     0.000 A 
HETATM   29  C   UNL     1      43.866 -21.201   6.791  1.00  0.00     0.001 A 
HETATM   30  C   UNL     1      43.493 -19.879   6.529  1.00  0.00     0.008 A 
ENDBRANCH  23  25
BRANCH  23  31
HETATM   31  C   UNL     1      43.005 -17.546   3.544  1.00  0.00    -0.044 A 
HETATM   32  C   UNL     1      43.965 -17.107   2.612  1.00  0.00     0.008 A 
HETATM   33  C   UNL     1      43.643 -16.893   1.269  1.00  0.00     0.001 A 
HETATM   34  C   UNL     1      42.345 -17.118   0.823  1.00  0.00     0.000 A 
HETATM   35  C   UNL     1      41.376 -17.561   1.718  1.00  0.00     0.001 A 
HETATM   36  C   UNL     1      41.706 -17.780   3.058  1.00  0.00     0.008 A 
ENDBRANCH  23  31
ENDBRANCH   2  22
TORSDOF 9
ENDMDL
MODEL 3
REMARK VINA RESULT:      -8.7      6.421     12.111
REMARK  9 active torsions:
REMARK  status: ('A' for Active; 'I' for Inactive)
REMARK    1  A    between atoms: O_2  and  C_3 
REMARK    2  A    between atoms: C_4  and  O_5 
REMARK    3  A    between atoms: C_6  and  C_7 
REMARK    4  A    between atoms: N_8  and  N_9 
REMARK       I    between atoms: N_9  and  C_10 
REMARK    5  A    between atoms: C_10  and  C_11 
REMARK    6  A    between atoms: C_11  and  N_12 
REMARK       I    between atoms: N_12  and  C_13 
REMARK    7  A    between atoms: C_13  and  C_14 
REMARK    8  A    between atoms: C_15  and  C_16 
REMARK    9  A    between atoms: C_15  and  C_22 
ROOT
HETATM    1  N   UNL     1      41.594 -15.822  -0.602  1.00  0.00    -0.352 N 
HETATM    2  C   UNL     1      40.937 -15.872   0.603  1.00  0.00     0.223 C 
HETATM    3  O   UNL     1      40.193 -14.980   0.995  1.00  0.00    -0.273 OA
HETATM    4  H   UNL     1      42.079 -16.639  -0.949  1.00  0.00     0.162 HD
ENDROOT
BRANCH   1   5
HETATM    5  C   UNL     1      41.508 -14.657  -1.460  1.00  0.00     0.227 C 
BRANCH   5   6
HETATM    6  C   UNL     1      40.355 -14.737  -2.461  1.00  0.00     0.255 C 
HETATM    7  N   UNL     1      39.122 -14.519  -1.862  1.00  0.00    -0.246 N 
HETATM    8  H   UNL     1      39.059 -14.500  -0.840  1.00  0.00     0.192 HD
HETATM    9  O   UNL     1      40.553 -14.962  -3.654  1.00  0.00    -0.270 OA
BRANCH   7  10
HETATM   10  N   UNL     1      37.996 -14.406  -2.619  1.00  0.00    -0.184 NA
HETATM   11  C   UNL     1      37.750 -13.207  -3.049  1.00  0.00     0.153 C 
BRANCH  11  12
HETATM   12  C   UNL     1      36.589 -12.920  -3.916  1.00  0.00     0.019 A 
HETATM   13  C   UNL     1      36.258 -13.788  -4.958  1.00  0.00     0.110 A 
HETATM   14  C   UNL     1      35.144 -13.540  -5.776  1.00  0.00     0.102 A 
HETATM   15  C   UNL     1      34.363 -12.407  -5.541  1.00  0.00     0.040 A 
HETATM   16  C   UNL     1      34.693 -11.534  -4.500  1.00  0.00     0.004 A 
HETATM   17  C   UNL     1      35.801 -11.789  -3.688  1.00  0.00     0.016 A 
BRANCH  13  18
HETATM   18  O   UNL     1      37.013 -14.909  -5.197  1.00  0.00    -0.357 OA
HETATM   19  H   UNL     1      36.374 -15.592  -5.484  1.00  0.00     0.218 HD
ENDBRANCH  13  18
BRANCH  14  20
HETATM   20  O   UNL     1      34.929 -14.479  -6.755  1.00  0.00    -0.353 OA
HETATM   21  C   UNL     1      35.190 -14.074  -8.095  1.00  0.00     0.210 C 
ENDBRANCH  14  20
ENDBRANCH  11  12
ENDBRANCH   7  10
ENDBRANCH   5   6
ENDBRANCH   1   5
BRANCH   2  22
HETATM   22  C   UNL     1      41.184 -17.113   1.373  1.00  0.00     0.097 A 
HETATM   23  C   UNL     1      41.935 -17.113   2.712  1.00  0.00     0.027 A 
HETATM   24  C   UNL     1      40.436 -17.406   2.638  1.00  0.00     0.035 A 
BRANCH  23  25
HETATM   25  C   UNL     1      42.913 -18.277   2.921  1.00  0.00    -0.044 A 
HETATM   26  C   UNL     1      43.589 -18.439   4.145  1.00  0.00     0.008 A 
HETATM   27  C   UNL     1      44.469 -19.503   4.361  1.00  0.00     0.001 A 
HETATM   28  C   UNL     1      44.695 -20.433   3.351  1.00  0.00     0.000 A 
HETATM   29  C   UNL     1      44.038 -20.302   2.131  1.00  0.00     0.001 A 
HETATM   30  C   UNL     1      43.153 -19.239   1.923  1.00  0.00     0.008 A 
ENDBRANCH  23  25
BRANCH  23  31
HETATM   31  C   UNL     1      42.331 -15.819   3.434  1.00  0.00    -0.044 A 
HETATM   32  C   UNL     1      41.651 -15.412   4.598  1.00  0.00     0.008 A 
HETATM   33  C   UNL     1      42.013 -14.256   5.294  1.00  0.00     0.001 A 
HETATM   34  C   UNL     1      43.072 -13.477   4.842  1.00  0.00     0.000 A 
HETATM   35  C   UNL     1      43.769 -13.858   3.700  1.00  0.00     0.001 A 
HETATM   36  C   UNL     1      43.407 -15.019   3.011  1.00  0.00     0.008 A 
ENDBRANCH  23  31
ENDBRANCH   2  22
TORSDOF 9
ENDMDL
MODEL 4
REMARK VINA RESULT:      -8.5      5.234      9.018
REMARK  9 active torsions:
REMARK  status: ('A' for Active; 'I' for Inactive)
REMARK    1  A    between atoms: O_2  and  C_3 
REMARK    2  A    between atoms: C_4  and  O_5 
REMARK    3  A    between atoms: C_6  and  C_7 
REMARK    4  A    between atoms: N_8  and  N_9 
REMARK       I    between atoms: N_9  and  C_10 
REMARK    5  A    between atoms: C_10  and  C_11 
REMARK    6  A    between atoms: C_11  and  N_12 
REMARK       I    between atoms: N_12  and  C_13 
REMARK    7  A    between atoms: C_13  and  C_14 
REMARK    8  A    between atoms: C_15  and  C_16 
REMARK    9  A    between atoms: C_15  and  C_22 
ROOT
HETATM    1  N   UNL     1      41.829 -14.889   5.860  1.00  0.00    -0.352 N 
HETATM    2  C   UNL     1      41.520 -16.197   6.142  1.00  0.00     0.223 C 
HETATM    3  O   UNL     1      40.369 -16.604   6.244  1.00  0.00    -0.273 OA
HETATM    4  H   UNL     1      42.782 -14.630   5.642  1.00  0.00     0.162 HD
ENDROOT
BRANCH   1   5
HETATM    5  C   UNL     1      40.796 -13.879   5.744  1.00  0.00     0.227 C 
BRANCH   5   6
HETATM    6  C   UNL     1      40.473 -13.520   4.293  1.00  0.00     0.255 C 
HETATM    7  N   UNL     1      41.436 -13.986   3.409  1.00  0.00    -0.246 N 
HETATM    8  H   UNL     1      42.318 -14.352   3.778  1.00  0.00     0.192 HD
HETATM    9  O   UNL     1      39.456 -12.896   3.997  1.00  0.00    -0.270 OA
BRANCH   7  10
HETATM   10  N   UNL     1      41.244 -13.890   2.065  1.00  0.00    -0.184 NA
HETATM   11  C   UNL     1      42.067 -13.094   1.455  1.00  0.00     0.153 C 
BRANCH  11  12
HETATM   12  C   UNL     1      42.020 -12.910  -0.010  1.00  0.00     0.019 A 
HETATM   13  C   UNL     1      42.542 -11.752  -0.591  1.00  0.00     0.110 A 
HETATM   14  C   UNL     1      42.525 -11.573  -1.983  1.00  0.00     0.102 A 
HETATM   15  C   UNL     1      41.973 -12.568  -2.793  1.00  0.00     0.040 A 
HETATM   16  C   UNL     1      41.447 -13.728  -2.215  1.00  0.00     0.004 A 
HETATM   17  C   UNL     1      41.470 -13.901  -0.829  1.00  0.00     0.016 A 
BRANCH  13  18
HETATM   18  O   UNL     1      43.093 -10.768   0.192  1.00  0.00    -0.357 OA
HETATM   19  H   UNL     1      43.594 -11.242   0.885  1.00  0.00     0.218 HD
ENDBRANCH  13  18
BRANCH  14  20
HETATM   20  O   UNL     1      43.079 -10.395  -2.419  1.00  0.00    -0.353 OA
HETATM   21  C   UNL     1      42.197  -9.465  -3.038  1.00  0.00     0.210 C 
ENDBRANCH  14  20
ENDBRANCH  11  12
ENDBRANCH   7  10
ENDBRANCH   5   6
ENDBRANCH   1   5
BRANCH   2  22
HETATM   22  C   UNL     1      42.703 -17.079   6.281  1.00  0.00     0.097 A 
HETATM   23  C   UNL     1      43.353 -17.777   5.078  1.00  0.00     0.027 A 
HETATM   24  C   UNL     1      44.059 -16.640   5.818  1.00  0.00     0.035 A 
BRANCH  23  25
HETATM   25  C   UNL     1      43.810 -19.222   5.320  1.00  0.00    -0.044 A 
HETATM   26  C   UNL     1      43.504 -19.881   6.525  1.00  0.00     0.008 A 
HETATM   27  C   UNL     1      43.896 -21.202   6.757  1.00  0.00     0.001 A 
HETATM   28  C   UNL     1      44.608 -21.897   5.785  1.00  0.00     0.000 A 
HETATM   29  C   UNL     1      44.923 -21.272   4.581  1.00  0.00     0.001 A 
HETATM   30  C   UNL     1      44.522 -19.952   4.352  1.00  0.00     0.008 A 
ENDBRANCH  23  25
BRANCH  23  31
HETATM   31  C   UNL     1      42.939 -17.480   3.632  1.00  0.00    -0.044 A 
HETATM   32  C   UNL     1      43.848 -16.888   2.734  1.00  0.00     0.008 A 
HETATM   33  C   UNL     1      43.509 -16.639   1.402  1.00  0.00     0.001 A 
HETATM   34  C   UNL     1      42.245 -16.979   0.933  1.00  0.00     0.000 A 
HETATM   35  C   UNL     1      41.327 -17.573   1.793  1.00  0.00     0.001 A 
HETATM   36  C   UNL     1      41.675 -17.827   3.123  1.00  0.00     0.008 A 
ENDBRANCH  23  31
ENDBRANCH   2  22
TORSDOF 9
ENDMDL
MODEL 5
REMARK VINA RESULT:      -8.5      5.003      8.776
REMARK  9 active torsions:
REMARK  status: ('A' for Active; 'I' for Inactive)
REMARK    1  A    between atoms: O_2  and  C_3 
REMARK    2  A    between atoms: C_4  and  O_5 
REMARK    3  A    between atoms: C_6  and  C_7 
REMARK    4  A    between atoms: N_8  and  N_9 
REMARK       I    between atoms: N_9  and  C_10 
REMARK    5  A    between atoms: C_10  and  C_11 
REMARK    6  A    between atoms: C_11  and  N_12 
REMARK       I    between atoms: N_12  and  C_13 
REMARK    7  A    between atoms: C_13  and  C_14 
REMARK    8  A    between atoms: C_15  and  C_16 
REMARK    9  A    between atoms: C_15  and  C_22 
ROOT
HETATM    1  N   UNL     1      41.755 -13.246   4.563  1.00  0.00    -0.352 N 
HETATM    2  C   UNL     1      42.501 -12.991   3.439  1.00  0.00     0.223 C 
HETATM    3  O   UNL     1      43.674 -13.329   3.326  1.00  0.00    -0.273 OA
HETATM    4  H   UNL     1      40.757 -13.081   4.556  1.00  0.00     0.162 HD
ENDROOT
BRANCH   1   5
HETATM    5  C   UNL     1      42.341 -13.868   5.733  1.00  0.00     0.227 C 
BRANCH   5   6
HETATM    6  C   UNL     1      42.267 -15.395   5.697  1.00  0.00     0.255 C 
HETATM    7  N   UNL     1      43.005 -15.934   4.653  1.00  0.00    -0.246 N 
HETATM    8  H   UNL     1      43.374 -15.312   3.928  1.00  0.00     0.192 HD
HETATM    9  O   UNL     1      41.618 -16.027   6.529  1.00  0.00    -0.270 OA
BRANCH   7  10
HETATM   10  N   UNL     1      43.177 -17.281   4.551  1.00  0.00    -0.184 NA
HETATM   11  C   UNL     1      43.616 -17.685   3.399  1.00  0.00     0.153 C 
BRANCH  11  12
HETATM   12  C   UNL     1      43.894 -19.112   3.136  1.00  0.00     0.019 A 
HETATM   13  C   UNL     1      44.567 -19.884   4.085  1.00  0.00     0.110 A 
HETATM   14  C   UNL     1      44.818 -21.247   3.858  1.00  0.00     0.102 A 
HETATM   15  C   UNL     1      44.391 -21.831   2.665  1.00  0.00     0.040 A 
HETATM   16  C   UNL     1      43.719 -21.060   1.710  1.00  0.00     0.004 A 
HETATM   17  C   UNL     1      43.470 -19.706   1.943  1.00  0.00     0.016 A 
BRANCH  13  18
HETATM   18  O   UNL     1      44.987 -19.326   5.266  1.00  0.00    -0.357 OA
HETATM   19  H   UNL     1      45.782 -19.836   5.522  1.00  0.00     0.218 HD
ENDBRANCH  13  18
BRANCH  14  20
HETATM   20  O   UNL     1      45.479 -21.887   4.878  1.00  0.00    -0.353 OA
HETATM   21  C   UNL     1      44.678 -22.626   5.792  1.00  0.00     0.210 C 
ENDBRANCH  14  20
ENDBRANCH  11  12
ENDBRANCH   7  10
ENDBRANCH   5   6
ENDBRANCH   1   5
BRANCH   2  22
HETATM   22  C   UNL     1      41.753 -12.299   2.363  1.00  0.00     0.097 A 
HETATM   23  C   UNL     1      41.076 -13.060   1.214  1.00  0.00     0.027 A 
HETATM   24  C   UNL     1      40.257 -12.354   2.296  1.00  0.00     0.035 A 
BRANCH  23  25
HETATM   25  C   UNL     1      41.198 -12.409  -0.171  1.00  0.00    -0.044 A 
HETATM   26  C   UNL     1      40.053 -12.144  -0.945  1.00  0.00     0.008 A 
HETATM   27  C   UNL     1      40.142 -11.536  -2.200  1.00  0.00     0.001 A 
HETATM   28  C   UNL     1      41.385 -11.180  -2.713  1.00  0.00     0.000 A 
HETATM   29  C   UNL     1      42.536 -11.426  -1.968  1.00  0.00     0.001 A 
HETATM   30  C   UNL     1      42.440 -12.028  -0.710  1.00  0.00     0.008 A 
ENDBRANCH  23  25
BRANCH  23  31
HETATM   31  C   UNL     1      40.973 -14.589   1.186  1.00  0.00    -0.044 A 
HETATM   32  C   UNL     1      41.766 -15.344   0.299  1.00  0.00     0.008 A 
HETATM   33  C   UNL     1      41.718 -16.740   0.277  1.00  0.00     0.001 A 
HETATM   34  C   UNL     1      40.873 -17.419   1.149  1.00  0.00     0.000 A 
HETATM   35  C   UNL     1      40.085 -16.701   2.044  1.00  0.00     0.001 A 
HETATM   36  C   UNL     1      40.142 -15.305   2.066  1.00  0.00     0.008 A 
ENDBRANCH  23  31
ENDBRANCH   2  22
TORSDOF 9
ENDMDL
MODEL 6
REMARK VINA RESULT:      -8.5      1.510      2.072
REMARK  9 active torsions:
REMARK  status: ('A' for Active; 'I' for Inactive)
REMARK    1  A    between atoms: O_2  and  C_3 
REMARK    2  A    between atoms: C_4  and  O_5 
REMARK    3  A    between atoms: C_6  and  C_7 
REMARK    4  A    between atoms: N_8  and  N_9 
REMARK       I    between atoms: N_9  and  C_10 
REMARK    5  A    between atoms: C_10  and  C_11 
REMARK    6  A    between atoms: C_11  and  N_12 
REMARK       I    between atoms: N_12  and  C_13 
REMARK    7  A    between atoms: C_13  and  C_14 
REMARK    8  A    between atoms: C_15  and  C_16 
REMARK    9  A    between atoms: C_15  and  C_22 
ROOT
HETATM    1  N   UNL     1      43.459 -14.164   6.553  1.00  0.00    -0.352 N 
HETATM    2  C   UNL     1      42.815 -15.359   6.344  1.00  0.00     0.223 C 
HETATM    3  O   UNL     1      43.283 -16.438   6.687  1.00  0.00    -0.273 OA
HETATM    4  H   UNL     1      42.975 -13.292   6.388  1.00  0.00     0.162 HD
ENDROOT
BRANCH   1   5
HETATM    5  C   UNL     1      44.789 -14.115   7.127  1.00  0.00     0.227 C 
BRANCH   5   6
HETATM    6  C   UNL     1      44.966 -12.968   8.123  1.00  0.00     0.255 C 
HETATM    7  N   UNL     1      43.867 -12.122   8.152  1.00  0.00    -0.246 N 
HETATM    8  H   UNL     1      43.145 -12.215   7.432  1.00  0.00     0.192 HD
HETATM    9  O   UNL     1      45.985 -12.858   8.803  1.00  0.00    -0.270 OA
BRANCH   7  10
HETATM   10  N   UNL     1      43.781 -11.131   9.082  1.00  0.00    -0.184 NA
HETATM   11  C   UNL     1      42.579 -10.882   9.501  1.00  0.00     0.153 C 
BRANCH  11  12
HETATM   12  C   UNL     1      42.317  -9.864  10.539  1.00  0.00     0.019 A 
HETATM   13  C   UNL     1      42.908  -9.975  11.798  1.00  0.00     0.110 A 
HETATM   14  C   UNL     1      42.687  -9.003  12.787  1.00  0.00     0.102 A 
HETATM   15  C   UNL     1      41.861  -7.915  12.502  1.00  0.00     0.040 A 
HETATM   16  C   UNL     1      41.264  -7.801  11.241  1.00  0.00     0.004 A 
HETATM   17  C   UNL     1      41.492  -8.770  10.262  1.00  0.00     0.016 A 
BRANCH  13  18
HETATM   18  O   UNL     1      43.729 -11.037  12.091  1.00  0.00    -0.357 OA
HETATM   19  H   UNL     1      44.221 -11.216  11.266  1.00  0.00     0.218 HD
ENDBRANCH  13  18
BRANCH  14  20
HETATM   20  O   UNL     1      43.337  -9.232  13.974  1.00  0.00    -0.353 OA
HETATM   21  C   UNL     1      42.525  -9.318  15.140  1.00  0.00     0.210 C 
ENDBRANCH  14  20
ENDBRANCH  11  12
ENDBRANCH   7  10
ENDBRANCH   5   6
ENDBRANCH   1   5
BRANCH   2  22
HETATM   22  C   UNL     1      41.489 -15.223   5.696  1.00  0.00     0.097 A 
HETATM   23  C   UNL     1      41.194 -15.799   4.303  1.00  0.00     0.027 A 
HETATM   24  C   UNL     1      40.565 -16.395   5.563  1.00  0.00     0.035 A 
BRANCH  23  25
HETATM   25  C   UNL     1      40.337 -14.911   3.390  1.00  0.00    -0.044 A 
HETATM   26  C   UNL     1      39.533 -15.478   2.384  1.00  0.00     0.008 A 
HETATM   27  C   UNL     1      38.732 -14.689   1.554  1.00  0.00     0.001 A 
HETATM   28  C   UNL     1      38.718 -13.307   1.713  1.00  0.00     0.000 A 
HETATM   29  C   UNL     1      39.499 -12.717   2.704  1.00  0.00     0.001 A 
HETATM   30  C   UNL     1      40.294 -13.513   3.535  1.00  0.00     0.008 A 
ENDBRANCH  23  25
BRANCH  23  31
HETATM   31  C   UNL     1      42.186 -16.700   3.558  1.00  0.00    -0.044 A 
HETATM   32  C   UNL     1      43.083 -16.154   2.619  1.00  0.00     0.008 A 
HETATM   33  C   UNL     1      44.020 -16.947   1.951  1.00  0.00     0.001 A 
HETATM   34  C   UNL     1      44.084 -18.312   2.210  1.00  0.00     0.000 A 
HETATM   35  C   UNL     1      43.217 -18.878   3.139  1.00  0.00     0.001 A 
HETATM   36  C   UNL     1      42.286 -18.079   3.809  1.00  0.00     0.008 A 
ENDBRANCH  23  31
ENDBRANCH   2  22
TORSDOF 9
ENDMDL
MODEL 7
REMARK VINA RESULT:      -8.4      2.651      4.539
REMARK  9 active torsions:
REMARK  status: ('A' for Active; 'I' for Inactive)
REMARK    1  A    between atoms: O_2  and  C_3 
REMARK    2  A    between atoms: C_4  and  O_5 
REMARK    3  A    between atoms: C_6  and  C_7 
REMARK    4  A    between atoms: N_8  and  N_9 
REMARK       I    between atoms: N_9  and  C_10 
REMARK    5  A    between atoms: C_10  and  C_11 
REMARK    6  A    between atoms: C_11  and  N_12 
REMARK       I    between atoms: N_12  and  C_13 
REMARK    7  A    between atoms: C_13  and  C_14 
REMARK    8  A    between atoms: C_15  and  C_16 
REMARK    9  A    between atoms: C_15  and  C_22 
ROOT
HETATM    1  N   UNL     1      39.838 -14.888   5.445  1.00  0.00    -0.352 N 
HETATM    2  C   UNL     1      40.350 -15.317   4.245  1.00  0.00     0.223 C 
HETATM    3  O   UNL     1      40.398 -14.606   3.248  1.00  0.00    -0.273 OA
HETATM    4  H   UNL     1      39.951 -15.455   6.275  1.00  0.00     0.162 HD
ENDROOT
BRANCH   1   5
HETATM    5  C   UNL     1      39.242 -13.574   5.585  1.00  0.00     0.227 C 
BRANCH   5   6
HETATM    6  C   UNL     1      40.156 -12.577   6.297  1.00  0.00     0.255 C 
HETATM    7  N   UNL     1      39.525 -11.952   7.363  1.00  0.00    -0.246 N 
HETATM    8  H   UNL     1      38.513 -12.063   7.479  1.00  0.00     0.192 HD
HETATM    9  O   UNL     1      41.315 -12.392   5.931  1.00  0.00    -0.270 OA
BRANCH   7  10
HETATM   10  N   UNL     1      40.225 -11.143   8.204  1.00  0.00    -0.184 NA
HETATM   11  C   UNL     1      39.777 -11.108   9.421  1.00  0.00     0.153 C 
BRANCH  11  12
HETATM   12  C   UNL     1      40.448 -10.310  10.468  1.00  0.00     0.019 A 
HETATM   13  C   UNL     1      40.550 -10.802  11.770  1.00  0.00     0.110 A 
HETATM   14  C   UNL     1      41.205 -10.066  12.770  1.00  0.00     0.102 A 
HETATM   15  C   UNL     1      41.755  -8.822  12.453  1.00  0.00     0.040 A 
HETATM   16  C   UNL     1      41.652  -8.325  11.150  1.00  0.00     0.004 A 
HETATM   17  C   UNL     1      41.002  -9.065  10.160  1.00  0.00     0.016 A 
BRANCH  13  18
HETATM   18  O   UNL     1      40.020 -12.026  12.097  1.00  0.00    -0.357 OA
HETATM   19  H   UNL     1      39.077 -11.973  11.841  1.00  0.00     0.218 HD
ENDBRANCH  13  18
BRANCH  14  20
HETATM   20  O   UNL     1      41.240 -10.672  14.002  1.00  0.00    -0.353 OA
HETATM   21  C   UNL     1      41.969 -10.000  15.023  1.00  0.00     0.210 C 
ENDBRANCH  14  20
ENDBRANCH  11  12
ENDBRANCH   7  10
ENDBRANCH   5   6
ENDBRANCH   1   5
BRANCH   2  22
HETATM   22  C   UNL     1      40.866 -16.705   4.272  1.00  0.00     0.097 A 
HETATM   23  C   UNL     1      42.267 -17.050   4.798  1.00  0.00     0.027 A 
HETATM   24  C   UNL     1      41.006 -17.458   5.561  1.00  0.00     0.035 A 
BRANCH  23  25
HETATM   25  C   UNL     1      43.030 -18.113   3.996  1.00  0.00    -0.044 A 
HETATM   26  C   UNL     1      43.841 -19.062   4.647  1.00  0.00     0.008 A 
HETATM   27  C   UNL     1      44.529 -20.048   3.936  1.00  0.00     0.001 A 
HETATM   28  C   UNL     1      44.423 -20.107   2.550  1.00  0.00     0.000 A 
HETATM   29  C   UNL     1      43.625 -19.185   1.878  1.00  0.00     0.001 A 
HETATM   30  C   UNL     1      42.933 -18.204   2.596  1.00  0.00     0.008 A 
ENDBRANCH  23  25
BRANCH  23  31
HETATM   31  C   UNL     1      43.164 -16.017   5.490  1.00  0.00    -0.044 A 
HETATM   32  C   UNL     1      43.673 -14.916   4.774  1.00  0.00     0.008 A 
HETATM   33  C   UNL     1      44.464 -13.942   5.388  1.00  0.00     0.001 A 
HETATM   34  C   UNL     1      44.764 -14.044   6.742  1.00  0.00     0.000 A 
HETATM   35  C   UNL     1      44.268 -15.115   7.479  1.00  0.00     0.001 A 
HETATM   36  C   UNL     1      43.472 -16.083   6.861  1.00  0.00     0.008 A 
ENDBRANCH  23  31
ENDBRANCH   2  22
TORSDOF 9
ENDMDL
MODEL 8
REMARK VINA RESULT:      -8.4      2.430      4.668
REMARK  9 active torsions:
REMARK  status: ('A' for Active; 'I' for Inactive)
REMARK    1  A    between atoms: O_2  and  C_3 
REMARK    2  A    between atoms: C_4  and  O_5 
REMARK    3  A    between atoms: C_6  and  C_7 
REMARK    4  A    between atoms: N_8  and  N_9 
REMARK       I    between atoms: N_9  and  C_10 
REMARK    5  A    between atoms: C_10  and  C_11 
REMARK    6  A    between atoms: C_11  and  N_12 
REMARK       I    between atoms: N_12  and  C_13 
REMARK    7  A    between atoms: C_13  and  C_14 
REMARK    8  A    between atoms: C_15  and  C_16 
REMARK    9  A    between atoms: C_15  and  C_22 
ROOT
HETATM    1  N   UNL     1      41.993 -14.730   3.269  1.00  0.00    -0.352 N 
HETATM    2  C   UNL     1      43.063 -15.461   2.817  1.00  0.00     0.223 C 
HETATM    3  O   UNL     1      44.183 -14.985   2.670  1.00  0.00    -0.273 OA
HETATM    4  H   UNL     1      41.129 -15.195   3.513  1.00  0.00     0.162 HD
ENDROOT
BRANCH   1   5
HETATM    5  C   UNL     1      42.106 -13.308   3.527  1.00  0.00     0.227 C 
BRANCH   5   6
HETATM    6  C   UNL     1      42.415 -12.990   4.990  1.00  0.00     0.255 C 
HETATM    7  N   UNL     1      41.600 -11.987   5.494  1.00  0.00    -0.246 N 
HETATM    8  H   UNL     1      41.015 -11.447   4.850  1.00  0.00     0.192 HD
HETATM    9  O   UNL     1      43.292 -13.591   5.607  1.00  0.00    -0.270 OA
BRANCH   7  10
HETATM   10  N   UNL     1      41.629 -11.672   6.819  1.00  0.00    -0.184 NA
HETATM   11  C   UNL     1      41.748 -10.405   7.072  1.00  0.00     0.153 C 
BRANCH  11  12
HETATM   12  C   UNL     1      41.755  -9.892   8.458  1.00  0.00     0.019 A 
HETATM   13  C   UNL     1      42.522 -10.525   9.438  1.00  0.00     0.110 A 
HETATM   14  C   UNL     1      42.556 -10.035  10.753  1.00  0.00     0.102 A 
HETATM   15  C   UNL     1      41.808  -8.902  11.080  1.00  0.00     0.040 A 
HETATM   16  C   UNL     1      41.038  -8.267  10.101  1.00  0.00     0.004 A 
HETATM   17  C   UNL     1      41.011  -8.758   8.794  1.00  0.00     0.016 A 
BRANCH  13  18
HETATM   18  O   UNL     1      43.267 -11.636   9.131  1.00  0.00    -0.357 OA
HETATM   19  H   UNL     1      44.194 -11.378   9.303  1.00  0.00     0.218 HD
ENDBRANCH  13  18
BRANCH  14  20
HETATM   20  O   UNL     1      43.357 -10.747  11.612  1.00  0.00    -0.353 OA
HETATM   21  C   UNL     1      42.773 -11.147  12.847  1.00  0.00     0.210 C 
ENDBRANCH  14  20
ENDBRANCH  11  12
ENDBRANCH   7  10
ENDBRANCH   5   6
ENDBRANCH   1   5
BRANCH   2  22
HETATM   22  C   UNL     1      42.751 -16.885   2.552  1.00  0.00     0.097 A 
HETATM   23  C   UNL     1      42.831 -17.960   3.646  1.00  0.00     0.027 A 
HETATM   24  C   UNL     1      41.490 -17.513   3.062  1.00  0.00     0.035 A 
BRANCH  23  25
HETATM   25  C   UNL     1      43.423 -19.306   3.207  1.00  0.00    -0.044 A 
HETATM   26  C   UNL     1      44.353 -19.983   4.018  1.00  0.00     0.008 A 
HETATM   27  C   UNL     1      44.889 -21.218   3.645  1.00  0.00     0.001 A 
HETATM   28  C   UNL     1      44.508 -21.806   2.443  1.00  0.00     0.000 A 
HETATM   29  C   UNL     1      43.587 -21.163   1.621  1.00  0.00     0.001 A 
HETATM   30  C   UNL     1      43.048 -19.930   2.004  1.00  0.00     0.008 A 
ENDBRANCH  23  25
BRANCH  23  31
HETATM   31  C   UNL     1      43.067 -17.617   5.121  1.00  0.00    -0.044 A 
HETATM   32  C   UNL     1      41.980 -17.425   5.995  1.00  0.00     0.008 A 
HETATM   33  C   UNL     1      42.167 -17.146   7.351  1.00  0.00     0.001 A 
HETATM   34  C   UNL     1      43.454 -17.054   7.869  1.00  0.00     0.000 A 
HETATM   35  C   UNL     1      44.549 -17.248   7.033  1.00  0.00     0.001 A 
HETATM   36  C   UNL     1      44.356 -17.534   5.679  1.00  0.00     0.008 A 
ENDBRANCH  23  31
ENDBRANCH   2  22
TORSDOF 9
ENDMDL
MODEL 9
REMARK VINA RESULT:      -8.2      5.139      9.398
REMARK  9 active torsions:
REMARK  status: ('A' for Active; 'I' for Inactive)
REMARK    1  A    between atoms: O_2  and  C_3 
REMARK    2  A    between atoms: C_4  and  O_5 
REMARK    3  A    between atoms: C_6  and  C_7 
REMARK    4  A    between atoms: N_8  and  N_9 
REMARK       I    between atoms: N_9  and  C_10 
REMARK    5  A    between atoms: C_10  and  C_11 
REMARK    6  A    between atoms: C_11  and  N_12 
REMARK       I    between atoms: N_12  and  C_13 
REMARK    7  A    between atoms: C_13  and  C_14 
REMARK    8  A    between atoms: C_15  and  C_16 
REMARK    9  A    between atoms: C_15  and  C_22 
ROOT
HETATM    1  N   UNL     1      41.651 -15.092   5.947  1.00  0.00    -0.352 N 
HETATM    2  C   UNL     1      41.389 -16.423   6.162  1.00  0.00     0.223 C 
HETATM    3  O   UNL     1      40.255 -16.886   6.175  1.00  0.00    -0.273 OA
HETATM    4  H   UNL     1      42.602 -14.781   5.799  1.00  0.00     0.162 HD
ENDROOT
BRANCH   1   5
HETATM    5  C   UNL     1      40.581 -14.126   5.801  1.00  0.00     0.227 C 
BRANCH   5   6
HETATM    6  C   UNL     1      40.581 -13.437   4.436  1.00  0.00     0.255 C 
HETATM    7  N   UNL     1      40.893 -14.312   3.405  1.00  0.00    -0.246 N 
HETATM    8  H   UNL     1      41.250 -15.245   3.631  1.00  0.00     0.192 HD
HETATM    9  O   UNL     1      40.318 -12.242   4.319  1.00  0.00    -0.270 OA
BRANCH   7  10
HETATM   10  N   UNL     1      40.797 -13.913   2.106  1.00  0.00    -0.184 NA
HETATM   11  C   UNL     1      39.800 -14.426   1.454  1.00  0.00     0.153 C 
BRANCH  11  12
HETATM   12  C   UNL     1      39.531 -14.066   0.046  1.00  0.00     0.019 A 
HETATM   13  C   UNL     1      40.582 -13.958  -0.866  1.00  0.00     0.110 A 
HETATM   14  C   UNL     1      40.339 -13.639  -2.211  1.00  0.00     0.102 A 
HETATM   15  C   UNL     1      39.026 -13.423  -2.635  1.00  0.00     0.040 A 
HETATM   16  C   UNL     1      37.971 -13.528  -1.724  1.00  0.00     0.004 A 
HETATM   17  C   UNL     1      38.220 -13.849  -0.388  1.00  0.00     0.016 A 
BRANCH  13  18
HETATM   18  O   UNL     1      41.877 -14.174  -0.465  1.00  0.00    -0.357 OA
HETATM   19  H   UNL     1      41.810 -14.766   0.311  1.00  0.00     0.218 HD
ENDBRANCH  13  18
BRANCH  14  20
HETATM   20  O   UNL     1      41.461 -13.576  -2.999  1.00  0.00    -0.353 OA
HETATM   21  C   UNL     1      41.806 -12.296  -3.517  1.00  0.00     0.210 C 
ENDBRANCH  14  20
ENDBRANCH  11  12
ENDBRANCH   7  10
ENDBRANCH   5   6
ENDBRANCH   1   5
BRANCH   2  22
HETATM   22  C   UNL     1      42.602 -17.254   6.345  1.00  0.00     0.097 A 
HETATM   23  C   UNL     1      43.341 -17.899   5.163  1.00  0.00     0.027 A 
HETATM   24  C   UNL     1      43.958 -16.747   5.957  1.00  0.00     0.035 A 
BRANCH  23  25
HETATM   25  C   UNL     1      43.850 -19.327   5.404  1.00  0.00    -0.044 A 
HETATM   26  C   UNL     1      43.529 -20.016   6.588  1.00  0.00     0.008 A 
HETATM   27  C   UNL     1      43.968 -21.323   6.818  1.00  0.00     0.001 A 
HETATM   28  C   UNL     1      44.745 -21.972   5.863  1.00  0.00     0.000 A 
HETATM   29  C   UNL     1      45.076 -21.318   4.680  1.00  0.00     0.001 A 
HETATM   30  C   UNL     1      44.627 -20.013   4.453  1.00  0.00     0.008 A 
ENDBRANCH  23  25
BRANCH  23  31
HETATM   31  C   UNL     1      42.986 -17.593   3.704  1.00  0.00    -0.044 A 
HETATM   32  C   UNL     1      41.792 -18.084   3.140  1.00  0.00     0.008 A 
HETATM   33  C   UNL     1      41.427 -17.791   1.823  1.00  0.00     0.001 A 
HETATM   34  C   UNL     1      42.251 -16.994   1.036  1.00  0.00     0.000 A 
HETATM   35  C   UNL     1      43.433 -16.487   1.568  1.00  0.00     0.001 A 
HETATM   36  C   UNL     1      43.789 -16.778   2.888  1.00  0.00     0.008 A 
ENDBRANCH  23  31
ENDBRANCH   2  22
TORSDOF 9
ENDMDL
MODEL 10
REMARK VINA RESULT:      -8.2      3.729      6.299
REMARK  9 active torsions:
REMARK  status: ('A' for Active; 'I' for Inactive)
REMARK    1  A    between atoms: O_2  and  C_3 
REMARK    2  A    between atoms: C_4  and  O_5 
REMARK    3  A    between atoms: C_6  and  C_7 
REMARK    4  A    between atoms: N_8  and  N_9 
REMARK       I    between atoms: N_9  and  C_10 
REMARK    5  A    between atoms: C_10  and  C_11 
REMARK    6  A    between atoms: C_11  and  N_12 
REMARK       I    between atoms: N_12  and  C_13 
REMARK    7  A    between atoms: C_13  and  C_14 
REMARK    8  A    between atoms: C_15  and  C_16 
REMARK    9  A    between atoms: C_15  and  C_22 
ROOT
HETATM    1  N   UNL     1      39.784 -15.186   0.592  1.00  0.00    -0.352 N 
HETATM    2  C   UNL     1      41.073 -15.658   0.578  1.00  0.00     0.223 C 
HETATM    3  O   UNL     1      42.009 -15.032   0.094  1.00  0.00    -0.273 OA
HETATM    4  H   UNL     1      39.074 -15.667   1.127  1.00  0.00     0.162 HD
ENDROOT
BRANCH   1   5
HETATM    5  C   UNL     1      39.433 -13.932  -0.047  1.00  0.00     0.227 C 
BRANCH   5   6
HETATM    6  C   UNL     1      39.435 -12.749   0.922  1.00  0.00     0.255 C 
HETATM    7  N   UNL     1      38.935 -13.089   2.170  1.00  0.00    -0.246 N 
HETATM    8  H   UNL     1      38.469 -13.993   2.293  1.00  0.00     0.192 HD
HETATM    9  O   UNL     1      39.853 -11.643   0.584  1.00  0.00    -0.270 OA
BRANCH   7  10
HETATM   10  N   UNL     1      38.996 -12.206   3.205  1.00  0.00    -0.184 NA
HETATM   11  C   UNL     1      40.026 -12.350   3.981  1.00  0.00     0.153 C 
BRANCH  11  12
HETATM   12  C   UNL     1      40.262 -11.447   5.126  1.00  0.00     0.019 A 
HETATM   13  C   UNL     1      39.632 -11.682   6.349  1.00  0.00     0.110 A 
HETATM   14  C   UNL     1      39.865 -10.845   7.452  1.00  0.00     0.102 A 
HETATM   15  C   UNL     1      40.736  -9.763   7.317  1.00  0.00     0.040 A 
HETATM   16  C   UNL     1      41.368  -9.523   6.092  1.00  0.00     0.004 A 
HETATM   17  C   UNL     1      41.134 -10.361   5.000  1.00  0.00     0.016 A 
BRANCH  13  18
HETATM   18  O   UNL     1      38.777 -12.746   6.500  1.00  0.00    -0.357 OA
HETATM   19  H   UNL     1      39.312 -13.446   6.925  1.00  0.00     0.218 HD
ENDBRANCH  13  18
BRANCH  14  20
HETATM   20  O   UNL     1      39.188 -11.197   8.594  1.00  0.00    -0.353 OA
HETATM   21  C   UNL     1      39.662 -10.638   9.814  1.00  0.00     0.210 C 
ENDBRANCH  14  20
ENDBRANCH  11  12
ENDBRANCH   7  10
ENDBRANCH   5   6
ENDBRANCH   1   5
BRANCH   2  22
HETATM   22  C   UNL     1      41.237 -16.980   1.227  1.00  0.00     0.097 A 
HETATM   23  C   UNL     1      41.942 -17.148   2.580  1.00  0.00     0.027 A 
HETATM   24  C   UNL     1      40.434 -17.359   2.434  1.00  0.00     0.035 A 
BRANCH  23  25
HETATM   25  C   UNL     1      42.858 -18.374   2.700  1.00  0.00    -0.044 A 
HETATM   26  C   UNL     1      43.702 -18.536   3.815  1.00  0.00     0.008 A 
HETATM   27  C   UNL     1      44.529 -19.654   3.951  1.00  0.00     0.001 A 
HETATM   28  C   UNL     1      44.532 -20.640   2.968  1.00  0.00     0.000 A 
HETATM   29  C   UNL     1      43.705 -20.509   1.856  1.00  0.00     0.001 A 
HETATM   30  C   UNL     1      42.874 -19.391   1.729  1.00  0.00     0.008 A 
ENDBRANCH  23  25
BRANCH  23  31
HETATM   31  C   UNL     1      42.372 -15.953   3.439  1.00  0.00    -0.044 A 
HETATM   32  C   UNL     1      41.787 -15.730   4.701  1.00  0.00     0.008 A 
HETATM   33  C   UNL     1      42.185 -14.669   5.518  1.00  0.00     0.001 A 
HETATM   34  C   UNL     1      43.184 -13.801   5.091  1.00  0.00     0.000 A 
HETATM   35  C   UNL     1      43.787 -14.001   3.853  1.00  0.00     0.001 A 
HETATM   36  C   UNL     1      43.391 -15.068   3.043  1.00  0.00     0.008 A 
ENDBRANCH  23  31
ENDBRANCH   2  22
TORSDOF 9
ENDMDL
