MODEL 1
REMARK VINA RESULT:      -7.9      0.000      0.000
REMARK  6 active torsions:
REMARK  status: ('A' for Active; 'I' for Inactive)
REMARK    1  A    between atoms: O_2  and  C_3 
REMARK    2  A    between atoms: C_5  and  O_6 
REMARK    3  A    between atoms: C_9  and  C_10 
REMARK       I    between atoms: C_10  and  N_11 
REMARK    4  A    between atoms: N_11  and  C_12 
REMARK    5  A    between atoms: N_15  and  C_16 
REMARK    6  A    between atoms: C_20  and  C_21 
ROOT
HETATM    1  C   UNL     1      42.270 -15.298   2.033  1.00  0.00     0.087 C 
HETATM    2  C   UNL     1      41.161 -15.603   1.009  1.00  0.00     0.045 C 
HETATM    3  C   UNL     1      39.817 -15.837   1.693  1.00  0.00     0.126 C 
HETATM    4  N   UNL     1      39.477 -14.668   2.519  1.00  0.00    -0.366 N 
HETATM    5  C   UNL     1      40.465 -14.404   3.572  1.00  0.00     0.126 C 
HETATM    6  C   UNL     1      41.835 -14.139   2.945  1.00  0.00     0.045 C 
ENDROOT
BRANCH   1   7
HETATM    7  N   UNL     1      42.650 -16.464   2.840  1.00  0.00    -0.352 N 
HETATM    8  C   UNL     1      43.667 -17.321   2.467  1.00  0.00     0.252 C 
HETATM    9  O   UNL     1      44.293 -17.213   1.420  1.00  0.00    -0.268 OA
HETATM   10  H   UNL     1      42.457 -16.411   3.831  1.00  0.00     0.163 HD
BRANCH   8  11
HETATM   11  C   UNL     1      44.002 -18.409   3.432  1.00  0.00     0.037 A 
HETATM   12  C   UNL     1      44.047 -18.187   4.816  1.00  0.00     0.054 A 
HETATM   13  C   UNL     1      44.360 -19.239   5.679  1.00  0.00     0.071 A 
HETATM   14  C   UNL     1      44.608 -20.515   5.157  1.00  0.00     0.073 A 
HETATM   15  C   UNL     1      44.533 -20.752   3.785  1.00  0.00     0.071 A 
HETATM   16  C   UNL     1      44.236 -19.693   2.926  1.00  0.00     0.054 A 
BRANCH  13  17
HETATM   17  O   UNL     1      44.453 -19.159   7.042  1.00  0.00    -0.356 OA
HETATM   18  C   UNL     1      43.742 -18.107   7.683  1.00  0.00     0.210 C 
ENDBRANCH  13  17
BRANCH  15  19
HETATM   19  O   UNL     1      44.732 -21.955   3.166  1.00  0.00    -0.356 OA
HETATM   20  C   UNL     1      44.326 -22.051   1.806  1.00  0.00     0.210 C 
ENDBRANCH  15  19
ENDBRANCH   8  11
ENDBRANCH   1   7
BRANCH   4  21
HETATM   21  C   UNL     1      38.713 -13.640   2.033  1.00  0.00     0.121 A 
HETATM   22  N   UNL     1      38.785 -12.354   2.505  1.00  0.00    -0.262 N 
HETATM   23  H   UNL     1      39.388 -11.996   3.233  1.00  0.00     0.191 HD
HETATM   24  N   UNL     1      37.957 -11.489   1.898  1.00  0.00    -0.173 NA
HETATM   25  C   UNL     1      37.345 -12.218   0.952  1.00  0.00     0.090 A 
HETATM   26  C   UNL     1      37.791 -13.569   1.010  1.00  0.00     0.084 A 
BRANCH  25  27
HETATM   27  C   UNL     1      36.367 -11.623   0.034  1.00  0.00    -0.005 A 
HETATM   28  C   UNL     1      35.105 -11.207   0.487  1.00  0.00     0.015 A 
HETATM   29  C   UNL     1      34.180 -10.641  -0.398  1.00  0.00     0.024 A 
HETATM   30  C   UNL     1      34.508 -10.489  -1.743  1.00  0.00     0.034 A 
HETATM   31 CL   UNL     1      33.369  -9.794  -2.827  1.00  0.00    -0.084 Cl
HETATM   32  C   UNL     1      35.753 -10.899  -2.213  1.00  0.00     0.024 A 
HETATM   33  C   UNL     1      36.676 -11.464  -1.327  1.00  0.00     0.015 A 
ENDBRANCH  25  27
ENDBRANCH   4  21
TORSDOF 6
ENDMDL
MODEL 2
REMARK VINA RESULT:      -7.8      5.092     11.171
REMARK  6 active torsions:
REMARK  status: ('A' for Active; 'I' for Inactive)
REMARK    1  A    between atoms: O_2  and  C_3 
REMARK    2  A    between atoms: C_5  and  O_6 
REMARK    3  A    between atoms: C_9  and  C_10 
REMARK       I    between atoms: C_10  and  N_11 
REMARK    4  A    between atoms: N_11  and  C_12 
REMARK    5  A    between atoms: N_15  and  C_16 
REMARK    6  A    between atoms: C_20  and  C_21 
ROOT
HETATM    1  C   UNL     1      40.085 -13.062   1.328  1.00  0.00     0.087 C 
HETATM    2  C   UNL     1      39.829 -14.185   2.350  1.00  0.00     0.045 C 
HETATM    3  C   UNL     1      39.474 -15.499   1.660  1.00  0.00     0.126 C 
HETATM    4  N   UNL     1      40.546 -15.864   0.721  1.00  0.00    -0.366 N 
HETATM    5  C   UNL     1      40.753 -14.860  -0.330  1.00  0.00     0.126 C 
HETATM    6  C   UNL     1      41.135 -13.519   0.301  1.00  0.00     0.045 C 
ENDROOT
BRANCH   1   7
HETATM    7  N   UNL     1      38.867 -12.613   0.643  1.00  0.00    -0.352 N 
HETATM    8  C   UNL     1      37.911 -11.835   1.269  1.00  0.00     0.252 C 
HETATM    9  O   UNL     1      37.973 -11.504   2.446  1.00  0.00    -0.268 OA
HETATM   10  H   UNL     1      38.918 -12.527  -0.363  1.00  0.00     0.163 HD
BRANCH   8  11
HETATM   11  C   UNL     1      36.772 -11.379   0.421  1.00  0.00     0.037 A 
HETATM   12  C   UNL     1      35.568 -10.920   0.976  1.00  0.00     0.054 A 
HETATM   13  C   UNL     1      34.533 -10.498   0.140  1.00  0.00     0.071 A 
HETATM   14  C   UNL     1      34.711 -10.516  -1.249  1.00  0.00     0.073 A 
HETATM   15  C   UNL     1      35.916 -10.939  -1.809  1.00  0.00     0.071 A 
HETATM   16  C   UNL     1      36.941 -11.376  -0.969  1.00  0.00     0.054 A 
BRANCH  13  17
HETATM   17  O   UNL     1      33.308 -10.044   0.546  1.00  0.00    -0.356 OA
HETATM   18  C   UNL     1      32.727 -10.665   1.687  1.00  0.00     0.210 C 
ENDBRANCH  13  17
BRANCH  15  19
HETATM   19  O   UNL     1      36.210 -10.979  -3.144  1.00  0.00    -0.356 OA
HETATM   20  C   UNL     1      35.789 -12.136  -3.858  1.00  0.00     0.210 C 
ENDBRANCH  15  19
ENDBRANCH   8  11
ENDBRANCH   1   7
BRANCH   4  21
HETATM   21  C   UNL     1      41.581 -16.682   1.090  1.00  0.00     0.121 A 
HETATM   22  N   UNL     1      42.856 -16.560   0.599  1.00  0.00    -0.262 N 
HETATM   23  H   UNL     1      43.200 -15.878  -0.063  1.00  0.00     0.191 HD
HETATM   24  N   UNL     1      43.730 -17.455   1.085  1.00  0.00    -0.173 NA
HETATM   25  C   UNL     1      43.019 -18.171   1.970  1.00  0.00     0.090 A 
HETATM   26  C   UNL     1      41.671 -17.717   1.997  1.00  0.00     0.084 A 
BRANCH  25  27
HETATM   27  C   UNL     1      43.630 -19.250   2.755  1.00  0.00    -0.005 A 
HETATM   28  C   UNL     1      44.032 -19.043   4.085  1.00  0.00     0.015 A 
HETATM   29  C   UNL     1      44.615 -20.078   4.824  1.00  0.00     0.024 A 
HETATM   30  C   UNL     1      44.802 -21.329   4.240  1.00  0.00     0.034 A 
HETATM   31 CL   UNL     1      45.519 -22.599   5.151  1.00  0.00    -0.084 Cl
HETATM   32  C   UNL     1      44.414 -21.554   2.922  1.00  0.00     0.024 A 
HETATM   33  C   UNL     1      43.833 -20.517   2.184  1.00  0.00     0.015 A 
ENDBRANCH  25  27
ENDBRANCH   4  21
TORSDOF 6
ENDMDL
MODEL 3
REMARK VINA RESULT:      -7.7      0.516      2.193
REMARK  6 active torsions:
REMARK  status: ('A' for Active; 'I' for Inactive)
REMARK    1  A    between atoms: O_2  and  C_3 
REMARK    2  A    between atoms: C_5  and  O_6 
REMARK    3  A    between atoms: C_9  and  C_10 
REMARK       I    between atoms: C_10  and  N_11 
REMARK    4  A    between atoms: N_11  and  C_12 
REMARK    5  A    between atoms: N_15  and  C_16 
REMARK    6  A    between atoms: C_20  and  C_21 
ROOT
HETATM    1  C   UNL     1      42.249 -15.226   1.829  1.00  0.00     0.087 C 
HETATM    2  C   UNL     1      41.070 -15.562   0.897  1.00  0.00     0.045 C 
HETATM    3  C   UNL     1      39.778 -15.771   1.682  1.00  0.00     0.126 C 
HETATM    4  N   UNL     1      39.497 -14.574   2.491  1.00  0.00    -0.366 N 
HETATM    5  C   UNL     1      40.557 -14.279   3.463  1.00  0.00     0.126 C 
HETATM    6  C   UNL     1      41.879 -14.037   2.732  1.00  0.00     0.045 C 
ENDROOT
BRANCH   1   7
HETATM    7  N   UNL     1      42.684 -16.366   2.645  1.00  0.00    -0.352 N 
HETATM    8  C   UNL     1      43.522 -17.350   2.153  1.00  0.00     0.252 C 
HETATM    9  O   UNL     1      43.921 -17.381   0.995  1.00  0.00    -0.268 OA
HETATM   10  H   UNL     1      42.709 -16.224   3.645  1.00  0.00     0.163 HD
BRANCH   8  11
HETATM   11  C   UNL     1      43.954 -18.396   3.124  1.00  0.00     0.037 A 
HETATM   12  C   UNL     1      44.152 -19.731   2.740  1.00  0.00     0.054 A 
HETATM   13  C   UNL     1      44.562 -20.672   3.685  1.00  0.00     0.071 A 
HETATM   14  C   UNL     1      44.793 -20.274   5.008  1.00  0.00     0.073 A 
HETATM   15  C   UNL     1      44.631 -18.943   5.391  1.00  0.00     0.071 A 
HETATM   16  C   UNL     1      44.204 -18.009   4.446  1.00  0.00     0.054 A 
BRANCH  13  17
HETATM   17  O   UNL     1      44.777 -22.004   3.451  1.00  0.00    -0.356 OA
HETATM   18  C   UNL     1      44.741 -22.878   4.573  1.00  0.00     0.210 C 
ENDBRANCH  13  17
BRANCH  15  19
HETATM   19  O   UNL     1      44.847 -18.436   6.642  1.00  0.00    -0.356 OA
HETATM   20  C   UNL     1      43.834 -18.673   7.613  1.00  0.00     0.210 C 
ENDBRANCH  15  19
ENDBRANCH   8  11
ENDBRANCH   1   7
BRANCH   4  21
HETATM   21  C   UNL     1      38.701 -13.561   2.027  1.00  0.00     0.121 A 
HETATM   22  N   UNL     1      38.685 -12.301   2.570  1.00  0.00    -0.262 N 
HETATM   23  H   UNL     1      39.237 -11.954   3.342  1.00  0.00     0.191 HD
HETATM   24  N   UNL     1      37.838 -11.447   1.974  1.00  0.00    -0.173 NA
HETATM   25  C   UNL     1      37.304 -12.153   0.965  1.00  0.00     0.090 A 
HETATM   26  C   UNL     1      37.818 -13.480   0.971  1.00  0.00     0.084 A 
BRANCH  25  27
HETATM   27  C   UNL     1      36.335 -11.558   0.037  1.00  0.00    -0.005 A 
HETATM   28  C   UNL     1      35.066 -11.149   0.477  1.00  0.00     0.015 A 
HETATM   29  C   UNL     1      34.149 -10.583  -0.416  1.00  0.00     0.024 A 
HETATM   30  C   UNL     1      34.492 -10.424  -1.757  1.00  0.00     0.034 A 
HETATM   31 CL   UNL     1      33.363  -9.729  -2.852  1.00  0.00    -0.084 Cl
HETATM   32  C   UNL     1      35.744 -10.827  -2.213  1.00  0.00     0.024 A 
HETATM   33  C   UNL     1      36.659 -11.392  -1.319  1.00  0.00     0.015 A 
ENDBRANCH  25  27
ENDBRANCH   4  21
TORSDOF 6
ENDMDL
MODEL 4
REMARK VINA RESULT:      -7.6      5.124     11.428
REMARK  6 active torsions:
REMARK  status: ('A' for Active; 'I' for Inactive)
REMARK    1  A    between atoms: O_2  and  C_3 
REMARK    2  A    between atoms: C_5  and  O_6 
REMARK    3  A    between atoms: C_9  and  C_10 
REMARK       I    between atoms: C_10  and  N_11 
REMARK    4  A    between atoms: N_11  and  C_12 
REMARK    5  A    between atoms: N_15  and  C_16 
REMARK    6  A    between atoms: C_20  and  C_21 
ROOT
HETATM    1  C   UNL     1      39.817 -13.129   1.675  1.00  0.00     0.087 C 
HETATM    2  C   UNL     1      39.557 -14.363   2.558  1.00  0.00     0.045 C 
HETATM    3  C   UNL     1      39.287 -15.607   1.715  1.00  0.00     0.126 C 
HETATM    4  N   UNL     1      40.416 -15.832   0.799  1.00  0.00    -0.366 N 
HETATM    5  C   UNL     1      40.634 -14.714  -0.127  1.00  0.00     0.126 C 
HETATM    6  C   UNL     1      40.932 -13.437   0.661  1.00  0.00     0.045 C 
ENDROOT
BRANCH   1   7
HETATM    7  N   UNL     1      38.617 -12.651   0.980  1.00  0.00    -0.352 N 
HETATM    8  C   UNL     1      37.857 -11.598   1.455  1.00  0.00     0.252 C 
HETATM    9  O   UNL     1      38.088 -11.019   2.509  1.00  0.00    -0.268 OA
HETATM   10  H   UNL     1      38.577 -12.809  -0.018  1.00  0.00     0.163 HD
BRANCH   8  11
HETATM   11  C   UNL     1      36.718 -11.164   0.594  1.00  0.00     0.037 A 
HETATM   12  C   UNL     1      36.771 -11.243  -0.805  1.00  0.00     0.054 A 
HETATM   13  C   UNL     1      35.677 -10.829  -1.567  1.00  0.00     0.071 A 
HETATM   14  C   UNL     1      34.525 -10.355  -0.927  1.00  0.00     0.073 A 
HETATM   15  C   UNL     1      34.451 -10.303   0.465  1.00  0.00     0.071 A 
HETATM   16  C   UNL     1      35.554 -10.702   1.220  1.00  0.00     0.054 A 
BRANCH  13  17
HETATM   17  O   UNL     1      35.601 -10.838  -2.933  1.00  0.00    -0.356 OA
HETATM   18  C   UNL     1      36.765 -11.233  -3.649  1.00  0.00     0.210 C 
ENDBRANCH  13  17
BRANCH  15  19
HETATM   19  O   UNL     1      33.376  -9.881   1.196  1.00  0.00    -0.356 OA
HETATM   20  C   UNL     1      32.088 -10.220   0.695  1.00  0.00     0.210 C 
ENDBRANCH  15  19
ENDBRANCH   8  11
ENDBRANCH   1   7
BRANCH   4  21
HETATM   21  C   UNL     1      41.464 -16.650   1.133  1.00  0.00     0.121 A 
HETATM   22  N   UNL     1      42.719 -16.531   0.593  1.00  0.00    -0.262 N 
HETATM   23  H   UNL     1      43.039 -15.851  -0.083  1.00  0.00     0.191 HD
HETATM   24  N   UNL     1      43.610 -17.425   1.049  1.00  0.00    -0.173 NA
HETATM   25  C   UNL     1      42.933 -18.136   1.964  1.00  0.00     0.090 A 
HETATM   26  C   UNL     1      41.587 -17.681   2.039  1.00  0.00     0.084 A 
BRANCH  25  27
HETATM   27  C   UNL     1      43.572 -19.213   2.729  1.00  0.00    -0.005 A 
HETATM   28  C   UNL     1      43.860 -20.453   2.137  1.00  0.00     0.015 A 
HETATM   29  C   UNL     1      44.468 -21.474   2.876  1.00  0.00     0.024 A 
HETATM   30  C   UNL     1      44.794 -21.264   4.214  1.00  0.00     0.034 A 
HETATM   31 CL   UNL     1      45.542 -22.520   5.119  1.00  0.00    -0.084 Cl
HETATM   32  C   UNL     1      44.514 -20.043   4.821  1.00  0.00     0.024 A 
HETATM   33  C   UNL     1      43.905 -19.024   4.081  1.00  0.00     0.015 A 
ENDBRANCH  25  27
ENDBRANCH   4  21
TORSDOF 6
ENDMDL
MODEL 5
REMARK VINA RESULT:      -7.5      3.216      4.236
REMARK  6 active torsions:
REMARK  status: ('A' for Active; 'I' for Inactive)
REMARK    1  A    between atoms: O_2  and  C_3 
REMARK    2  A    between atoms: C_5  and  O_6 
REMARK    3  A    between atoms: C_9  and  C_10 
REMARK       I    between atoms: C_10  and  N_11 
REMARK    4  A    between atoms: N_11  and  C_12 
REMARK    5  A    between atoms: N_15  and  C_16 
REMARK    6  A    between atoms: C_20  and  C_21 
ROOT
HETATM    1  C   UNL     1      40.695 -16.671   1.886  1.00  0.00     0.087 C 
HETATM    2  C   UNL     1      39.444 -15.774   1.834  1.00  0.00     0.045 C 
HETATM    3  C   UNL     1      39.782 -14.370   1.341  1.00  0.00     0.126 C 
HETATM    4  N   UNL     1      40.434 -14.457   0.025  1.00  0.00    -0.366 N 
HETATM    5  C   UNL     1      41.685 -15.223   0.054  1.00  0.00     0.126 C 
HETATM    6  C   UNL     1      41.407 -16.653   0.522  1.00  0.00     0.045 C 
ENDROOT
BRANCH   1   7
HETATM    7  N   UNL     1      41.631 -16.297   2.952  1.00  0.00    -0.352 N 
HETATM    8  C   UNL     1      41.600 -16.885   4.203  1.00  0.00     0.252 C 
HETATM    9  O   UNL     1      40.765 -17.715   4.539  1.00  0.00    -0.268 OA
HETATM   10  H   UNL     1      42.525 -15.926   2.661  1.00  0.00     0.163 HD
BRANCH   8  11
HETATM   11  C   UNL     1      42.671 -16.471   5.155  1.00  0.00     0.037 A 
HETATM   12  C   UNL     1      42.932 -15.123   5.441  1.00  0.00     0.054 A 
HETATM   13  C   UNL     1      43.942 -14.786   6.343  1.00  0.00     0.071 A 
HETATM   14  C   UNL     1      44.677 -15.799   6.973  1.00  0.00     0.073 A 
HETATM   15  C   UNL     1      44.402 -17.142   6.719  1.00  0.00     0.071 A 
HETATM   16  C   UNL     1      43.403 -17.473   5.803  1.00  0.00     0.054 A 
BRANCH  13  17
HETATM   17  O   UNL     1      44.309 -13.517   6.700  1.00  0.00    -0.356 OA
HETATM   18  C   UNL     1      44.853 -13.337   8.003  1.00  0.00     0.210 C 
ENDBRANCH  13  17
BRANCH  15  19
HETATM   19  O   UNL     1      45.036 -18.212   7.289  1.00  0.00    -0.356 OA
HETATM   20  C   UNL     1      44.327 -18.909   8.307  1.00  0.00     0.210 C 
ENDBRANCH  15  19
ENDBRANCH   8  11
ENDBRANCH   1   7
BRANCH   4  21
HETATM   21  C   UNL     1      39.718 -14.371  -1.141  1.00  0.00     0.121 A 
HETATM   22  N   UNL     1      40.044 -15.059  -2.282  1.00  0.00    -0.262 N 
HETATM   23  H   UNL     1      40.811 -15.704  -2.417  1.00  0.00     0.191 HD
HETATM   24  N   UNL     1      39.220 -14.844  -3.319  1.00  0.00    -0.173 NA
HETATM   25  C   UNL     1      38.281 -14.016  -2.834  1.00  0.00     0.090 A 
HETATM   26  C   UNL     1      38.563 -13.697  -1.476  1.00  0.00     0.084 A 
BRANCH  25  27
HETATM   27  C   UNL     1      37.158 -13.558  -3.660  1.00  0.00    -0.005 A 
HETATM   28  C   UNL     1      36.763 -12.210  -3.666  1.00  0.00     0.015 A 
HETATM   29  C   UNL     1      35.691 -11.783  -4.457  1.00  0.00     0.024 A 
HETATM   30  C   UNL     1      35.002 -12.700  -5.247  1.00  0.00     0.034 A 
HETATM   31 CL   UNL     1      33.684 -12.173  -6.217  1.00  0.00    -0.084 Cl
HETATM   32  C   UNL     1      35.375 -14.042  -5.253  1.00  0.00     0.024 A 
HETATM   33  C   UNL     1      36.447 -14.467  -4.461  1.00  0.00     0.015 A 
ENDBRANCH  25  27
ENDBRANCH   4  21
TORSDOF 6
ENDMDL
MODEL 6
REMARK VINA RESULT:      -7.4      1.535      2.830
REMARK  6 active torsions:
REMARK  status: ('A' for Active; 'I' for Inactive)
REMARK    1  A    between atoms: O_2  and  C_3 
REMARK    2  A    between atoms: C_5  and  O_6 
REMARK    3  A    between atoms: C_9  and  C_10 
REMARK       I    between atoms: C_10  and  N_11 
REMARK    4  A    between atoms: N_11  and  C_12 
REMARK    5  A    between atoms: N_15  and  C_16 
REMARK    6  A    between atoms: C_20  and  C_21 
ROOT
HETATM    1  C   UNL     1      41.611 -14.519   2.791  1.00  0.00     0.087 C 
HETATM    2  C   UNL     1      41.862 -13.929   1.391  1.00  0.00     0.045 C 
HETATM    3  C   UNL     1      41.047 -14.654   0.324  1.00  0.00     0.126 C 
HETATM    4  N   UNL     1      39.619 -14.605   0.679  1.00  0.00    -0.366 N 
HETATM    5  C   UNL     1      39.327 -15.248   1.966  1.00  0.00     0.126 C 
HETATM    6  C   UNL     1      40.101 -14.548   3.084  1.00  0.00     0.045 C 
ENDROOT
BRANCH   1   7
HETATM    7  N   UNL     1      42.187 -15.858   2.966  1.00  0.00    -0.352 N 
HETATM    8  C   UNL     1      43.049 -16.162   4.003  1.00  0.00     0.252 C 
HETATM    9  O   UNL     1      43.442 -15.339   4.820  1.00  0.00    -0.268 OA
HETATM   10  H   UNL     1      41.656 -16.632   2.591  1.00  0.00     0.163 HD
BRANCH   8  11
HETATM   11  C   UNL     1      43.481 -17.586   4.107  1.00  0.00     0.037 A 
HETATM   12  C   UNL     1      43.808 -18.349   2.976  1.00  0.00     0.054 A 
HETATM   13  C   UNL     1      44.212 -19.677   3.126  1.00  0.00     0.071 A 
HETATM   14  C   UNL     1      44.308 -20.233   4.407  1.00  0.00     0.073 A 
HETATM   15  C   UNL     1      44.017 -19.472   5.539  1.00  0.00     0.071 A 
HETATM   16  C   UNL     1      43.597 -18.151   5.383  1.00  0.00     0.054 A 
BRANCH  13  17
HETATM   17  O   UNL     1      44.543 -20.534   2.112  1.00  0.00    -0.356 OA
HETATM   18  C   UNL     1      44.284 -21.918   2.317  1.00  0.00     0.210 C 
ENDBRANCH  13  17
BRANCH  15  19
HETATM   19  O   UNL     1      44.096 -19.900   6.836  1.00  0.00    -0.356 OA
HETATM   20  C   UNL     1      43.961 -18.908   7.847  1.00  0.00     0.210 C 
ENDBRANCH  15  19
ENDBRANCH   8  11
ENDBRANCH   1   7
BRANCH   4  21
HETATM   21  C   UNL     1      38.794 -13.615   0.212  1.00  0.00     0.121 A 
HETATM   22  N   UNL     1      39.090 -12.834  -0.875  1.00  0.00    -0.262 N 
HETATM   23  H   UNL     1      39.909 -12.880  -1.465  1.00  0.00     0.191 HD
HETATM   24  N   UNL     1      38.153 -11.920  -1.177  1.00  0.00    -0.173 NA
HETATM   25  C   UNL     1      37.175 -12.135  -0.284  1.00  0.00     0.090 A 
HETATM   26  C   UNL     1      37.544 -13.186   0.603  1.00  0.00     0.084 A 
BRANCH  25  27
HETATM   27  C   UNL     1      35.936 -11.350  -0.296  1.00  0.00    -0.005 A 
HETATM   28  C   UNL     1      35.299 -10.979   0.899  1.00  0.00     0.015 A 
HETATM   29  C   UNL     1      34.117 -10.231   0.877  1.00  0.00     0.024 A 
HETATM   30  C   UNL     1      33.560  -9.847  -0.341  1.00  0.00     0.034 A 
HETATM   31 CL   UNL     1      32.107  -8.928  -0.365  1.00  0.00    -0.084 Cl
HETATM   32  C   UNL     1      34.174 -10.208  -1.538  1.00  0.00     0.024 A 
HETATM   33  C   UNL     1      35.355 -10.957  -1.513  1.00  0.00     0.015 A 
ENDBRANCH  25  27
ENDBRANCH   4  21
TORSDOF 6
ENDMDL
MODEL 7
REMARK VINA RESULT:      -7.4      5.539      7.286
REMARK  6 active torsions:
REMARK  status: ('A' for Active; 'I' for Inactive)
REMARK    1  A    between atoms: O_2  and  C_3 
REMARK    2  A    between atoms: C_5  and  O_6 
REMARK    3  A    between atoms: C_9  and  C_10 
REMARK       I    between atoms: C_10  and  N_11 
REMARK    4  A    between atoms: N_11  and  C_12 
REMARK    5  A    between atoms: N_15  and  C_16 
REMARK    6  A    between atoms: C_20  and  C_21 
ROOT
HETATM    1  C   UNL     1      40.368 -11.310   6.445  1.00  0.00     0.087 C 
HETATM    2  C   UNL     1      40.940 -10.919   5.070  1.00  0.00     0.045 C 
HETATM    3  C   UNL     1      41.743 -12.061   4.453  1.00  0.00     0.126 C 
HETATM    4  N   UNL     1      40.898 -13.261   4.361  1.00  0.00    -0.366 N 
HETATM    5  C   UNL     1      40.413 -13.723   5.667  1.00  0.00     0.126 C 
HETATM    6  C   UNL     1      39.578 -12.624   6.328  1.00  0.00     0.045 C 
ENDROOT
BRANCH   1   7
HETATM    7  N   UNL     1      41.395 -11.426   7.487  1.00  0.00    -0.352 N 
HETATM    8  C   UNL     1      41.827 -10.339   8.223  1.00  0.00     0.252 C 
HETATM    9  O   UNL     1      41.435  -9.195   8.034  1.00  0.00    -0.268 OA
HETATM   10  H   UNL     1      41.486 -12.328   7.935  1.00  0.00     0.163 HD
BRANCH   8  11
HETATM   11  C   UNL     1      42.808 -10.625   9.311  1.00  0.00     0.037 A 
HETATM   12  C   UNL     1      42.664 -10.094  10.601  1.00  0.00     0.054 A 
HETATM   13  C   UNL     1      43.606 -10.395  11.586  1.00  0.00     0.071 A 
HETATM   14  C   UNL     1      44.679 -11.243  11.285  1.00  0.00     0.073 A 
HETATM   15  C   UNL     1      44.812 -11.802  10.014  1.00  0.00     0.071 A 
HETATM   16  C   UNL     1      43.877 -11.484   9.028  1.00  0.00     0.054 A 
BRANCH  13  17
HETATM   17  O   UNL     1      43.594  -9.936  12.875  1.00  0.00    -0.356 OA
HETATM   18  C   UNL     1      42.512 -10.344  13.704  1.00  0.00     0.210 C 
ENDBRANCH  13  17
BRANCH  15  19
HETATM   19  O   UNL     1      45.802 -12.656   9.613  1.00  0.00    -0.356 OA
HETATM   20  C   UNL     1      46.215 -12.564   8.255  1.00  0.00     0.210 C 
ENDBRANCH  15  19
ENDBRANCH   8  11
ENDBRANCH   1   7
BRANCH   4  21
HETATM   21  C   UNL     1      40.181 -13.552   3.230  1.00  0.00     0.121 A 
HETATM   22  N   UNL     1      39.503 -14.731   3.045  1.00  0.00    -0.262 N 
HETATM   23  H   UNL     1      39.429 -15.508   3.687  1.00  0.00     0.191 HD
HETATM   24  N   UNL     1      38.859 -14.826   1.871  1.00  0.00    -0.173 NA
HETATM   25  C   UNL     1      39.077 -13.646   1.272  1.00  0.00     0.090 A 
HETATM   26  C   UNL     1      39.903 -12.826   2.091  1.00  0.00     0.084 A 
BRANCH  25  27
HETATM   27  C   UNL     1      38.505 -13.332  -0.043  1.00  0.00    -0.005 A 
HETATM   28  C   UNL     1      37.615 -12.259  -0.210  1.00  0.00     0.015 A 
HETATM   29  C   UNL     1      37.074 -11.969  -1.468  1.00  0.00     0.024 A 
HETATM   30  C   UNL     1      37.417 -12.751  -2.568  1.00  0.00     0.034 A 
HETATM   31 CL   UNL     1      36.751 -12.392  -4.112  1.00  0.00    -0.084 Cl
HETATM   32  C   UNL     1      38.294 -13.822  -2.423  1.00  0.00     0.024 A 
HETATM   33  C   UNL     1      38.834 -14.110  -1.165  1.00  0.00     0.015 A 
ENDBRANCH  25  27
ENDBRANCH   4  21
TORSDOF 6
ENDMDL
MODEL 8
REMARK VINA RESULT:      -7.3      3.476      4.634
REMARK  6 active torsions:
REMARK  status: ('A' for Active; 'I' for Inactive)
REMARK    1  A    between atoms: O_2  and  C_3 
REMARK    2  A    between atoms: C_5  and  O_6 
REMARK    3  A    between atoms: C_9  and  C_10 
REMARK       I    between atoms: C_10  and  N_11 
REMARK    4  A    between atoms: N_11  and  C_12 
REMARK    5  A    between atoms: N_15  and  C_16 
REMARK    6  A    between atoms: C_20  and  C_21 
ROOT
HETATM    1  C   UNL     1      40.348 -13.432   2.545  1.00  0.00     0.087 C 
HETATM    2  C   UNL     1      40.864 -12.636   1.332  1.00  0.00     0.045 C 
HETATM    3  C   UNL     1      41.615 -13.534   0.353  1.00  0.00     0.126 C 
HETATM    4  N   UNL     1      40.743 -14.642  -0.065  1.00  0.00    -0.366 N 
HETATM    5  C   UNL     1      40.309 -15.484   1.056  1.00  0.00     0.126 C 
HETATM    6  C   UNL     1      39.527 -14.642   2.066  1.00  0.00     0.045 C 
ENDROOT
BRANCH   1   7
HETATM    7  N   UNL     1      41.419 -13.871   3.447  1.00  0.00    -0.352 N 
HETATM    8  C   UNL     1      41.215 -14.056   4.802  1.00  0.00     0.252 C 
HETATM    9  O   UNL     1      40.152 -13.821   5.364  1.00  0.00    -0.268 OA
HETATM   10  H   UNL     1      42.165 -14.414   3.035  1.00  0.00     0.163 HD
BRANCH   8  11
HETATM   11  C   UNL     1      42.370 -14.593   5.577  1.00  0.00     0.037 A 
HETATM   12  C   UNL     1      43.336 -13.753   6.152  1.00  0.00     0.054 A 
HETATM   13  C   UNL     1      44.396 -14.304   6.873  1.00  0.00     0.071 A 
HETATM   14  C   UNL     1      44.479 -15.692   7.036  1.00  0.00     0.073 A 
HETATM   15  C   UNL     1      43.506 -16.533   6.496  1.00  0.00     0.071 A 
HETATM   16  C   UNL     1      42.457 -15.978   5.761  1.00  0.00     0.054 A 
BRANCH  13  17
HETATM   17  O   UNL     1      45.410 -13.604   7.470  1.00  0.00    -0.356 OA
HETATM   18  C   UNL     1      45.054 -12.696   8.506  1.00  0.00     0.210 C 
ENDBRANCH  13  17
BRANCH  15  19
HETATM   19  O   UNL     1      43.471 -17.896   6.608  1.00  0.00    -0.356 OA
HETATM   20  C   UNL     1      43.971 -18.451   7.819  1.00  0.00     0.210 C 
ENDBRANCH  15  19
ENDBRANCH   8  11
ENDBRANCH   1   7
BRANCH   4  21
HETATM   21  C   UNL     1      39.969 -14.564  -1.194  1.00  0.00     0.121 A 
HETATM   22  N   UNL     1      40.195 -15.314  -2.320  1.00  0.00    -0.262 N 
HETATM   23  H   UNL     1      40.919 -16.004  -2.468  1.00  0.00     0.191 HD
HETATM   24  N   UNL     1      39.326 -15.095  -3.320  1.00  0.00    -0.173 NA
HETATM   25  C   UNL     1      38.460 -14.200  -2.821  1.00  0.00     0.090 A 
HETATM   26  C   UNL     1      38.834 -13.842  -1.495  1.00  0.00     0.084 A 
BRANCH  25  27
HETATM   27  C   UNL     1      37.318 -13.714  -3.605  1.00  0.00    -0.005 A 
HETATM   28  C   UNL     1      36.490 -14.604  -4.308  1.00  0.00     0.015 A 
HETATM   29  C   UNL     1      35.404 -14.131  -5.054  1.00  0.00     0.024 A 
HETATM   30  C   UNL     1      35.138 -12.765  -5.104  1.00  0.00     0.034 A 
HETATM   31 CL   UNL     1      33.804 -12.186  -6.021  1.00  0.00    -0.084 Cl
HETATM   32  C   UNL     1      35.950 -11.866  -4.417  1.00  0.00     0.024 A 
HETATM   33  C   UNL     1      37.035 -12.340  -3.673  1.00  0.00     0.015 A 
ENDBRANCH  25  27
ENDBRANCH   4  21
TORSDOF 6
ENDMDL
MODEL 9
REMARK VINA RESULT:      -7.3      5.320     11.589
REMARK  6 active torsions:
REMARK  status: ('A' for Active; 'I' for Inactive)
REMARK    1  A    between atoms: O_2  and  C_3 
REMARK    2  A    between atoms: C_5  and  O_6 
REMARK    3  A    between atoms: C_9  and  C_10 
REMARK       I    between atoms: C_10  and  N_11 
REMARK    4  A    between atoms: N_11  and  C_12 
REMARK    5  A    between atoms: N_15  and  C_16 
REMARK    6  A    between atoms: C_20  and  C_21 
ROOT
HETATM    1  C   UNL     1      40.692 -13.138  -0.529  1.00  0.00     0.087 C 
HETATM    2  C   UNL     1      40.510 -13.599   0.930  1.00  0.00     0.045 C 
HETATM    3  C   UNL     1      39.944 -15.014   1.002  1.00  0.00     0.126 C 
HETATM    4  N   UNL     1      40.819 -15.931   0.256  1.00  0.00    -0.366 N 
HETATM    5  C   UNL     1      40.939 -15.580  -1.165  1.00  0.00     0.126 C 
HETATM    6  C   UNL     1      41.524 -14.173  -1.304  1.00  0.00     0.045 C 
ENDROOT
BRANCH   1   7
HETATM    7  N   UNL     1      39.422 -12.888  -1.220  1.00  0.00    -0.352 N 
HETATM    8  C   UNL     1      38.802 -11.653  -1.203  1.00  0.00     0.252 C 
HETATM    9  O   UNL     1      39.226 -10.691  -0.574  1.00  0.00    -0.268 OA
HETATM   10  H   UNL     1      39.216 -13.475  -2.017  1.00  0.00     0.163 HD
BRANCH   8  11
HETATM   11  C   UNL     1      37.564 -11.523  -2.026  1.00  0.00     0.037 A 
HETATM   12  C   UNL     1      37.490 -12.010  -3.339  1.00  0.00     0.054 A 
HETATM   13  C   UNL     1      36.307 -11.869  -4.066  1.00  0.00     0.071 A 
HETATM   14  C   UNL     1      35.195 -11.260  -3.473  1.00  0.00     0.073 A 
HETATM   15  C   UNL     1      35.249 -10.802  -2.157  1.00  0.00     0.071 A 
HETATM   16  C   UNL     1      36.439 -10.930  -1.440  1.00  0.00     0.054 A 
BRANCH  13  17
HETATM   17  O   UNL     1      36.103 -12.283  -5.355  1.00  0.00    -0.356 OA
HETATM   18  C   UNL     1      34.780 -12.190  -5.869  1.00  0.00     0.210 C 
ENDBRANCH  13  17
BRANCH  15  19
HETATM   19  O   UNL     1      34.224 -10.213  -1.469  1.00  0.00    -0.356 OA
HETATM   20  C   UNL     1      34.018 -10.649  -0.131  1.00  0.00     0.210 C 
ENDBRANCH  15  19
ENDBRANCH   8  11
ENDBRANCH   1   7
BRANCH   4  21
HETATM   21  C   UNL     1      41.829 -16.624   0.870  1.00  0.00     0.121 A 
HETATM   22  N   UNL     1      43.118 -16.163   0.960  1.00  0.00    -0.262 N 
HETATM   23  H   UNL     1      43.486 -15.288   0.615  1.00  0.00     0.191 HD
HETATM   24  N   UNL     1      43.962 -16.986   1.602  1.00  0.00    -0.173 NA
HETATM   25  C   UNL     1      43.193 -18.014   1.996  1.00  0.00     0.090 A 
HETATM   26  C   UNL     1      41.855 -17.822   1.552  1.00  0.00     0.084 A 
BRANCH  25  27
HETATM   27  C   UNL     1      43.742 -19.133   2.771  1.00  0.00    -0.005 A 
HETATM   28  C   UNL     1      43.886 -20.408   2.202  1.00  0.00     0.015 A 
HETATM   29  C   UNL     1      44.409 -21.469   2.950  1.00  0.00     0.024 A 
HETATM   30  C   UNL     1      44.792 -21.264   4.274  1.00  0.00     0.034 A 
HETATM   31 CL   UNL     1      45.434 -22.569   5.190  1.00  0.00    -0.084 Cl
HETATM   32  C   UNL     1      44.653 -20.007   4.858  1.00  0.00     0.024 A 
HETATM   33  C   UNL     1      44.130 -18.949   4.109  1.00  0.00     0.015 A 
ENDBRANCH  25  27
ENDBRANCH   4  21
TORSDOF 6
ENDMDL
MODEL 10
REMARK VINA RESULT:      -7.2      1.893      2.355
REMARK  6 active torsions:
REMARK  status: ('A' for Active; 'I' for Inactive)
REMARK    1  A    between atoms: O_2  and  C_3 
REMARK    2  A    between atoms: C_5  and  O_6 
REMARK    3  A    between atoms: C_9  and  C_10 
REMARK       I    between atoms: C_10  and  N_11 
REMARK    4  A    between atoms: N_11  and  C_12 
REMARK    5  A    between atoms: N_15  and  C_16 
REMARK    6  A    between atoms: C_20  and  C_21 
ROOT
HETATM    1  C   UNL     1      42.737 -15.850   1.945  1.00  0.00     0.087 C 
HETATM    2  C   UNL     1      41.849 -16.417   0.821  1.00  0.00     0.045 C 
HETATM    3  C   UNL     1      40.397 -16.554   1.270  1.00  0.00     0.126 C 
HETATM    4  N   UNL     1      39.903 -15.248   1.736  1.00  0.00    -0.366 N 
HETATM    5  C   UNL     1      40.665 -14.721   2.874  1.00  0.00     0.126 C 
HETATM    6  C   UNL     1      42.132 -14.540   2.477  1.00  0.00     0.045 C 
ENDROOT
BRANCH   1   7
HETATM    7  N   UNL     1      42.950 -16.795   3.047  1.00  0.00    -0.352 N 
HETATM    8  C   UNL     1      43.832 -17.855   2.951  1.00  0.00     0.252 C 
HETATM    9  O   UNL     1      44.461 -18.122   1.935  1.00  0.00    -0.268 OA
HETATM   10  H   UNL     1      42.772 -16.451   3.980  1.00  0.00     0.163 HD
BRANCH   8  11
HETATM   11  C   UNL     1      44.013 -18.677   4.183  1.00  0.00     0.037 A 
HETATM   12  C   UNL     1      43.813 -18.148   5.467  1.00  0.00     0.054 A 
HETATM   13  C   UNL     1      43.989 -18.960   6.588  1.00  0.00     0.071 A 
HETATM   14  C   UNL     1      44.347 -20.304   6.424  1.00  0.00     0.073 A 
HETATM   15  C   UNL     1      44.516 -20.846   5.151  1.00  0.00     0.071 A 
HETATM   16  C   UNL     1      44.355 -20.026   4.033  1.00  0.00     0.054 A 
BRANCH  13  17
HETATM   17  O   UNL     1      43.842 -18.570   7.892  1.00  0.00    -0.356 OA
HETATM   18  C   UNL     1      43.255 -17.297   8.130  1.00  0.00     0.210 C 
ENDBRANCH  13  17
BRANCH  15  19
HETATM   19  O   UNL     1      44.842 -22.144   4.868  1.00  0.00    -0.356 OA
HETATM   20  C   UNL     1      44.631 -22.581   3.531  1.00  0.00     0.210 C 
ENDBRANCH  15  19
ENDBRANCH   8  11
ENDBRANCH   1   7
BRANCH   4  21
HETATM   21  C   UNL     1      39.250 -14.384   0.898  1.00  0.00     0.121 A 
HETATM   22  N   UNL     1      38.156 -13.646   1.273  1.00  0.00    -0.262 N 
HETATM   23  H   UNL     1      37.706 -13.625   2.178  1.00  0.00     0.191 HD
HETATM   24  N   UNL     1      37.659 -12.855   0.310  1.00  0.00    -0.173 NA
HETATM   25  C   UNL     1      38.483 -13.039  -0.734  1.00  0.00     0.090 A 
HETATM   26  C   UNL     1      39.487 -13.991  -0.403  1.00  0.00     0.084 A 
BRANCH  25  27
HETATM   27  C   UNL     1      38.297 -12.317  -1.998  1.00  0.00    -0.005 A 
HETATM   28  C   UNL     1      39.387 -12.024  -2.834  1.00  0.00     0.015 A 
HETATM   29  C   UNL     1      39.200 -11.334  -4.037  1.00  0.00     0.024 A 
HETATM   30  C   UNL     1      37.921 -10.929  -4.413  1.00  0.00     0.034 A 
HETATM   31 CL   UNL     1      37.693 -10.081  -5.892  1.00  0.00    -0.084 Cl
HETATM   32  C   UNL     1      36.828 -11.206  -3.597  1.00  0.00     0.024 A 
HETATM   33  C   UNL     1      37.017 -11.895  -2.395  1.00  0.00     0.015 A 
ENDBRANCH  25  27
ENDBRANCH   4  21
TORSDOF 6
ENDMDL
