MODEL 1
REMARK VINA RESULT:      -8.0      0.000      0.000
REMARK  5 active torsions:
REMARK  status: ('A' for Active; 'I' for Inactive)
REMARK    1  A    between atoms: N_3  and  C_4 
REMARK    2  A    between atoms: C_5  and  O_6 
REMARK    3  A    between atoms: C_14  and  C_15 
REMARK    4  A    between atoms: C_15  and  N_16 
REMARK       I    between atoms: N_16  and  C_17 
REMARK       I    between atoms: C_17  and  N_18 
REMARK    5  A    between atoms: N_18  and  C_19 
ROOT
HETATM    1  C   UNL     1      40.987 -16.642   6.362  1.00  0.00     0.068 C 
HETATM    2  C   UNL     1      40.866 -16.200   4.944  1.00  0.00     0.014 A 
HETATM    3  N   UNL     1      40.707 -14.881   4.527  1.00  0.00    -0.317 N 
HETATM    4  C   UNL     1      40.688 -14.877   3.130  1.00  0.00     0.021 A 
HETATM    5  C   UNL     1      40.387 -13.661   2.313  1.00  0.00     0.069 C 
HETATM    6  C   UNL     1      40.962 -16.160   2.675  1.00  0.00    -0.016 A 
HETATM    7  C   UNL     1      41.003 -16.991   3.819  1.00  0.00     0.035 A 
ENDROOT
BRANCH   6   8
HETATM    8  C   UNL     1      41.201 -16.592   1.271  1.00  0.00     0.165 C 
BRANCH   8   9
HETATM    9  N   UNL     1      42.604 -16.519   0.948  1.00  0.00    -0.339 N 
HETATM   10  C   UNL     1      43.565 -17.410   1.321  1.00  0.00     0.316 C 
HETATM   11  N   UNL     1      43.100 -18.576   1.857  1.00  0.00    -0.339 N 
HETATM   12  O   UNL     1      44.749 -17.127   1.191  1.00  0.00    -0.247 OA
HETATM   13  H   UNL     1      42.190 -18.858   1.531  1.00  0.00     0.164 HD
HETATM   14  H   UNL     1      42.973 -15.630   0.632  1.00  0.00     0.164 HD
BRANCH  11  15
HETATM   15  C   UNL     1      43.941 -19.665   2.334  1.00  0.00     0.086 C 
HETATM   16  C   UNL     1      43.531 -21.040   1.792  1.00  0.00     0.025 C 
HETATM   17  C   UNL     1      44.514 -22.120   2.243  1.00  0.00     0.002 C 
HETATM   18  C   UNL     1      44.680 -22.135   3.762  1.00  0.00     0.000 C 
HETATM   19  C   UNL     1      45.059 -20.761   4.309  1.00  0.00     0.002 C 
HETATM   20  C   UNL     1      44.076 -19.681   3.860  1.00  0.00     0.025 C 
ENDBRANCH  11  15
ENDBRANCH   8   9
ENDBRANCH   6   8
BRANCH   3  21
HETATM   21  C   UNL     1      40.748 -13.716   5.353  1.00  0.00     0.072 A 
HETATM   22  C   UNL     1      41.947 -13.050   5.659  1.00  0.00     0.095 A 
HETATM   23  C   UNL     1      41.891 -11.894   6.453  1.00  0.00     0.039 A 
HETATM   24  C   UNL     1      40.669 -11.401   6.918  1.00  0.00     0.003 A 
HETATM   25  C   UNL     1      39.485 -12.060   6.608  1.00  0.00     0.002 A 
HETATM   26  C   UNL     1      39.522 -13.215   5.829  1.00  0.00     0.033 A 
BRANCH  22  27
HETATM   27  O   UNL     1      43.126 -13.617   5.254  1.00  0.00    -0.354 OA
HETATM   28  C   UNL     1      44.039 -13.990   6.281  1.00  0.00     0.210 C 
ENDBRANCH  22  27
ENDBRANCH   3  21
TORSDOF 5
ENDMDL
MODEL 2
REMARK VINA RESULT:      -7.9      3.139      5.585
REMARK  5 active torsions:
REMARK  status: ('A' for Active; 'I' for Inactive)
REMARK    1  A    between atoms: N_3  and  C_4 
REMARK    2  A    between atoms: C_5  and  O_6 
REMARK    3  A    between atoms: C_14  and  C_15 
REMARK    4  A    between atoms: C_15  and  N_16 
REMARK       I    between atoms: N_16  and  C_17 
REMARK       I    between atoms: C_17  and  N_18 
REMARK    5  A    between atoms: N_18  and  C_19 
ROOT
HETATM    1  C   UNL     1      41.250 -11.392   0.921  1.00  0.00     0.068 C 
HETATM    2  C   UNL     1      41.628 -12.785   1.291  1.00  0.00     0.014 A 
HETATM    3  N   UNL     1      41.373 -13.917   0.520  1.00  0.00    -0.317 N 
HETATM    4  C   UNL     1      41.928 -15.015   1.182  1.00  0.00     0.021 A 
HETATM    5  C   UNL     1      41.733 -16.429   0.738  1.00  0.00     0.069 C 
HETATM    6  C   UNL     1      42.635 -14.560   2.287  1.00  0.00    -0.016 A 
HETATM    7  C   UNL     1      42.382 -13.172   2.383  1.00  0.00     0.035 A 
ENDROOT
BRANCH   6   8
HETATM    8  C   UNL     1      43.516 -15.354   3.187  1.00  0.00     0.165 C 
BRANCH   8   9
HETATM    9  N   UNL     1      42.731 -16.108   4.132  1.00  0.00    -0.339 N 
HETATM   10  C   UNL     1      42.632 -17.466   4.196  1.00  0.00     0.316 C 
HETATM   11  N   UNL     1      43.532 -18.151   3.432  1.00  0.00    -0.339 N 
HETATM   12  O   UNL     1      41.761 -17.986   4.882  1.00  0.00    -0.247 OA
HETATM   13  H   UNL     1      44.405 -17.673   3.277  1.00  0.00     0.164 HD
HETATM   14  H   UNL     1      42.002 -15.622   4.639  1.00  0.00     0.164 HD
BRANCH  11  15
HETATM   15  C   UNL     1      43.605 -19.602   3.336  1.00  0.00     0.086 C 
HETATM   16  C   UNL     1      44.752 -20.214   4.150  1.00  0.00     0.025 C 
HETATM   17  C   UNL     1      44.708 -21.741   4.092  1.00  0.00     0.002 C 
HETATM   18  C   UNL     1      44.698 -22.253   2.653  1.00  0.00     0.000 C 
HETATM   19  C   UNL     1      43.576 -21.624   1.831  1.00  0.00     0.002 C 
HETATM   20  C   UNL     1      43.620 -20.097   1.886  1.00  0.00     0.025 C 
ENDBRANCH  11  15
ENDBRANCH   8   9
ENDBRANCH   6   8
BRANCH   3  21
HETATM   21  C   UNL     1      40.819 -13.942  -0.797  1.00  0.00     0.072 A 
HETATM   22  C   UNL     1      39.435 -14.008  -1.032  1.00  0.00     0.095 A 
HETATM   23  C   UNL     1      38.976 -13.997  -2.357  1.00  0.00     0.039 A 
HETATM   24  C   UNL     1      39.871 -13.906  -3.426  1.00  0.00     0.003 A 
HETATM   25  C   UNL     1      41.239 -13.836  -3.189  1.00  0.00     0.002 A 
HETATM   26  C   UNL     1      41.714 -13.855  -1.880  1.00  0.00     0.033 A 
BRANCH  22  27
HETATM   27  O   UNL     1      38.602 -14.183   0.042  1.00  0.00    -0.354 OA
HETATM   28  C   UNL     1      37.671 -13.138   0.302  1.00  0.00     0.210 C 
ENDBRANCH  22  27
ENDBRANCH   3  21
TORSDOF 5
ENDMDL
MODEL 3
REMARK VINA RESULT:      -7.9      2.135      4.324
REMARK  5 active torsions:
REMARK  status: ('A' for Active; 'I' for Inactive)
REMARK    1  A    between atoms: N_3  and  C_4 
REMARK    2  A    between atoms: C_5  and  O_6 
REMARK    3  A    between atoms: C_14  and  C_15 
REMARK    4  A    between atoms: C_15  and  N_16 
REMARK       I    between atoms: N_16  and  C_17 
REMARK       I    between atoms: C_17  and  N_18 
REMARK    5  A    between atoms: N_18  and  C_19 
ROOT
HETATM    1  C   UNL     1      42.071 -12.513   4.427  1.00  0.00     0.068 C 
HETATM    2  C   UNL     1      41.971 -13.926   4.887  1.00  0.00     0.014 A 
HETATM    3  N   UNL     1      41.499 -14.988   4.120  1.00  0.00    -0.317 N 
HETATM    4  C   UNL     1      41.616 -16.150   4.886  1.00  0.00     0.021 A 
HETATM    5  C   UNL     1      41.074 -17.477   4.458  1.00  0.00     0.069 C 
HETATM    6  C   UNL     1      42.273 -15.842   6.069  1.00  0.00    -0.016 A 
HETATM    7  C   UNL     1      42.429 -14.437   6.088  1.00  0.00     0.035 A 
ENDROOT
BRANCH   6   8
HETATM    8  C   UNL     1      42.757 -16.790   7.110  1.00  0.00     0.165 C 
BRANCH   8   9
HETATM    9  N   UNL     1      44.188 -16.946   7.031  1.00  0.00    -0.339 N 
HETATM   10  C   UNL     1      44.856 -17.957   6.408  1.00  0.00     0.316 C 
HETATM   11  N   UNL     1      44.088 -18.758   5.613  1.00  0.00    -0.339 N 
HETATM   12  O   UNL     1      46.055 -18.113   6.603  1.00  0.00    -0.247 OA
HETATM   13  H   UNL     1      43.281 -18.307   5.212  1.00  0.00     0.164 HD
HETATM   14  H   UNL     1      44.760 -16.418   7.679  1.00  0.00     0.164 HD
BRANCH  11  15
HETATM   15  C   UNL     1      44.584 -19.903   4.862  1.00  0.00     0.086 C 
HETATM   16  C   UNL     1      44.030 -19.986   3.434  1.00  0.00     0.025 C 
HETATM   17  C   UNL     1      44.668 -21.144   2.667  1.00  0.00     0.002 C 
HETATM   18  C   UNL     1      44.515 -22.469   3.413  1.00  0.00     0.000 C 
HETATM   19  C   UNL     1      45.037 -22.382   4.845  1.00  0.00     0.002 C 
HETATM   20  C   UNL     1      44.398 -21.226   5.613  1.00  0.00     0.025 C 
ENDBRANCH  11  15
ENDBRANCH   8   9
ENDBRANCH   6   8
BRANCH   3  21
HETATM   21  C   UNL     1      41.139 -14.945   2.738  1.00  0.00     0.072 A 
HETATM   22  C   UNL     1      42.009 -15.368   1.718  1.00  0.00     0.095 A 
HETATM   23  C   UNL     1      41.561 -15.321   0.389  1.00  0.00     0.039 A 
HETATM   24  C   UNL     1      40.271 -14.879   0.081  1.00  0.00     0.003 A 
HETATM   25  C   UNL     1      39.413 -14.467   1.094  1.00  0.00     0.002 A 
HETATM   26  C   UNL     1      39.843 -14.498   2.418  1.00  0.00     0.033 A 
BRANCH  22  27
HETATM   27  O   UNL     1      43.290 -15.711   2.058  1.00  0.00    -0.354 OA
HETATM   28  C   UNL     1      43.804 -16.907   1.482  1.00  0.00     0.210 C 
ENDBRANCH  22  27
ENDBRANCH   3  21
TORSDOF 5
ENDMDL
MODEL 4
REMARK VINA RESULT:      -7.8      3.693      8.812
REMARK  5 active torsions:
REMARK  status: ('A' for Active; 'I' for Inactive)
REMARK    1  A    between atoms: N_3  and  C_4 
REMARK    2  A    between atoms: C_5  and  O_6 
REMARK    3  A    between atoms: C_14  and  C_15 
REMARK    4  A    between atoms: C_15  and  N_16 
REMARK       I    between atoms: N_16  and  C_17 
REMARK       I    between atoms: C_17  and  N_18 
REMARK    5  A    between atoms: N_18  and  C_19 
ROOT
HETATM    1  C   UNL     1      43.141 -18.230   6.383  1.00  0.00     0.068 C 
HETATM    2  C   UNL     1      43.407 -16.787   6.124  1.00  0.00     0.014 A 
HETATM    3  N   UNL     1      43.313 -16.166   4.881  1.00  0.00    -0.317 N 
HETATM    4  C   UNL     1      43.585 -14.808   5.064  1.00  0.00     0.021 A 
HETATM    5  C   UNL     1      43.724 -13.836   3.936  1.00  0.00     0.069 C 
HETATM    6  C   UNL     1      43.718 -14.557   6.423  1.00  0.00    -0.016 A 
HETATM    7  C   UNL     1      43.673 -15.814   7.069  1.00  0.00     0.035 A 
ENDROOT
BRANCH   6   8
HETATM    8  C   UNL     1      43.851 -13.234   7.091  1.00  0.00     0.165 C 
BRANCH   8   9
HETATM    9  N   UNL     1      44.707 -13.331   8.247  1.00  0.00    -0.339 N 
HETATM   10  C   UNL     1      44.675 -12.524   9.345  1.00  0.00     0.316 C 
HETATM   11  N   UNL     1      43.589 -11.703   9.431  1.00  0.00    -0.339 N 
HETATM   12  O   UNL     1      45.594 -12.551  10.154  1.00  0.00    -0.247 OA
HETATM   13  H   UNL     1      42.756 -12.054   8.986  1.00  0.00     0.164 HD
HETATM   14  H   UNL     1      45.561 -13.870   8.161  1.00  0.00     0.164 HD
BRANCH  11  15
HETATM   15  C   UNL     1      43.351 -10.751  10.507  1.00  0.00     0.086 C 
HETATM   16  C   UNL     1      43.190 -11.409  11.883  1.00  0.00     0.025 C 
HETATM   17  C   UNL     1      43.050 -10.354  12.980  1.00  0.00     0.002 C 
HETATM   18  C   UNL     1      41.915  -9.376  12.683  1.00  0.00     0.000 C 
HETATM   19  C   UNL     1      42.055  -8.740  11.302  1.00  0.00     0.002 C 
HETATM   20  C   UNL     1      42.192  -9.794  10.204  1.00  0.00     0.025 C 
ENDBRANCH  11  15
ENDBRANCH   8   9
ENDBRANCH   6   8
BRANCH   3  21
HETATM   21  C   UNL     1      42.840 -16.755   3.668  1.00  0.00     0.072 A 
HETATM   22  C   UNL     1      41.533 -16.558   3.193  1.00  0.00     0.095 A 
HETATM   23  C   UNL     1      41.163 -17.149   1.976  1.00  0.00     0.039 A 
HETATM   24  C   UNL     1      42.077 -17.907   1.238  1.00  0.00     0.003 A 
HETATM   25  C   UNL     1      43.371 -18.094   1.710  1.00  0.00     0.002 A 
HETATM   26  C   UNL     1      43.753 -17.523   2.921  1.00  0.00     0.033 A 
BRANCH  22  27
HETATM   27  O   UNL     1      40.648 -15.881   3.989  1.00  0.00    -0.354 OA
HETATM   28  C   UNL     1      40.003 -14.752   3.410  1.00  0.00     0.210 C 
ENDBRANCH  22  27
ENDBRANCH   3  21
TORSDOF 5
ENDMDL
MODEL 5
REMARK VINA RESULT:      -7.7      3.564      8.796
REMARK  5 active torsions:
REMARK  status: ('A' for Active; 'I' for Inactive)
REMARK    1  A    between atoms: N_3  and  C_4 
REMARK    2  A    between atoms: C_5  and  O_6 
REMARK    3  A    between atoms: C_14  and  C_15 
REMARK    4  A    between atoms: C_15  and  N_16 
REMARK       I    between atoms: N_16  and  C_17 
REMARK       I    between atoms: C_17  and  N_18 
REMARK    5  A    between atoms: N_18  and  C_19 
ROOT
HETATM    1  C   UNL     1      43.223 -13.936   2.856  1.00  0.00     0.068 C 
HETATM    2  C   UNL     1      43.259 -14.550   4.213  1.00  0.00     0.014 A 
HETATM    3  N   UNL     1      43.067 -15.902   4.486  1.00  0.00    -0.317 N 
HETATM    4  C   UNL     1      43.231 -16.085   5.861  1.00  0.00     0.021 A 
HETATM    5  C   UNL     1      42.957 -17.379   6.559  1.00  0.00     0.069 C 
HETATM    6  C   UNL     1      43.650 -14.887   6.424  1.00  0.00    -0.016 A 
HETATM    7  C   UNL     1      43.597 -13.919   5.395  1.00  0.00     0.035 A 
ENDROOT
BRANCH   6   8
HETATM    8  C   UNL     1      44.101 -14.653   7.824  1.00  0.00     0.165 C 
BRANCH   8   9
HETATM    9  N   UNL     1      45.080 -13.597   7.873  1.00  0.00    -0.339 N 
HETATM   10  C   UNL     1      44.971 -12.426   8.562  1.00  0.00     0.316 C 
HETATM   11  N   UNL     1      43.934 -12.369   9.449  1.00  0.00    -0.339 N 
HETATM   12  O   UNL     1      45.753 -11.510   8.345  1.00  0.00    -0.247 OA
HETATM   13  H   UNL     1      43.656 -13.258   9.833  1.00  0.00     0.164 HD
HETATM   14  H   UNL     1      45.802 -13.585   7.163  1.00  0.00     0.164 HD
BRANCH  11  15
HETATM   15  C   UNL     1      43.618 -11.218  10.283  1.00  0.00     0.086 C 
HETATM   16  C   UNL     1      43.745 -11.497  11.787  1.00  0.00     0.025 C 
HETATM   17  C   UNL     1      43.505 -10.226  12.600  1.00  0.00     0.002 C 
HETATM   18  C   UNL     1      42.165  -9.578  12.255  1.00  0.00     0.000 C 
HETATM   19  C   UNL     1      42.022  -9.326  10.756  1.00  0.00     0.002 C 
HETATM   20  C   UNL     1      42.260 -10.597   9.942  1.00  0.00     0.025 C 
ENDBRANCH  11  15
ENDBRANCH   8   9
ENDBRANCH   6   8
BRANCH   3  21
HETATM   21  C   UNL     1      42.919 -16.951   3.527  1.00  0.00     0.072 A 
HETATM   22  C   UNL     1      41.741 -17.132   2.782  1.00  0.00     0.095 A 
HETATM   23  C   UNL     1      41.694 -18.170   1.839  1.00  0.00     0.039 A 
HETATM   24  C   UNL     1      42.798 -19.000   1.629  1.00  0.00     0.003 A 
HETATM   25  C   UNL     1      43.963 -18.814   2.365  1.00  0.00     0.002 A 
HETATM   26  C   UNL     1      44.025 -17.795   3.312  1.00  0.00     0.033 A 
BRANCH  22  27
HETATM   27  O   UNL     1      40.657 -16.351   3.082  1.00  0.00    -0.354 OA
HETATM   28  C   UNL     1      39.933 -15.815   1.980  1.00  0.00     0.210 C 
ENDBRANCH  22  27
ENDBRANCH   3  21
TORSDOF 5
ENDMDL
MODEL 6
REMARK VINA RESULT:      -7.6      3.303      5.714
REMARK  5 active torsions:
REMARK  status: ('A' for Active; 'I' for Inactive)
REMARK    1  A    between atoms: N_3  and  C_4 
REMARK    2  A    between atoms: C_5  and  O_6 
REMARK    3  A    between atoms: C_14  and  C_15 
REMARK    4  A    between atoms: C_15  and  N_16 
REMARK       I    between atoms: N_16  and  C_17 
REMARK       I    between atoms: C_17  and  N_18 
REMARK    5  A    between atoms: N_18  and  C_19 
ROOT
HETATM    1  C   UNL     1      38.399 -12.588   0.173  1.00  0.00     0.068 C 
HETATM    2  C   UNL     1      39.180 -13.808   0.524  1.00  0.00     0.014 A 
HETATM    3  N   UNL     1      40.269 -14.297  -0.194  1.00  0.00    -0.317 N 
HETATM    4  C   UNL     1      40.754 -15.418   0.484  1.00  0.00     0.021 A 
HETATM    5  C   UNL     1      41.830 -16.306  -0.057  1.00  0.00     0.069 C 
HETATM    6  C   UNL     1      40.061 -15.554   1.679  1.00  0.00    -0.016 A 
HETATM    7  C   UNL     1      39.034 -14.582   1.660  1.00  0.00     0.035 A 
ENDROOT
BRANCH   6   8
HETATM    8  C   UNL     1      40.346 -16.504   2.789  1.00  0.00     0.165 C 
BRANCH   8   9
HETATM    9  N   UNL     1      41.608 -16.194   3.412  1.00  0.00    -0.339 N 
HETATM   10  C   UNL     1      42.656 -17.048   3.583  1.00  0.00     0.316 C 
HETATM   11  N   UNL     1      42.561 -18.227   2.901  1.00  0.00    -0.339 N 
HETATM   12  O   UNL     1      43.580 -16.746   4.328  1.00  0.00    -0.247 OA
HETATM   13  H   UNL     1      42.026 -18.181   2.049  1.00  0.00     0.164 HD
HETATM   14  H   UNL     1      41.660 -15.364   3.992  1.00  0.00     0.164 HD
BRANCH  11  15
HETATM   15  C   UNL     1      43.554 -19.291   2.941  1.00  0.00     0.086 C 
HETATM   16  C   UNL     1      43.243 -20.456   1.993  1.00  0.00     0.025 C 
HETATM   17  C   UNL     1      44.372 -21.486   2.004  1.00  0.00     0.002 C 
HETATM   18  C   UNL     1      44.678 -21.974   3.419  1.00  0.00     0.000 C 
HETATM   19  C   UNL     1      44.959 -20.816   4.374  1.00  0.00     0.002 C 
HETATM   20  C   UNL     1      43.830 -19.787   4.365  1.00  0.00     0.025 C 
ENDBRANCH  11  15
ENDBRANCH   8   9
ENDBRANCH   6   8
BRANCH   3  21
HETATM   21  C   UNL     1      40.903 -13.670  -1.310  1.00  0.00     0.072 A 
HETATM   22  C   UNL     1      40.465 -13.860  -2.631  1.00  0.00     0.095 A 
HETATM   23  C   UNL     1      41.128 -13.180  -3.664  1.00  0.00     0.039 A 
HETATM   24  C   UNL     1      42.192 -12.317  -3.388  1.00  0.00     0.003 A 
HETATM   25  C   UNL     1      42.618 -12.128  -2.079  1.00  0.00     0.002 A 
HETATM   26  C   UNL     1      41.979 -12.802  -1.042  1.00  0.00     0.033 A 
BRANCH  22  27
HETATM   27  O   UNL     1      39.477 -14.779  -2.862  1.00  0.00    -0.354 OA
HETATM   28  C   UNL     1      39.862 -15.974  -3.533  1.00  0.00     0.210 C 
ENDBRANCH  22  27
ENDBRANCH   3  21
TORSDOF 5
ENDMDL
MODEL 7
REMARK VINA RESULT:      -7.6      3.684      6.691
REMARK  5 active torsions:
REMARK  status: ('A' for Active; 'I' for Inactive)
REMARK    1  A    between atoms: N_3  and  C_4 
REMARK    2  A    between atoms: C_5  and  O_6 
REMARK    3  A    between atoms: C_14  and  C_15 
REMARK    4  A    between atoms: C_15  and  N_16 
REMARK       I    between atoms: N_16  and  C_17 
REMARK       I    between atoms: C_17  and  N_18 
REMARK    5  A    between atoms: N_18  and  C_19 
ROOT
HETATM    1  C   UNL     1      40.823 -11.150  -1.766  1.00  0.00     0.068 C 
HETATM    2  C   UNL     1      40.560 -11.907  -0.509  1.00  0.00     0.014 A 
HETATM    3  N   UNL     1      40.047 -13.200  -0.444  1.00  0.00    -0.317 N 
HETATM    4  C   UNL     1      40.001 -13.571   0.902  1.00  0.00     0.021 A 
HETATM    5  C   UNL     1      39.370 -14.837   1.387  1.00  0.00     0.069 C 
HETATM    6  C   UNL     1      40.599 -12.574   1.662  1.00  0.00    -0.016 A 
HETATM    7  C   UNL     1      40.883 -11.510   0.775  1.00  0.00     0.035 A 
ENDROOT
BRANCH   6   8
HETATM    8  C   UNL     1      40.918 -12.612   3.115  1.00  0.00     0.165 C 
BRANCH   8   9
HETATM    9  N   UNL     1      42.345 -12.616   3.323  1.00  0.00    -0.339 N 
HETATM   10  C   UNL     1      43.162 -13.705   3.287  1.00  0.00     0.316 C 
HETATM   11  N   UNL     1      42.593 -14.843   2.793  1.00  0.00    -0.339 N 
HETATM   12  O   UNL     1      44.310 -13.625   3.706  1.00  0.00    -0.247 OA
HETATM   13  H   UNL     1      41.855 -14.691   2.126  1.00  0.00     0.164 HD
HETATM   14  H   UNL     1      42.762 -11.807   3.769  1.00  0.00     0.164 HD
BRANCH  11  15
HETATM   15  C   UNL     1      43.271 -16.126   2.673  1.00  0.00     0.086 C 
HETATM   16  C   UNL     1      43.081 -16.794   1.305  1.00  0.00     0.025 C 
HETATM   17  C   UNL     1      43.902 -18.079   1.207  1.00  0.00     0.002 C 
HETATM   18  C   UNL     1      43.591 -19.039   2.354  1.00  0.00     0.000 C 
HETATM   19  C   UNL     1      43.750 -18.370   3.717  1.00  0.00     0.002 C 
HETATM   20  C   UNL     1      42.928 -17.085   3.818  1.00  0.00     0.025 C 
ENDBRANCH  11  15
ENDBRANCH   8   9
ENDBRANCH   6   8
BRANCH   3  21
HETATM   21  C   UNL     1      39.791 -14.070  -1.548  1.00  0.00     0.072 A 
HETATM   22  C   UNL     1      38.586 -14.038  -2.270  1.00  0.00     0.095 A 
HETATM   23  C   UNL     1      38.432 -14.908  -3.360  1.00  0.00     0.039 A 
HETATM   24  C   UNL     1      39.459 -15.779  -3.735  1.00  0.00     0.003 A 
HETATM   25  C   UNL     1      40.650 -15.803  -3.020  1.00  0.00     0.002 A 
HETATM   26  C   UNL     1      40.818 -14.954  -1.929  1.00  0.00     0.033 A 
BRANCH  22  27
HETATM   27  O   UNL     1      37.578 -13.231  -1.815  1.00  0.00    -0.354 OA
HETATM   28  C   UNL     1      37.255 -12.101  -2.618  1.00  0.00     0.210 C 
ENDBRANCH  22  27
ENDBRANCH   3  21
TORSDOF 5
ENDMDL
MODEL 8
REMARK VINA RESULT:      -7.5      2.514      4.616
REMARK  5 active torsions:
REMARK  status: ('A' for Active; 'I' for Inactive)
REMARK    1  A    between atoms: N_3  and  C_4 
REMARK    2  A    between atoms: C_5  and  O_6 
REMARK    3  A    between atoms: C_14  and  C_15 
REMARK    4  A    between atoms: C_15  and  N_16 
REMARK       I    between atoms: N_16  and  C_17 
REMARK       I    between atoms: C_17  and  N_18 
REMARK    5  A    between atoms: N_18  and  C_19 
ROOT
HETATM    1  C   UNL     1      40.641 -11.323   2.928  1.00  0.00     0.068 C 
HETATM    2  C   UNL     1      41.167 -12.712   3.052  1.00  0.00     0.014 A 
HETATM    3  N   UNL     1      40.748 -13.799   2.287  1.00  0.00    -0.317 N 
HETATM    4  C   UNL     1      41.514 -14.904   2.666  1.00  0.00     0.021 A 
HETATM    5  C   UNL     1      41.259 -16.292   2.172  1.00  0.00     0.069 C 
HETATM    6  C   UNL     1      42.489 -14.487   3.563  1.00  0.00    -0.016 A 
HETATM    7  C   UNL     1      42.217 -13.129   3.848  1.00  0.00     0.035 A 
ENDROOT
BRANCH   6   8
HETATM    8  C   UNL     1      43.623 -15.285   4.104  1.00  0.00     0.165 C 
BRANCH   8   9
HETATM    9  N   UNL     1      43.164 -16.194   5.124  1.00  0.00    -0.339 N 
HETATM   10  C   UNL     1      43.063 -17.548   5.012  1.00  0.00     0.316 C 
HETATM   11  N   UNL     1      43.660 -18.086   3.909  1.00  0.00    -0.339 N 
HETATM   12  O   UNL     1      42.445 -18.190   5.852  1.00  0.00    -0.247 OA
HETATM   13  H   UNL     1      44.448 -17.565   3.558  1.00  0.00     0.164 HD
HETATM   14  H   UNL     1      42.643 -15.809   5.903  1.00  0.00     0.164 HD
BRANCH  11  15
HETATM   15  C   UNL     1      43.669 -19.504   3.578  1.00  0.00     0.086 C 
HETATM   16  C   UNL     1      44.842 -20.272   4.201  1.00  0.00     0.025 C 
HETATM   17  C   UNL     1      44.735 -21.767   3.905  1.00  0.00     0.002 C 
HETATM   18  C   UNL     1      44.612 -22.040   2.407  1.00  0.00     0.000 C 
HETATM   19  C   UNL     1      43.464 -21.255   1.776  1.00  0.00     0.002 C 
HETATM   20  C   UNL     1      43.572 -19.759   2.070  1.00  0.00     0.025 C 
ENDBRANCH  11  15
ENDBRANCH   8   9
ENDBRANCH   6   8
BRANCH   3  21
HETATM   21  C   UNL     1      39.841 -13.764   1.184  1.00  0.00     0.072 A 
HETATM   22  C   UNL     1      40.275 -13.616  -0.145  1.00  0.00     0.095 A 
HETATM   23  C   UNL     1      39.317 -13.624  -1.170  1.00  0.00     0.039 A 
HETATM   24  C   UNL     1      37.960 -13.792  -0.883  1.00  0.00     0.003 A 
HETATM   25  C   UNL     1      37.537 -13.944   0.432  1.00  0.00     0.002 A 
HETATM   26  C   UNL     1      38.472 -13.928   1.464  1.00  0.00     0.033 A 
BRANCH  22  27
HETATM   27  O   UNL     1      41.603 -13.368  -0.370  1.00  0.00    -0.354 OA
HETATM   28  C   UNL     1      41.958 -12.022  -0.668  1.00  0.00     0.210 C 
ENDBRANCH  22  27
ENDBRANCH   3  21
TORSDOF 5
ENDMDL
MODEL 9
REMARK VINA RESULT:      -7.4      4.322      7.653
REMARK  5 active torsions:
REMARK  status: ('A' for Active; 'I' for Inactive)
REMARK    1  A    between atoms: N_3  and  C_4 
REMARK    2  A    between atoms: C_5  and  O_6 
REMARK    3  A    between atoms: C_14  and  C_15 
REMARK    4  A    between atoms: C_15  and  N_16 
REMARK       I    between atoms: N_16  and  C_17 
REMARK       I    between atoms: C_17  and  N_18 
REMARK    5  A    between atoms: N_18  and  C_19 
ROOT
HETATM    1  C   UNL     1      43.608 -13.997   3.474  1.00  0.00     0.068 C 
HETATM    2  C   UNL     1      42.729 -14.664   2.473  1.00  0.00     0.014 A 
HETATM    3  N   UNL     1      42.370 -16.010   2.491  1.00  0.00    -0.317 N 
HETATM    4  C   UNL     1      41.498 -16.231   1.423  1.00  0.00     0.021 A 
HETATM    5  C   UNL     1      41.010 -17.588   1.024  1.00  0.00     0.069 C 
HETATM    6  C   UNL     1      41.210 -15.014   0.820  1.00  0.00    -0.016 A 
HETATM    7  C   UNL     1      42.039 -14.052   1.443  1.00  0.00     0.035 A 
ENDROOT
BRANCH   6   8
HETATM    8  C   UNL     1      40.208 -14.746  -0.248  1.00  0.00     0.165 C 
BRANCH   8   9
HETATM    9  N   UNL     1      40.633 -15.319  -1.499  1.00  0.00    -0.339 N 
HETATM   10  C   UNL     1      40.817 -14.651  -2.673  1.00  0.00     0.316 C 
HETATM   11  N   UNL     1      40.804 -13.290  -2.574  1.00  0.00    -0.339 N 
HETATM   12  O   UNL     1      40.951 -15.273  -3.719  1.00  0.00    -0.247 OA
HETATM   13  H   UNL     1      41.107 -12.927  -1.685  1.00  0.00     0.164 HD
HETATM   14  H   UNL     1      40.563 -16.324  -1.609  1.00  0.00     0.164 HD
BRANCH  11  15
HETATM   15  C   UNL     1      40.968 -12.375  -3.695  1.00  0.00     0.086 C 
HETATM   16  C   UNL     1      42.305 -11.624  -3.683  1.00  0.00     0.025 C 
HETATM   17  C   UNL     1      42.460 -10.763  -4.936  1.00  0.00     0.002 C 
HETATM   18  C   UNL     1      41.277  -9.813  -5.119  1.00  0.00     0.000 C 
HETATM   19  C   UNL     1      39.942 -10.552  -5.102  1.00  0.00     0.002 C 
HETATM   20  C   UNL     1      39.786 -11.411  -3.848  1.00  0.00     0.025 C 
ENDBRANCH  11  15
ENDBRANCH   8   9
ENDBRANCH   6   8
BRANCH   3  21
HETATM   21  C   UNL     1      42.674 -16.958   3.516  1.00  0.00     0.072 A 
HETATM   22  C   UNL     1      41.864 -17.127   4.652  1.00  0.00     0.095 A 
HETATM   23  C   UNL     1      42.222 -18.104   5.593  1.00  0.00     0.039 A 
HETATM   24  C   UNL     1      43.350 -18.907   5.403  1.00  0.00     0.003 A 
HETATM   25  C   UNL     1      44.145 -18.739   4.275  1.00  0.00     0.002 A 
HETATM   26  C   UNL     1      43.811 -17.767   3.334  1.00  0.00     0.033 A 
BRANCH  22  27
HETATM   27  O   UNL     1      40.819 -16.262   4.839  1.00  0.00    -0.354 OA
HETATM   28  C   UNL     1      40.801 -15.541   6.066  1.00  0.00     0.210 C 
ENDBRANCH  22  27
ENDBRANCH   3  21
TORSDOF 5
ENDMDL
MODEL 10
REMARK VINA RESULT:      -7.3      3.636      7.700
REMARK  5 active torsions:
REMARK  status: ('A' for Active; 'I' for Inactive)
REMARK    1  A    between atoms: N_3  and  C_4 
REMARK    2  A    between atoms: C_5  and  O_6 
REMARK    3  A    between atoms: C_14  and  C_15 
REMARK    4  A    between atoms: C_15  and  N_16 
REMARK       I    between atoms: N_16  and  C_17 
REMARK       I    between atoms: C_17  and  N_18 
REMARK    5  A    between atoms: N_18  and  C_19 
ROOT
HETATM    1  C   UNL     1      40.817 -17.589   4.828  1.00  0.00     0.068 C 
HETATM    2  C   UNL     1      41.432 -17.275   3.507  1.00  0.00     0.014 A 
HETATM    3  N   UNL     1      42.695 -17.690   3.092  1.00  0.00    -0.317 N 
HETATM    4  C   UNL     1      42.880 -17.241   1.782  1.00  0.00     0.021 A 
HETATM    5  C   UNL     1      44.174 -17.365   1.044  1.00  0.00     0.069 C 
HETATM    6  C   UNL     1      41.697 -16.666   1.336  1.00  0.00    -0.016 A 
HETATM    7  C   UNL     1      40.823 -16.632   2.447  1.00  0.00     0.035 A 
ENDROOT
BRANCH   6   8
HETATM    8  C   UNL     1      41.381 -16.200  -0.042  1.00  0.00     0.165 C 
BRANCH   8   9
HETATM    9  N   UNL     1      40.247 -15.310  -0.031  1.00  0.00    -0.339 N 
HETATM   10  C   UNL     1      40.184 -14.077  -0.606  1.00  0.00     0.316 C 
HETATM   11  N   UNL     1      41.217 -13.773  -1.445  1.00  0.00    -0.339 N 
HETATM   12  O   UNL     1      39.260 -13.319  -0.335  1.00  0.00    -0.247 OA
HETATM   13  H   UNL     1      41.641 -14.567  -1.898  1.00  0.00     0.164 HD
HETATM   14  H   UNL     1      39.517 -15.480   0.651  1.00  0.00     0.164 HD
BRANCH  11  15
HETATM   15  C   UNL     1      41.363 -12.513  -2.159  1.00  0.00     0.086 C 
HETATM   16  C   UNL     1      41.022 -12.610  -3.652  1.00  0.00     0.025 C 
HETATM   17  C   UNL     1      41.093 -11.236  -4.319  1.00  0.00     0.002 C 
HETATM   18  C   UNL     1      42.446 -10.565  -4.088  1.00  0.00     0.000 C 
HETATM   19  C   UNL     1      42.803 -10.492  -2.606  1.00  0.00     0.002 C 
HETATM   20  C   UNL     1      42.734 -11.865  -1.939  1.00  0.00     0.025 C 
ENDBRANCH  11  15
ENDBRANCH   8   9
ENDBRANCH   6   8
BRANCH   3  21
HETATM   21  C   UNL     1      43.573 -18.574   3.792  1.00  0.00     0.072 A 
HETATM   22  C   UNL     1      43.856 -19.873   3.336  1.00  0.00     0.095 A 
HETATM   23  C   UNL     1      44.755 -20.662   4.069  1.00  0.00     0.039 A 
HETATM   24  C   UNL     1      45.373 -20.166   5.221  1.00  0.00     0.003 A 
HETATM   25  C   UNL     1      45.094 -18.878   5.664  1.00  0.00     0.002 A 
HETATM   26  C   UNL     1      44.196 -18.084   4.955  1.00  0.00     0.033 A 
BRANCH  22  27
HETATM   27  O   UNL     1      43.163 -20.347   2.254  1.00  0.00    -0.354 OA
HETATM   28  C   UNL     1      43.636 -21.558   1.675  1.00  0.00     0.210 C 
ENDBRANCH  22  27
ENDBRANCH   3  21
TORSDOF 5
ENDMDL
