MODEL 1
REMARK VINA RESULT:      -9.0      0.000      0.000
REMARK  8 active torsions:
REMARK  status: ('A' for Active; 'I' for Inactive)
REMARK    1  A    between atoms: N_4  and  C_5 
REMARK    2  A    between atoms: C_5  and  C_6 
REMARK    3  A    between atoms: C_8  and  C_9 
REMARK       I    between atoms: C_9  and  N_17 
REMARK    4  A    between atoms: N_17  and  CA_18 
REMARK    5  A    between atoms: CA_18  and  C_19 
REMARK    6  A    between atoms: CA_18  and  CB_21 
REMARK    7  A    between atoms: C_19  and  O_20 
REMARK    8  A    between atoms: CB_21  and  CG_22 
ROOT
HETATM    1  C   UNK A   0      45.036 -13.379   7.243  1.00  0.00     0.252 C 
HETATM    2  O   UNK A   0      45.994 -13.387   6.475  1.00  0.00    -0.268 OA
ATOM      3  N   TRP A   1      43.906 -14.137   7.026  1.00  0.00    -0.350 N 
ATOM      4  H   TRP A   1      43.213 -14.249   7.755  1.00  0.00     0.163 HD
ENDROOT
BRANCH   3   5
ATOM      5  CA  TRP A   1      43.840 -15.104   5.922  1.00  0.00     0.112 C 
BRANCH   5   6
ATOM      6  C   TRP A   1      43.153 -14.440   4.716  1.00  0.00     0.189 C 
BRANCH   6   7
ATOM      7  O   TRP A   1      44.077 -13.641   3.973  1.00  0.00    -0.399 OA
ATOM      8  H   TRP A   1      43.810 -12.714   4.107  1.00  0.00     0.209 HD
ENDBRANCH   6   7
ENDBRANCH   5   6
BRANCH   5   9
ATOM      9  CB  TRP A   1      43.121 -16.388   6.392  1.00  0.00     0.068 C 
BRANCH   9  10
ATOM     10  CG  TRP A   1      43.711 -17.652   5.844  1.00  0.00    -0.028 A 
ATOM     11  CD2 TRP A   1      43.507 -18.183   4.529  1.00  0.00    -0.002 A 
ATOM     12  CE2 TRP A   1      44.248 -19.359   4.433  1.00  0.00     0.042 A 
ATOM     13  CE3 TRP A   1      42.760 -17.764   3.408  1.00  0.00     0.014 A 
ATOM     14  CZ2 TRP A   1      44.280 -20.143   3.273  1.00  0.00     0.030 A 
ATOM     15  NE1 TRP A   1      44.886 -19.536   5.638  1.00  0.00    -0.365 N 
ATOM     16  CH2 TRP A   1      43.530 -19.707   2.176  1.00  0.00     0.002 A 
ATOM     17  CZ3 TRP A   1      42.781 -18.534   2.240  1.00  0.00     0.001 A 
ATOM     18  HE1 TRP A   1      45.505 -20.306   5.849  1.00  0.00     0.165 HD
ATOM     19  CD1 TRP A   1      44.574 -18.513   6.494  1.00  0.00     0.096 A 
ENDBRANCH   9  10
ENDBRANCH   5   9
ENDBRANCH   3   5
BRANCH   1  20
HETATM   20  C   UNK A   0      45.095 -12.585   8.506  1.00  0.00     0.032 A 
HETATM   21  C   UNK A   0      44.143 -12.702   9.533  1.00  0.00     0.026 A 
HETATM   22  C   UNK A   0      44.281 -11.965  10.723  1.00  0.00    -0.037 A 
HETATM   23  C   UNK A   0      45.381 -11.093  10.845  1.00  0.00     0.009 A 
HETATM   24  C   UNK A   0      46.310 -10.950   9.816  1.00  0.00     0.002 A 
HETATM   25  C   UNK A   0      46.168 -11.696   8.651  1.00  0.00     0.017 A 
BRANCH  22  26
HETATM   26  C   UNK A   0      43.365 -12.071  11.924  1.00  0.00     0.189 C 
BRANCH  26  27
HETATM   27  N   UNK A   0      42.288 -11.088  12.024  1.00  0.00    -0.270 N 
HETATM   28  N   UNK A   0      41.223 -11.221  11.204  1.00  0.00    -0.177 NA
HETATM   29  C   UNK A   0      40.534 -10.087  11.360  1.00  0.00     0.053 A 
HETATM   30  C   UNK A   0      39.305  -9.833  10.570  1.00  0.00     0.072 C 
HETATM   31  C   UNK A   0      41.142  -9.239  12.308  1.00  0.00     0.055 A 
HETATM   32  C   UNK A   0      42.286  -9.896  12.713  1.00  0.00     0.029 A 
HETATM   33  C   UNK A   0      43.331  -9.473  13.677  1.00  0.00     0.070 C 
ENDBRANCH  26  27
ENDBRANCH  22  26
ENDBRANCH   1  20
TORSDOF 8
ENDMDL
MODEL 2
REMARK VINA RESULT:      -8.9      1.896      2.795
REMARK  8 active torsions:
REMARK  status: ('A' for Active; 'I' for Inactive)
REMARK    1  A    between atoms: N_4  and  C_5 
REMARK    2  A    between atoms: C_5  and  C_6 
REMARK    3  A    between atoms: C_8  and  C_9 
REMARK       I    between atoms: C_9  and  N_17 
REMARK    4  A    between atoms: N_17  and  CA_18 
REMARK    5  A    between atoms: CA_18  and  C_19 
REMARK    6  A    between atoms: CA_18  and  CB_21 
REMARK    7  A    between atoms: C_19  and  O_20 
REMARK    8  A    between atoms: CB_21  and  CG_22 
ROOT
HETATM    1  C   UNK A   0      44.272 -14.792   6.654  1.00  0.00     0.252 C 
HETATM    2  O   UNK A   0      43.803 -14.640   5.530  1.00  0.00    -0.268 OA
ATOM      3  N   TRP A   1      44.200 -15.990   7.331  1.00  0.00    -0.350 N 
ATOM      4  H   TRP A   1      44.744 -16.140   8.173  1.00  0.00     0.163 HD
ENDROOT
BRANCH   3   5
ATOM      5  CA  TRP A   1      43.669 -17.198   6.686  1.00  0.00     0.112 C 
BRANCH   5   6
ATOM      6  C   TRP A   1      43.164 -18.164   7.772  1.00  0.00     0.189 C 
BRANCH   6   7
ATOM      7  O   TRP A   1      43.559 -17.727   9.074  1.00  0.00    -0.399 OA
ATOM      8  H   TRP A   1      44.435 -18.119   9.243  1.00  0.00     0.209 HD
ENDBRANCH   6   7
ENDBRANCH   5   6
BRANCH   5   9
ATOM      9  CB  TRP A   1      44.748 -17.825   5.777  1.00  0.00     0.068 C 
BRANCH   9  10
ATOM     10  CG  TRP A   1      44.234 -18.273   4.442  1.00  0.00    -0.028 A 
ATOM     11  CD2 TRP A   1      44.301 -19.602   3.910  1.00  0.00    -0.002 A 
ATOM     12  CE2 TRP A   1      43.696 -19.581   2.654  1.00  0.00     0.042 A 
ATOM     13  CE3 TRP A   1      44.819 -20.823   4.388  1.00  0.00     0.014 A 
ATOM     14  CZ2 TRP A   1      43.584 -20.721   1.848  1.00  0.00     0.030 A 
ATOM     15  NE1 TRP A   1      43.269 -18.294   2.431  1.00  0.00    -0.365 N 
ATOM     16  CH2 TRP A   1      44.107 -21.919   2.344  1.00  0.00     0.002 A 
ATOM     17  CZ3 TRP A   1      44.716 -21.972   3.596  1.00  0.00     0.001 A 
ATOM     18  HE1 TRP A   1      42.782 -17.990   1.600  1.00  0.00     0.165 HD
ATOM     19  CD1 TRP A   1      43.583 -17.497   3.502  1.00  0.00     0.096 A 
ENDBRANCH   9  10
ENDBRANCH   5   9
ENDBRANCH   3   5
BRANCH   1  20
HETATM   20  C   UNK A   0      45.018 -13.679   7.311  1.00  0.00     0.032 A 
HETATM   21  C   UNK A   0      44.501 -12.934   8.386  1.00  0.00     0.026 A 
HETATM   22  C   UNK A   0      45.275 -11.931   8.998  1.00  0.00    -0.037 A 
HETATM   23  C   UNK A   0      46.565 -11.678   8.490  1.00  0.00     0.009 A 
HETATM   24  C   UNK A   0      47.069 -12.393   7.405  1.00  0.00     0.002 A 
HETATM   25  C   UNK A   0      46.298 -13.391   6.819  1.00  0.00     0.017 A 
BRANCH  22  26
HETATM   26  C   UNK A   0      44.854 -11.124  10.208  1.00  0.00     0.189 C 
BRANCH  26  27
HETATM   27  N   UNK A   0      43.452 -10.720  10.279  1.00  0.00    -0.270 N 
HETATM   28  N   UNK A   0      42.915 -10.082   9.215  1.00  0.00    -0.177 NA
HETATM   29  C   UNK A   0      41.727  -9.649   9.646  1.00  0.00     0.053 A 
HETATM   30  C   UNK A   0      40.850  -8.843   8.763  1.00  0.00     0.072 C 
HETATM   31  C   UNK A   0      41.487 -10.039  10.979  1.00  0.00     0.055 A 
HETATM   32  C   UNK A   0      42.622 -10.715  11.378  1.00  0.00     0.029 A 
HETATM   33  C   UNK A   0      42.948 -11.330  12.688  1.00  0.00     0.070 C 
ENDBRANCH  26  27
ENDBRANCH  22  26
ENDBRANCH   1  20
TORSDOF 8
ENDMDL
MODEL 3
REMARK VINA RESULT:      -8.9      6.334     10.169
REMARK  8 active torsions:
REMARK  status: ('A' for Active; 'I' for Inactive)
REMARK    1  A    between atoms: N_4  and  C_5 
REMARK    2  A    between atoms: C_5  and  C_6 
REMARK    3  A    between atoms: C_8  and  C_9 
REMARK       I    between atoms: C_9  and  N_17 
REMARK    4  A    between atoms: N_17  and  CA_18 
REMARK    5  A    between atoms: CA_18  and  C_19 
REMARK    6  A    between atoms: CA_18  and  CB_21 
REMARK    7  A    between atoms: C_19  and  O_20 
REMARK    8  A    between atoms: CB_21  and  CG_22 
ROOT
HETATM    1  C   UNK A   0      40.328 -16.072   2.284  1.00  0.00     0.252 C 
HETATM    2  O   UNK A   0      40.526 -17.131   1.697  1.00  0.00    -0.268 OA
ATOM      3  N   TRP A   1      40.635 -15.894   3.616  1.00  0.00    -0.350 N 
ATOM      4  H   TRP A   1      40.627 -14.969   4.027  1.00  0.00     0.163 HD
ENDROOT
BRANCH   3   5
ATOM      5  CA  TRP A   1      41.343 -16.931   4.378  1.00  0.00     0.112 C 
BRANCH   5   6
ATOM      6  C   TRP A   1      40.970 -16.802   5.865  1.00  0.00     0.189 C 
BRANCH   6   7
ATOM      7  O   TRP A   1      39.869 -15.908   6.044  1.00  0.00    -0.399 OA
ATOM      8  H   TRP A   1      40.148 -15.256   6.711  1.00  0.00     0.209 HD
ENDBRANCH   6   7
ENDBRANCH   5   6
BRANCH   5   9
ATOM      9  CB  TRP A   1      42.863 -16.820   4.127  1.00  0.00     0.068 C 
BRANCH   9  10
ATOM     10  CG  TRP A   1      43.624 -18.076   4.429  1.00  0.00    -0.028 A 
ATOM     11  CD2 TRP A   1      43.724 -19.231   3.587  1.00  0.00    -0.002 A 
ATOM     12  CE2 TRP A   1      44.536 -20.156   4.240  1.00  0.00     0.042 A 
ATOM     13  CE3 TRP A   1      43.201 -19.568   2.322  1.00  0.00     0.014 A 
ATOM     14  CZ2 TRP A   1      44.849 -21.407   3.695  1.00  0.00     0.030 A 
ATOM     15  NE1 TRP A   1      44.923 -19.587   5.431  1.00  0.00    -0.365 N 
ATOM     16  CH2 TRP A   1      44.316 -21.719   2.441  1.00  0.00     0.002 A 
ATOM     17  CZ3 TRP A   1      43.504 -20.815   1.762  1.00  0.00     0.001 A 
ATOM     18  HE1 TRP A   1      45.528 -20.032   6.106  1.00  0.00     0.165 HD
ATOM     19  CD1 TRP A   1      44.384 -18.333   5.554  1.00  0.00     0.096 A 
ENDBRANCH   9  10
ENDBRANCH   5   9
ENDBRANCH   3   5
BRANCH   1  20
HETATM   20  C   UNK A   0      39.803 -14.890   1.540  1.00  0.00     0.032 A 
HETATM   21  C   UNK A   0      40.148 -14.605   0.207  1.00  0.00     0.026 A 
HETATM   22  C   UNK A   0      39.578 -13.503  -0.459  1.00  0.00    -0.037 A 
HETATM   23  C   UNK A   0      38.679 -12.685   0.252  1.00  0.00     0.009 A 
HETATM   24  C   UNK A   0      38.359 -12.946   1.583  1.00  0.00     0.002 A 
HETATM   25  C   UNK A   0      38.919 -14.046   2.224  1.00  0.00     0.017 A 
BRANCH  22  26
HETATM   26  C   UNK A   0      39.813 -13.149  -1.912  1.00  0.00     0.189 C 
BRANCH  26  27
HETATM   27  N   UNK A   0      39.061 -13.909  -2.908  1.00  0.00    -0.270 N 
HETATM   28  N   UNK A   0      37.851 -13.444  -3.289  1.00  0.00    -0.177 NA
HETATM   29  C   UNK A   0      37.322 -14.434  -4.013  1.00  0.00     0.053 A 
HETATM   30  C   UNK A   0      35.953 -14.317  -4.569  1.00  0.00     0.072 C 
HETATM   31  C   UNK A   0      38.209 -15.524  -4.124  1.00  0.00     0.055 A 
HETATM   32  C   UNK A   0      39.322 -15.173  -3.388  1.00  0.00     0.029 A 
HETATM   33  C   UNK A   0      40.565 -15.939  -3.126  1.00  0.00     0.070 C 
ENDBRANCH  26  27
ENDBRANCH  22  26
ENDBRANCH   1  20
TORSDOF 8
ENDMDL
MODEL 4
REMARK VINA RESULT:      -8.8      2.152      9.806
REMARK  8 active torsions:
REMARK  status: ('A' for Active; 'I' for Inactive)
REMARK    1  A    between atoms: N_4  and  C_5 
REMARK    2  A    between atoms: C_5  and  C_6 
REMARK    3  A    between atoms: C_8  and  C_9 
REMARK       I    between atoms: C_9  and  N_17 
REMARK    4  A    between atoms: N_17  and  CA_18 
REMARK    5  A    between atoms: CA_18  and  C_19 
REMARK    6  A    between atoms: CA_18  and  CB_21 
REMARK    7  A    between atoms: C_19  and  O_20 
REMARK    8  A    between atoms: CB_21  and  CG_22 
ROOT
HETATM    1  C   UNK A   0      44.141 -14.107   6.749  1.00  0.00     0.252 C 
HETATM    2  O   UNK A   0      44.123 -13.319   5.807  1.00  0.00    -0.268 OA
ATOM      3  N   TRP A   1      44.690 -13.786   7.971  1.00  0.00    -0.350 N 
ATOM      4  H   TRP A   1      44.536 -14.381   8.777  1.00  0.00     0.163 HD
ENDROOT
BRANCH   3   5
ATOM      5  CA  TRP A   1      45.172 -12.428   8.257  1.00  0.00     0.112 C 
BRANCH   5   6
ATOM      6  C   TRP A   1      46.677 -12.356   7.949  1.00  0.00     0.189 C 
BRANCH   6   7
ATOM      7  O   TRP A   1      47.142 -11.005   7.961  1.00  0.00    -0.399 OA
ATOM      8  H   TRP A   1      47.011 -10.660   7.061  1.00  0.00     0.209 HD
ENDBRANCH   6   7
ENDBRANCH   5   6
BRANCH   5   9
ATOM      9  CB  TRP A   1      44.837 -12.050   9.716  1.00  0.00     0.068 C 
BRANCH   9  10
ATOM     10  CG  TRP A   1      43.696 -11.087   9.850  1.00  0.00    -0.028 A 
ATOM     11  CD2 TRP A   1      43.351 -10.337  11.021  1.00  0.00    -0.002 A 
ATOM     12  CE2 TRP A   1      42.239  -9.558  10.707  1.00  0.00     0.042 A 
ATOM     13  CE3 TRP A   1      43.891 -10.248  12.321  1.00  0.00     0.014 A 
ATOM     14  CZ2 TRP A   1      41.634  -8.695  11.628  1.00  0.00     0.030 A 
ATOM     15  NE1 TRP A   1      41.921  -9.815   9.394  1.00  0.00    -0.365 N 
ATOM     16  CH2 TRP A   1      42.186  -8.625  12.910  1.00  0.00     0.002 A 
ATOM     17  CZ3 TRP A   1      43.299  -9.389  13.254  1.00  0.00     0.001 A 
ATOM     18  HE1 TRP A   1      41.160  -9.378   8.894  1.00  0.00     0.165 HD
ATOM     19  CD1 TRP A   1      42.794 -10.730   8.865  1.00  0.00     0.096 A 
ENDBRANCH   9  10
ENDBRANCH   5   9
ENDBRANCH   3   5
BRANCH   1  20
HETATM   20  C   UNK A   0      43.487 -15.442   6.621  1.00  0.00     0.032 A 
HETATM   21  C   UNK A   0      42.753 -15.835   5.489  1.00  0.00     0.026 A 
HETATM   22  C   UNK A   0      42.204 -17.128   5.405  1.00  0.00    -0.037 A 
HETATM   23  C   UNK A   0      42.389 -18.003   6.493  1.00  0.00     0.009 A 
HETATM   24  C   UNK A   0      43.090 -17.608   7.631  1.00  0.00     0.002 A 
HETATM   25  C   UNK A   0      43.638 -16.331   7.693  1.00  0.00     0.017 A 
BRANCH  22  26
HETATM   26  C   UNK A   0      41.466 -17.684   4.205  1.00  0.00     0.189 C 
BRANCH  26  27
HETATM   27  N   UNK A   0      42.021 -17.381   2.888  1.00  0.00    -0.270 N 
HETATM   28  N   UNK A   0      41.323 -16.560   2.073  1.00  0.00    -0.177 NA
HETATM   29  C   UNK A   0      41.945 -16.649   0.893  1.00  0.00     0.053 A 
HETATM   30  C   UNK A   0      41.430 -15.919  -0.290  1.00  0.00     0.072 C 
HETATM   31  C   UNK A   0      43.065 -17.502   0.962  1.00  0.00     0.055 A 
HETATM   32  C   UNK A   0      43.087 -17.981   2.256  1.00  0.00     0.029 A 
HETATM   33  C   UNK A   0      44.024 -18.936   2.897  1.00  0.00     0.070 C 
ENDBRANCH  26  27
ENDBRANCH  22  26
ENDBRANCH   1  20
TORSDOF 8
ENDMDL
MODEL 5
REMARK VINA RESULT:      -8.6      4.440      8.927
REMARK  8 active torsions:
REMARK  status: ('A' for Active; 'I' for Inactive)
REMARK    1  A    between atoms: N_4  and  C_5 
REMARK    2  A    between atoms: C_5  and  C_6 
REMARK    3  A    between atoms: C_8  and  C_9 
REMARK       I    between atoms: C_9  and  N_17 
REMARK    4  A    between atoms: N_17  and  CA_18 
REMARK    5  A    between atoms: CA_18  and  C_19 
REMARK    6  A    between atoms: CA_18  and  CB_21 
REMARK    7  A    between atoms: C_19  and  O_20 
REMARK    8  A    between atoms: CB_21  and  CG_22 
ROOT
HETATM    1  C   UNK A   0      41.900 -16.009   4.659  1.00  0.00     0.252 C 
HETATM    2  O   UNK A   0      41.097 -16.415   5.495  1.00  0.00    -0.268 OA
ATOM      3  N   TRP A   1      43.066 -15.361   5.005  1.00  0.00    -0.350 N 
ATOM      4  H   TRP A   1      43.787 -15.196   4.314  1.00  0.00     0.163 HD
ENDROOT
BRANCH   3   5
ATOM      5  CA  TRP A   1      43.478 -15.235   6.409  1.00  0.00     0.112 C 
BRANCH   5   6
ATOM      6  C   TRP A   1      43.768 -13.755   6.714  1.00  0.00     0.189 C 
BRANCH   6   7
ATOM      7  O   TRP A   1      42.574 -12.972   6.649  1.00  0.00    -0.399 OA
ATOM      8  H   TRP A   1      42.288 -12.981   5.718  1.00  0.00     0.209 HD
ENDBRANCH   6   7
ENDBRANCH   5   6
BRANCH   5   9
ATOM      9  CB  TRP A   1      44.688 -16.154   6.685  1.00  0.00     0.068 C 
BRANCH   9  10
ATOM     10  CG  TRP A   1      44.315 -17.558   7.056  1.00  0.00    -0.028 A 
ATOM     11  CD2 TRP A   1      44.450 -18.719   6.227  1.00  0.00    -0.002 A 
ATOM     12  CE2 TRP A   1      44.002 -19.814   6.965  1.00  0.00     0.042 A 
ATOM     13  CE3 TRP A   1      44.920 -18.936   4.916  1.00  0.00     0.014 A 
ATOM     14  CZ2 TRP A   1      43.996 -21.118   6.456  1.00  0.00     0.030 A 
ATOM     15  NE1 TRP A   1      43.616 -19.342   8.197  1.00  0.00    -0.365 N 
ATOM     16  CH2 TRP A   1      44.464 -21.308   5.153  1.00  0.00     0.002 A 
ATOM     17  CZ3 TRP A   1      44.921 -20.234   4.392  1.00  0.00     0.001 A 
ATOM     18  HE1 TRP A   1      43.259 -19.921   8.944  1.00  0.00     0.165 HD
ATOM     19  CD1 TRP A   1      43.804 -17.986   8.266  1.00  0.00     0.096 A 
ENDBRANCH   9  10
ENDBRANCH   5   9
ENDBRANCH   3   5
BRANCH   1  20
HETATM   20  C   UNK A   0      41.670 -16.275   3.209  1.00  0.00     0.032 A 
HETATM   21  C   UNK A   0      41.038 -15.360   2.349  1.00  0.00     0.026 A 
HETATM   22  C   UNK A   0      40.897 -15.647   0.978  1.00  0.00    -0.037 A 
HETATM   23  C   UNK A   0      41.382 -16.880   0.501  1.00  0.00     0.009 A 
HETATM   24  C   UNK A   0      41.980 -17.804   1.356  1.00  0.00     0.002 A 
HETATM   25  C   UNK A   0      42.125 -17.501   2.706  1.00  0.00     0.017 A 
BRANCH  22  26
HETATM   26  C   UNK A   0      40.309 -14.705  -0.052  1.00  0.00     0.189 C 
BRANCH  26  27
HETATM   27  N   UNK A   0      41.250 -14.016  -0.932  1.00  0.00    -0.270 N 
HETATM   28  N   UNK A   0      41.826 -12.878  -0.487  1.00  0.00    -0.177 NA
HETATM   29  C   UNK A   0      42.440 -12.369  -1.559  1.00  0.00     0.053 A 
HETATM   30  C   UNK A   0      43.151 -11.070  -1.478  1.00  0.00     0.072 C 
HETATM   31  C   UNK A   0      42.285 -13.200  -2.687  1.00  0.00     0.055 A 
HETATM   32  C   UNK A   0      41.496 -14.252  -2.266  1.00  0.00     0.029 A 
HETATM   33  C   UNK A   0      40.986 -15.418  -3.028  1.00  0.00     0.070 C 
ENDBRANCH  26  27
ENDBRANCH  22  26
ENDBRANCH   1  20
TORSDOF 8
ENDMDL
MODEL 6
REMARK VINA RESULT:      -8.6      5.937      9.586
REMARK  8 active torsions:
REMARK  status: ('A' for Active; 'I' for Inactive)
REMARK    1  A    between atoms: N_4  and  C_5 
REMARK    2  A    between atoms: C_5  and  C_6 
REMARK    3  A    between atoms: C_8  and  C_9 
REMARK       I    between atoms: C_9  and  N_17 
REMARK    4  A    between atoms: N_17  and  CA_18 
REMARK    5  A    between atoms: CA_18  and  C_19 
REMARK    6  A    between atoms: CA_18  and  CB_21 
REMARK    7  A    between atoms: C_19  and  O_20 
REMARK    8  A    between atoms: CB_21  and  CG_22 
ROOT
HETATM    1  C   UNK A   0      40.430 -16.109   2.316  1.00  0.00     0.252 C 
HETATM    2  O   UNK A   0      40.337 -17.325   2.175  1.00  0.00    -0.268 OA
ATOM      3  N   TRP A   1      40.978 -15.534   3.443  1.00  0.00    -0.350 N 
ATOM      4  H   TRP A   1      41.204 -14.547   3.459  1.00  0.00     0.163 HD
ENDROOT
BRANCH   3   5
ATOM      5  CA  TRP A   1      41.603 -16.354   4.488  1.00  0.00     0.112 C 
BRANCH   5   6
ATOM      6  C   TRP A   1      41.203 -15.799   5.866  1.00  0.00     0.189 C 
BRANCH   6   7
ATOM      7  O   TRP A   1      39.904 -16.256   6.249  1.00  0.00    -0.399 OA
ATOM      8  H   TRP A   1      39.289 -15.946   5.561  1.00  0.00     0.209 HD
ENDBRANCH   6   7
ENDBRANCH   5   6
BRANCH   5   9
ATOM      9  CB  TRP A   1      43.132 -16.396   4.277  1.00  0.00     0.068 C 
BRANCH   9  10
ATOM     10  CG  TRP A   1      43.754 -17.725   4.583  1.00  0.00    -0.028 A 
ATOM     11  CD2 TRP A   1      43.815 -18.855   3.704  1.00  0.00    -0.002 A 
ATOM     12  CE2 TRP A   1      44.490 -19.873   4.377  1.00  0.00     0.042 A 
ATOM     13  CE3 TRP A   1      43.361 -19.101   2.392  1.00  0.00     0.014 A 
ATOM     14  CZ2 TRP A   1      44.731 -21.128   3.806  1.00  0.00     0.030 A 
ATOM     15  NE1 TRP A   1      44.834 -19.382   5.614  1.00  0.00    -0.365 N 
ATOM     16  CH2 TRP A   1      44.269 -21.348   2.505  1.00  0.00     0.002 A 
ATOM     17  CZ3 TRP A   1      43.594 -20.350   1.806  1.00  0.00     0.001 A 
ATOM     18  HE1 TRP A   1      45.345 -19.903   6.313  1.00  0.00     0.165 HD
ATOM     19  CD1 TRP A   1      44.401 -18.089   5.749  1.00  0.00     0.096 A 
ENDBRANCH   9  10
ENDBRANCH   5   9
ENDBRANCH   3   5
BRANCH   1  20
HETATM   20  C   UNK A   0      40.012 -15.192   1.215  1.00  0.00     0.032 A 
HETATM   21  C   UNK A   0      40.808 -14.933   0.086  1.00  0.00     0.026 A 
HETATM   22  C   UNK A   0      40.336 -14.100  -0.945  1.00  0.00    -0.037 A 
HETATM   23  C   UNK A   0      39.062 -13.517  -0.803  1.00  0.00     0.009 A 
HETATM   24  C   UNK A   0      38.282 -13.747   0.329  1.00  0.00     0.002 A 
HETATM   25  C   UNK A   0      38.756 -14.584   1.334  1.00  0.00     0.017 A 
BRANCH  22  26
HETATM   26  C   UNK A   0      41.071 -13.815  -2.239  1.00  0.00     0.189 C 
BRANCH  26  27
HETATM   27  N   UNK A   0      41.595 -12.463  -2.418  1.00  0.00    -0.270 N 
HETATM   28  N   UNK A   0      42.652 -12.082  -1.667  1.00  0.00    -0.177 NA
HETATM   29  C   UNK A   0      42.759 -10.767  -1.880  1.00  0.00     0.053 A 
HETATM   30  C   UNK A   0      43.789  -9.969  -1.173  1.00  0.00     0.072 C 
HETATM   31  C   UNK A   0      41.790 -10.310  -2.795  1.00  0.00     0.055 A 
HETATM   32  C   UNK A   0      41.034 -11.419  -3.119  1.00  0.00     0.029 A 
HETATM   33  C   UNK A   0      39.859 -11.536  -4.017  1.00  0.00     0.070 C 
ENDBRANCH  26  27
ENDBRANCH  22  26
ENDBRANCH   1  20
TORSDOF 8
ENDMDL
MODEL 7
REMARK VINA RESULT:      -8.4      2.642      4.221
REMARK  8 active torsions:
REMARK  status: ('A' for Active; 'I' for Inactive)
REMARK    1  A    between atoms: N_4  and  C_5 
REMARK    2  A    between atoms: C_5  and  C_6 
REMARK    3  A    between atoms: C_8  and  C_9 
REMARK       I    between atoms: C_9  and  N_17 
REMARK    4  A    between atoms: N_17  and  CA_18 
REMARK    5  A    between atoms: CA_18  and  C_19 
REMARK    6  A    between atoms: CA_18  and  CB_21 
REMARK    7  A    between atoms: C_19  and  O_20 
REMARK    8  A    between atoms: CB_21  and  CG_22 
ROOT
HETATM    1  C   UNK A   0      41.857 -13.758   4.225  1.00  0.00     0.252 C 
HETATM    2  O   UNK A   0      43.070 -13.655   4.067  1.00  0.00    -0.268 OA
ATOM      3  N   TRP A   1      41.080 -14.605   3.466  1.00  0.00    -0.350 N 
ATOM      4  H   TRP A   1      40.123 -14.802   3.730  1.00  0.00     0.163 HD
ENDROOT
BRANCH   3   5
ATOM      5  CA  TRP A   1      41.686 -15.536   2.504  1.00  0.00     0.112 C 
BRANCH   5   6
ATOM      6  C   TRP A   1      41.194 -15.184   1.090  1.00  0.00     0.189 C 
BRANCH   6   7
ATOM      7  O   TRP A   1      40.912 -16.364   0.334  1.00  0.00    -0.399 OA
ATOM      8  H   TRP A   1      40.887 -16.093  -0.601  1.00  0.00     0.209 HD
ENDBRANCH   6   7
ENDBRANCH   5   6
BRANCH   5   9
ATOM      9  CB  TRP A   1      41.363 -16.991   2.909  1.00  0.00     0.068 C 
BRANCH   9  10
ATOM     10  CG  TRP A   1      42.507 -17.711   3.557  1.00  0.00    -0.028 A 
ATOM     11  CD2 TRP A   1      43.114 -18.925   3.099  1.00  0.00    -0.002 A 
ATOM     12  CE2 TRP A   1      44.147 -19.236   3.981  1.00  0.00     0.042 A 
ATOM     13  CE3 TRP A   1      42.880 -19.785   2.006  1.00  0.00     0.014 A 
ATOM     14  CZ2 TRP A   1      44.958 -20.368   3.831  1.00  0.00     0.030 A 
ATOM     15  NE1 TRP A   1      44.175 -18.248   4.937  1.00  0.00    -0.365 N 
ATOM     16  CH2 TRP A   1      44.705 -21.206   2.741  1.00  0.00     0.002 A 
ATOM     17  CZ3 TRP A   1      43.681 -20.921   1.840  1.00  0.00     0.001 A 
ATOM     18  HE1 TRP A   1      44.835 -18.211   5.700  1.00  0.00     0.165 HD
ATOM     19  CD1 TRP A   1      43.196 -17.321   4.690  1.00  0.00     0.096 A 
ENDBRANCH   9  10
ENDBRANCH   5   9
ENDBRANCH   3   5
BRANCH   1  20
HETATM   20  C   UNK A   0      41.179 -13.005   5.321  1.00  0.00     0.032 A 
HETATM   21  C   UNK A   0      41.816 -12.007   6.079  1.00  0.00     0.026 A 
HETATM   22  C   UNK A   0      41.107 -11.296   7.064  1.00  0.00    -0.037 A 
HETATM   23  C   UNK A   0      39.756 -11.627   7.286  1.00  0.00     0.009 A 
HETATM   24  C   UNK A   0      39.129 -12.638   6.558  1.00  0.00     0.002 A 
HETATM   25  C   UNK A   0      39.839 -13.323   5.578  1.00  0.00     0.017 A 
BRANCH  22  26
HETATM   26  C   UNK A   0      41.666 -10.150   7.882  1.00  0.00     0.189 C 
BRANCH  26  27
HETATM   27  N   UNK A   0      42.401 -10.500   9.096  1.00  0.00    -0.270 N 
HETATM   28  N   UNK A   0      43.726 -10.740   8.994  1.00  0.00    -0.177 NA
HETATM   29  C   UNK A   0      44.070 -11.242  10.184  1.00  0.00     0.053 A 
HETATM   30  C   UNK A   0      45.460 -11.686  10.445  1.00  0.00     0.072 C 
HETATM   31  C   UNK A   0      42.968 -11.293  11.062  1.00  0.00     0.055 A 
HETATM   32  C   UNK A   0      41.893 -10.826  10.333  1.00  0.00     0.029 A 
HETATM   33  C   UNK A   0      40.471 -10.678  10.731  1.00  0.00     0.070 C 
ENDBRANCH  26  27
ENDBRANCH  22  26
ENDBRANCH   1  20
TORSDOF 8
ENDMDL
MODEL 8
REMARK VINA RESULT:      -8.4      2.839      4.190
REMARK  8 active torsions:
REMARK  status: ('A' for Active; 'I' for Inactive)
REMARK    1  A    between atoms: N_4  and  C_5 
REMARK    2  A    between atoms: C_5  and  C_6 
REMARK    3  A    between atoms: C_8  and  C_9 
REMARK       I    between atoms: C_9  and  N_17 
REMARK    4  A    between atoms: N_17  and  CA_18 
REMARK    5  A    between atoms: CA_18  and  C_19 
REMARK    6  A    between atoms: CA_18  and  CB_21 
REMARK    7  A    between atoms: C_19  and  O_20 
REMARK    8  A    between atoms: CB_21  and  CG_22 
ROOT
HETATM    1  C   UNK A   0      40.705 -13.613   5.641  1.00  0.00     0.252 C 
HETATM    2  O   UNK A   0      39.601 -14.008   5.276  1.00  0.00    -0.268 OA
ATOM      3  N   TRP A   1      41.788 -14.456   5.767  1.00  0.00    -0.350 N 
ATOM      4  H   TRP A   1      42.720 -14.082   5.897  1.00  0.00     0.163 HD
ENDROOT
BRANCH   3   5
ATOM      5  CA  TRP A   1      41.713 -15.861   5.344  1.00  0.00     0.112 C 
BRANCH   5   6
ATOM      6  C   TRP A   1      41.264 -16.719   6.539  1.00  0.00     0.189 C 
BRANCH   6   7
ATOM      7  O   TRP A   1      39.845 -16.895   6.544  1.00  0.00    -0.399 OA
ATOM      8  H   TRP A   1      39.468 -16.083   6.928  1.00  0.00     0.209 HD
ENDBRANCH   6   7
ENDBRANCH   5   6
BRANCH   5   9
ATOM      9  CB  TRP A   1      43.071 -16.306   4.760  1.00  0.00     0.068 C 
BRANCH   9  10
ATOM     10  CG  TRP A   1      42.957 -17.275   3.622  1.00  0.00    -0.028 A 
ATOM     11  CD2 TRP A   1      43.567 -18.569   3.546  1.00  0.00    -0.002 A 
ATOM     12  CE2 TRP A   1      43.190 -19.139   2.331  1.00  0.00     0.042 A 
ATOM     13  CE3 TRP A   1      44.403 -19.310   4.407  1.00  0.00     0.014 A 
ATOM     14  CZ2 TRP A   1      43.610 -20.413   1.929  1.00  0.00     0.030 A 
ATOM     15  NE1 TRP A   1      42.377 -18.233   1.693  1.00  0.00    -0.365 N 
ATOM     16  CH2 TRP A   1      44.440 -21.126   2.798  1.00  0.00     0.002 A 
ATOM     17  CZ3 TRP A   1      44.832 -20.585   4.021  1.00  0.00     0.001 A 
ATOM     18  HE1 TRP A   1      41.946 -18.387   0.793  1.00  0.00     0.165 HD
ATOM     19  CD1 TRP A   1      42.224 -17.109   2.463  1.00  0.00     0.096 A 
ENDBRANCH   9  10
ENDBRANCH   5   9
ENDBRANCH   3   5
BRANCH   1  20
HETATM   20  C   UNK A   0      40.936 -12.161   5.894  1.00  0.00     0.032 A 
HETATM   21  C   UNK A   0      41.011 -11.607   7.184  1.00  0.00     0.026 A 
HETATM   22  C   UNK A   0      41.283 -10.237   7.359  1.00  0.00    -0.037 A 
HETATM   23  C   UNK A   0      41.452  -9.438   6.212  1.00  0.00     0.009 A 
HETATM   24  C   UNK A   0      41.347  -9.977   4.931  1.00  0.00     0.002 A 
HETATM   25  C   UNK A   0      41.092 -11.335   4.773  1.00  0.00     0.017 A 
BRANCH  22  26
HETATM   26  C   UNK A   0      41.465  -9.551   8.696  1.00  0.00     0.189 C 
BRANCH  26  27
HETATM   27  N   UNK A   0      42.325 -10.218   9.671  1.00  0.00    -0.270 N 
HETATM   28  N   UNK A   0      43.638 -10.349   9.382  1.00  0.00    -0.177 NA
HETATM   29  C   UNK A   0      44.110 -11.173  10.323  1.00  0.00     0.053 A 
HETATM   30  C   UNK A   0      45.528 -11.605  10.308  1.00  0.00     0.072 C 
HETATM   31  C   UNK A   0      43.103 -11.545  11.236  1.00  0.00     0.055 A 
HETATM   32  C   UNK A   0      41.951 -10.932  10.788  1.00  0.00     0.029 A 
HETATM   33  C   UNK A   0      40.573 -10.984  11.337  1.00  0.00     0.070 C 
ENDBRANCH  26  27
ENDBRANCH  22  26
ENDBRANCH   1  20
TORSDOF 8
ENDMDL
MODEL 9
REMARK VINA RESULT:      -8.3      5.236      8.602
REMARK  8 active torsions:
REMARK  status: ('A' for Active; 'I' for Inactive)
REMARK    1  A    between atoms: N_4  and  C_5 
REMARK    2  A    between atoms: C_5  and  C_6 
REMARK    3  A    between atoms: C_8  and  C_9 
REMARK       I    between atoms: C_9  and  N_17 
REMARK    4  A    between atoms: N_17  and  CA_18 
REMARK    5  A    between atoms: CA_18  and  C_19 
REMARK    6  A    between atoms: CA_18  and  CB_21 
REMARK    7  A    between atoms: C_19  and  O_20 
REMARK    8  A    between atoms: CB_21  and  CG_22 
ROOT
HETATM    1  C   UNK A   0      41.540 -13.596   4.690  1.00  0.00     0.252 C 
HETATM    2  O   UNK A   0      42.489 -12.881   4.381  1.00  0.00    -0.268 OA
ATOM      3  N   TRP A   1      40.231 -13.220   4.481  1.00  0.00    -0.350 N 
ATOM      4  H   TRP A   1      39.480 -13.893   4.580  1.00  0.00     0.163 HD
ENDROOT
BRANCH   3   5
ATOM      5  CA  TRP A   1      39.900 -11.989   3.753  1.00  0.00     0.112 C 
BRANCH   5   6
ATOM      6  C   TRP A   1      39.094 -11.062   4.679  1.00  0.00     0.189 C 
BRANCH   6   7
ATOM      7  O   TRP A   1      37.746 -10.922   4.223  1.00  0.00    -0.399 OA
ATOM      8  H   TRP A   1      37.274 -10.415   4.906  1.00  0.00     0.209 HD
ENDBRANCH   6   7
ENDBRANCH   5   6
BRANCH   5   9
ATOM      9  CB  TRP A   1      39.149 -12.337   2.449  1.00  0.00     0.068 C 
BRANCH   9  10
ATOM     10  CG  TRP A   1      39.986 -13.065   1.440  1.00  0.00    -0.028 A 
ATOM     11  CD2 TRP A   1      40.223 -14.478   1.395  1.00  0.00    -0.002 A 
ATOM     12  CE2 TRP A   1      41.038 -14.731   0.293  1.00  0.00     0.042 A 
ATOM     13  CE3 TRP A   1      39.810 -15.565   2.192  1.00  0.00     0.014 A 
ATOM     14  CZ2 TRP A   1      41.466 -16.018  -0.053  1.00  0.00     0.030 A 
ATOM     15  NE1 TRP A   1      41.283 -13.522  -0.315  1.00  0.00    -0.365 N 
ATOM     16  CH2 TRP A   1      41.046 -17.079   0.754  1.00  0.00     0.002 A 
ATOM     17  CZ3 TRP A   1      40.229 -16.859   1.861  1.00  0.00     0.001 A 
ATOM     18  HE1 TRP A   1      41.839 -13.407  -1.151  1.00  0.00     0.165 HD
ATOM     19  CD1 TRP A   1      40.652 -12.513   0.362  1.00  0.00     0.096 A 
ENDBRANCH   9  10
ENDBRANCH   5   9
ENDBRANCH   3   5
BRANCH   1  20
HETATM   20  C   UNK A   0      41.780 -14.960   5.247  1.00  0.00     0.032 A 
HETATM   21  C   UNK A   0      42.982 -15.666   5.063  1.00  0.00     0.026 A 
HETATM   22  C   UNK A   0      43.168 -16.927   5.658  1.00  0.00    -0.037 A 
HETATM   23  C   UNK A   0      42.113 -17.470   6.418  1.00  0.00     0.009 A 
HETATM   24  C   UNK A   0      40.909 -16.787   6.577  1.00  0.00     0.002 A 
HETATM   25  C   UNK A   0      40.744 -15.535   5.994  1.00  0.00     0.017 A 
BRANCH  22  26
HETATM   26  C   UNK A   0      44.445 -17.739   5.595  1.00  0.00     0.189 C 
BRANCH  26  27
HETATM   27  N   UNK A   0      44.381 -19.019   4.893  1.00  0.00    -0.270 N 
HETATM   28  N   UNK A   0      44.642 -20.146   5.591  1.00  0.00    -0.177 NA
HETATM   29  C   UNK A   0      44.730 -21.104   4.664  1.00  0.00     0.053 A 
HETATM   30  C   UNK A   0      45.065 -22.497   5.046  1.00  0.00     0.072 C 
HETATM   31  C   UNK A   0      44.491 -20.596   3.371  1.00  0.00     0.055 A 
HETATM   32  C   UNK A   0      44.286 -19.242   3.538  1.00  0.00     0.029 A 
HETATM   33  C   UNK A   0      44.015 -18.193   2.524  1.00  0.00     0.070 C 
ENDBRANCH  26  27
ENDBRANCH  22  26
ENDBRANCH   1  20
TORSDOF 8
ENDMDL
MODEL 10
REMARK VINA RESULT:      -8.3      2.628     10.008
REMARK  8 active torsions:
REMARK  status: ('A' for Active; 'I' for Inactive)
REMARK    1  A    between atoms: N_4  and  C_5 
REMARK    2  A    between atoms: C_5  and  C_6 
REMARK    3  A    between atoms: C_8  and  C_9 
REMARK       I    between atoms: C_9  and  N_17 
REMARK    4  A    between atoms: N_17  and  CA_18 
REMARK    5  A    between atoms: CA_18  and  C_19 
REMARK    6  A    between atoms: CA_18  and  CB_21 
REMARK    7  A    between atoms: C_19  and  O_20 
REMARK    8  A    between atoms: CB_21  and  CG_22 
ROOT
HETATM    1  C   UNK A   0      40.981 -12.639   6.278  1.00  0.00     0.252 C 
HETATM    2  O   UNK A   0      39.770 -12.747   6.448  1.00  0.00    -0.268 OA
ATOM      3  N   TRP A   1      41.724 -11.633   6.856  1.00  0.00    -0.350 N 
ATOM      4  H   TRP A   1      42.736 -11.668   6.845  1.00  0.00     0.163 HD
ENDROOT
BRANCH   3   5
ATOM      5  CA  TRP A   1      41.123 -10.702   7.821  1.00  0.00     0.112 C 
BRANCH   5   6
ATOM      6  C   TRP A   1      40.761  -9.395   7.095  1.00  0.00     0.189 C 
BRANCH   6   7
ATOM      7  O   TRP A   1      41.932  -8.721   6.631  1.00  0.00    -0.399 OA
ATOM      8  H   TRP A   1      42.662  -9.363   6.691  1.00  0.00     0.209 HD
ENDBRANCH   6   7
ENDBRANCH   5   6
BRANCH   5   9
ATOM      9  CB  TRP A   1      42.086 -10.485   9.008  1.00  0.00     0.068 C 
BRANCH   9  10
ATOM     10  CG  TRP A   1      41.449 -10.675  10.352  1.00  0.00    -0.028 A 
ATOM     11  CD2 TRP A   1      42.023 -10.334  11.619  1.00  0.00    -0.002 A 
ATOM     12  CE2 TRP A   1      41.092 -10.661  12.603  1.00  0.00     0.042 A 
ATOM     13  CE3 TRP A   1      43.253  -9.769  12.016  1.00  0.00     0.014 A 
ATOM     14  CZ2 TRP A   1      41.328 -10.456  13.968  1.00  0.00     0.030 A 
ATOM     15  NE1 TRP A   1      39.989 -11.175  11.963  1.00  0.00    -0.365 N 
ATOM     16  CH2 TRP A   1      42.555  -9.897  14.337  1.00  0.00     0.002 A 
ATOM     17  CZ3 TRP A   1      43.505  -9.557  13.377  1.00  0.00     0.001 A 
ATOM     18  HE1 TRP A   1      39.150 -11.486  12.431  1.00  0.00     0.165 HD
ATOM     19  CD1 TRP A   1      40.189 -11.184  10.607  1.00  0.00     0.096 A 
ENDBRANCH   9  10
ENDBRANCH   5   9
ENDBRANCH   3   5
BRANCH   1  20
HETATM   20  C   UNK A   0      41.719 -13.662   5.480  1.00  0.00     0.032 A 
HETATM   21  C   UNK A   0      41.452 -15.040   5.560  1.00  0.00     0.026 A 
HETATM   22  C   UNK A   0      42.147 -15.951   4.742  1.00  0.00    -0.037 A 
HETATM   23  C   UNK A   0      43.128 -15.449   3.866  1.00  0.00     0.009 A 
HETATM   24  C   UNK A   0      43.418 -14.087   3.806  1.00  0.00     0.002 A 
HETATM   25  C   UNK A   0      42.714 -13.197   4.610  1.00  0.00     0.017 A 
BRANCH  22  26
HETATM   26  C   UNK A   0      41.887 -17.442   4.686  1.00  0.00     0.189 C 
BRANCH  26  27
HETATM   27  N   UNK A   0      43.022 -18.300   4.353  1.00  0.00    -0.270 N 
HETATM   28  N   UNK A   0      42.970 -19.014   3.208  1.00  0.00    -0.177 NA
HETATM   29  C   UNK A   0      44.011 -19.849   3.283  1.00  0.00     0.053 A 
HETATM   30  C   UNK A   0      44.260 -20.847   2.216  1.00  0.00     0.072 C 
HETATM   31  C   UNK A   0      44.752 -19.645   4.466  1.00  0.00     0.055 A 
HETATM   32  C   UNK A   0      44.086 -18.652   5.154  1.00  0.00     0.029 A 
HETATM   33  C   UNK A   0      44.391 -18.045   6.473  1.00  0.00     0.070 C 
ENDBRANCH  26  27
ENDBRANCH  22  26
ENDBRANCH   1  20
TORSDOF 8
ENDMDL
