MODEL 1
REMARK VINA RESULT:      -7.5      0.000      0.000
REMARK  4 active torsions:
REMARK  status: ('A' for Active; 'I' for Inactive)
REMARK    1  A    between atoms: O_2  and  C_3 
REMARK    2  A    between atoms: C_6  and  C_7 
REMARK    3  A    between atoms: C_12  and  N_13 
REMARK    4  A    between atoms: C_15  and  C_16 
ROOT
HETATM    1  C   UNL     1      41.812 -17.337   6.411  1.00  0.00     0.135 C 
HETATM    2  N   UNL     1      42.903 -16.902   7.278  1.00  0.00    -0.214 N 
HETATM    3  C   UNL     1      43.489 -15.707   7.064  1.00  0.00     0.736 A 
HETATM    4  N   UNL     1      42.876 -14.736   6.320  1.00  0.00    -0.074 N 
HETATM    5  N   UNL     1      43.619 -13.616   6.271  1.00  0.00     0.037 NA
HETATM    6  C   UNL     1      44.681 -13.991   6.980  1.00  0.00     0.753 A 
HETATM    7  N   UNL     1      44.650 -15.264   7.471  1.00  0.00     0.131 NA
HETATM    8  C   UNL     1      41.555 -14.863   5.719  1.00  0.00     0.164 C 
HETATM    9  C   UNL     1      40.847 -16.145   6.212  1.00  0.00     0.063 C 
HETATM   10  H   UNL     1      43.476 -17.635   7.686  1.00  0.00     0.178 HD
ENDROOT
BRANCH   1  11
HETATM   11  C   UNL     1      42.298 -18.020   5.136  1.00  0.00    -0.035 A 
HETATM   12  C   UNL     1      41.615 -17.917   3.911  1.00  0.00     0.012 A 
HETATM   13  C   UNL     1      42.097 -18.533   2.748  1.00  0.00     0.037 A 
HETATM   14  C   UNL     1      43.284 -19.259   2.779  1.00  0.00     0.068 A 
HETATM   15  C   UNL     1      43.980 -19.361   3.983  1.00  0.00     0.037 A 
HETATM   16  C   UNL     1      43.501 -18.743   5.144  1.00  0.00     0.012 A 
BRANCH  14  17
HETATM   17  O   UNL     1      43.865 -19.899   1.720  1.00  0.00    -0.356 OA
HETATM   18  C   UNL     1      43.955 -21.316   1.802  1.00  0.00     0.210 C 
ENDBRANCH  14  17
ENDBRANCH   1  11
BRANCH   8  19
HETATM   19  C   UNL     1      41.545 -14.745   4.199  1.00  0.00    -0.031 A 
HETATM   20  C   UNL     1      40.371 -14.593   3.446  1.00  0.00     0.028 A 
HETATM   21  C   UNL     1      40.433 -14.439   2.060  1.00  0.00     0.011 A 
HETATM   22 BR   UNL     1      38.837 -14.210   1.073  1.00  0.00    -0.051 Br
HETATM   23  C   UNL     1      41.658 -14.445   1.399  1.00  0.00     0.019 A 
HETATM   24  C   UNL     1      42.832 -14.603   2.129  1.00  0.00     0.002 A 
HETATM   25  C   UNL     1      42.777 -14.749   3.516  1.00  0.00     0.009 A 
ENDBRANCH   8  19
BRANCH   6  26
HETATM   26  N   UNL     1      45.760 -13.248   7.208  1.00  0.00    -0.229 N 
HETATM   27  H   UNL     1      46.214 -13.374   8.103  1.00  0.00     0.174 HD
HETATM   28  H   UNL     1      45.731 -12.295   6.875  1.00  0.00     0.174 HD
ENDBRANCH   6  26
TORSDOF 4
ENDMDL
MODEL 2
REMARK VINA RESULT:      -7.5      4.080      6.301
REMARK  4 active torsions:
REMARK  status: ('A' for Active; 'I' for Inactive)
REMARK    1  A    between atoms: O_2  and  C_3 
REMARK    2  A    between atoms: C_6  and  C_7 
REMARK    3  A    between atoms: C_12  and  N_13 
REMARK    4  A    between atoms: C_15  and  C_16 
ROOT
HETATM    1  C   UNL     1      39.916 -14.451   2.833  1.00  0.00     0.135 C 
HETATM    2  N   UNL     1      39.892 -13.632   1.625  1.00  0.00    -0.214 N 
HETATM    3  C   UNL     1      40.507 -14.072   0.509  1.00  0.00     0.736 A 
HETATM    4  N   UNL     1      40.828 -15.392   0.346  1.00  0.00    -0.074 N 
HETATM    5  N   UNL     1      41.396 -15.613  -0.853  1.00  0.00     0.037 NA
HETATM    6  C   UNL     1      41.415 -14.378  -1.349  1.00  0.00     0.753 A 
HETATM    7  N   UNL     1      40.895 -13.405  -0.546  1.00  0.00     0.131 NA
HETATM    8  C   UNL     1      40.528 -16.443   1.309  1.00  0.00     0.164 C 
HETATM    9  C   UNL     1      39.609 -15.913   2.433  1.00  0.00     0.063 C 
HETATM   10  H   UNL     1      39.838 -12.627   1.761  1.00  0.00     0.178 HD
ENDROOT
BRANCH   1  11
HETATM   11  C   UNL     1      41.171 -14.241   3.674  1.00  0.00    -0.035 A 
HETATM   12  C   UNL     1      41.212 -14.495   5.056  1.00  0.00     0.012 A 
HETATM   13  C   UNL     1      42.387 -14.318   5.800  1.00  0.00     0.037 A 
HETATM   14  C   UNL     1      43.555 -13.893   5.176  1.00  0.00     0.068 A 
HETATM   15  C   UNL     1      43.535 -13.647   3.804  1.00  0.00     0.037 A 
HETATM   16  C   UNL     1      42.364 -13.827   3.059  1.00  0.00     0.012 A 
BRANCH  14  17
HETATM   17  O   UNL     1      44.764 -13.689   5.782  1.00  0.00    -0.356 OA
HETATM   18  C   UNL     1      44.868 -14.073   7.147  1.00  0.00     0.210 C 
ENDBRANCH  14  17
ENDBRANCH   1  11
BRANCH   8  19
HETATM   19  C   UNL     1      41.756 -17.160   1.856  1.00  0.00    -0.031 A 
HETATM   20  C   UNL     1      41.883 -17.559   3.195  1.00  0.00     0.028 A 
HETATM   21  C   UNL     1      43.014 -18.258   3.623  1.00  0.00     0.011 A 
HETATM   22 BR   UNL     1      43.147 -18.807   5.427  1.00  0.00    -0.051 Br
HETATM   23  C   UNL     1      44.040 -18.562   2.732  1.00  0.00     0.019 A 
HETATM   24  C   UNL     1      43.935 -18.166   1.402  1.00  0.00     0.002 A 
HETATM   25  C   UNL     1      42.803 -17.475   0.966  1.00  0.00     0.009 A 
ENDBRANCH   8  19
BRANCH   6  26
HETATM   26  N   UNL     1      41.925 -14.025  -2.525  1.00  0.00    -0.229 N 
HETATM   27  H   UNL     1      42.934 -14.004  -2.592  1.00  0.00     0.174 HD
HETATM   28  H   UNL     1      41.449 -13.283  -3.020  1.00  0.00     0.174 HD
ENDBRANCH   6  26
TORSDOF 4
ENDMDL
MODEL 3
REMARK VINA RESULT:      -7.4      4.019      6.107
REMARK  4 active torsions:
REMARK  status: ('A' for Active; 'I' for Inactive)
REMARK    1  A    between atoms: O_2  and  C_3 
REMARK    2  A    between atoms: C_6  and  C_7 
REMARK    3  A    between atoms: C_12  and  N_13 
REMARK    4  A    between atoms: C_15  and  C_16 
ROOT
HETATM    1  C   UNL     1      39.945 -14.884   3.031  1.00  0.00     0.135 C 
HETATM    2  N   UNL     1      39.849 -13.780   2.082  1.00  0.00    -0.214 N 
HETATM    3  C   UNL     1      40.478 -13.867   0.892  1.00  0.00     0.736 A 
HETATM    4  N   UNL     1      40.887 -15.071   0.388  1.00  0.00    -0.074 N 
HETATM    5  N   UNL     1      41.453 -14.928  -0.823  1.00  0.00     0.037 NA
HETATM    6  C   UNL     1      41.380 -13.608  -0.976  1.00  0.00     0.753 A 
HETATM    7  N   UNL     1      40.805 -12.919   0.052  1.00  0.00     0.131 NA
HETATM    8  C   UNL     1      40.673 -16.356   1.039  1.00  0.00     0.164 C 
HETATM    9  C   UNL     1      39.735 -16.207   2.258  1.00  0.00     0.063 C 
HETATM   10  H   UNL     1      39.727 -12.852   2.477  1.00  0.00     0.178 HD
ENDROOT
BRANCH   1  11
HETATM   11  C   UNL     1      41.193 -14.815   3.904  1.00  0.00    -0.035 A 
HETATM   12  C   UNL     1      42.070 -13.716   3.891  1.00  0.00     0.012 A 
HETATM   13  C   UNL     1      43.197 -13.665   4.723  1.00  0.00     0.037 A 
HETATM   14  C   UNL     1      43.468 -14.710   5.601  1.00  0.00     0.068 A 
HETATM   15  C   UNL     1      42.603 -15.803   5.636  1.00  0.00     0.037 A 
HETATM   16  C   UNL     1      41.475 -15.852   4.808  1.00  0.00     0.012 A 
BRANCH  14  17
HETATM   17  O   UNL     1      44.524 -14.782   6.466  1.00  0.00    -0.356 OA
HETATM   18  C   UNL     1      44.581 -13.795   7.488  1.00  0.00     0.210 C 
ENDBRANCH  14  17
ENDBRANCH   1  11
BRANCH   8  19
HETATM   19  C   UNL     1      41.955 -17.105   1.385  1.00  0.00    -0.031 A 
HETATM   20  C   UNL     1      42.016 -18.498   1.543  1.00  0.00     0.028 A 
HETATM   21  C   UNL     1      43.233 -19.128   1.810  1.00  0.00     0.011 A 
HETATM   22 BR   UNL     1      43.291 -21.009   1.990  1.00  0.00    -0.051 Br
HETATM   23  C   UNL     1      44.405 -18.386   1.936  1.00  0.00     0.019 A 
HETATM   24  C   UNL     1      44.360 -17.003   1.792  1.00  0.00     0.002 A 
HETATM   25  C   UNL     1      43.149 -16.367   1.516  1.00  0.00     0.009 A 
ENDBRANCH   8  19
BRANCH   6  26
HETATM   26  N   UNL     1      41.849 -12.923  -2.015  1.00  0.00    -0.229 N 
HETATM   27  H   UNL     1      42.697 -13.272  -2.440  1.00  0.00     0.174 HD
HETATM   28  H   UNL     1      41.783 -11.916  -1.959  1.00  0.00     0.174 HD
ENDBRANCH   6  26
TORSDOF 4
ENDMDL
MODEL 4
REMARK VINA RESULT:      -7.1      3.855      6.225
REMARK  4 active torsions:
REMARK  status: ('A' for Active; 'I' for Inactive)
REMARK    1  A    between atoms: O_2  and  C_3 
REMARK    2  A    between atoms: C_6  and  C_7 
REMARK    3  A    between atoms: C_12  and  N_13 
REMARK    4  A    between atoms: C_15  and  C_16 
ROOT
HETATM    1  C   UNL     1      40.359 -13.421   3.310  1.00  0.00     0.135 C 
HETATM    2  N   UNL     1      40.543 -12.865   1.973  1.00  0.00    -0.214 N 
HETATM    3  C   UNL     1      40.845 -13.685   0.946  1.00  0.00     0.736 A 
HETATM    4  N   UNL     1      40.624 -15.033   1.022  1.00  0.00    -0.074 N 
HETATM    5  N   UNL     1      40.959 -15.649  -0.126  1.00  0.00     0.037 NA
HETATM    6  C   UNL     1      41.403 -14.616  -0.840  1.00  0.00     0.753 A 
HETATM    7  N   UNL     1      41.364 -13.402  -0.220  1.00  0.00     0.131 NA
HETATM    8  C   UNL     1      40.032 -15.712   2.166  1.00  0.00     0.164 C 
HETATM    9  C   UNL     1      39.485 -14.692   3.190  1.00  0.00     0.063 C 
HETATM   10  H   UNL     1      40.887 -11.911   1.924  1.00  0.00     0.178 HD
ENDROOT
BRANCH   1  11
HETATM   11  C   UNL     1      41.667 -13.583   4.076  1.00  0.00    -0.035 A 
HETATM   12  C   UNL     1      42.907 -13.757   3.435  1.00  0.00     0.012 A 
HETATM   13  C   UNL     1      44.099 -13.877   4.163  1.00  0.00     0.037 A 
HETATM   14  C   UNL     1      44.082 -13.813   5.553  1.00  0.00     0.068 A 
HETATM   15  C   UNL     1      42.863 -13.630   6.204  1.00  0.00     0.037 A 
HETATM   16  C   UNL     1      41.673 -13.506   5.478  1.00  0.00     0.012 A 
BRANCH  14  17
HETATM   17  O   UNL     1      45.169 -13.909   6.377  1.00  0.00    -0.356 OA
HETATM   18  C   UNL     1      44.993 -13.472   7.719  1.00  0.00     0.210 C 
ENDBRANCH  14  17
ENDBRANCH   1  11
BRANCH   8  19
HETATM   19  C   UNL     1      40.938 -16.753   2.814  1.00  0.00    -0.031 A 
HETATM   20  C   UNL     1      41.816 -17.570   2.087  1.00  0.00     0.028 A 
HETATM   21  C   UNL     1      42.657 -18.469   2.746  1.00  0.00     0.011 A 
HETATM   22 BR   UNL     1      43.850 -19.540   1.743  1.00  0.00    -0.051 Br
HETATM   23  C   UNL     1      42.631 -18.580   4.134  1.00  0.00     0.019 A 
HETATM   24  C   UNL     1      41.759 -17.783   4.870  1.00  0.00     0.002 A 
HETATM   25  C   UNL     1      40.923 -16.876   4.218  1.00  0.00     0.009 A 
ENDBRANCH   8  19
BRANCH   6  26
HETATM   26  N   UNL     1      41.905 -14.686  -2.070  1.00  0.00    -0.229 N 
HETATM   27  H   UNL     1      42.455 -15.506  -2.287  1.00  0.00     0.174 HD
HETATM   28  H   UNL     1      42.249 -13.823  -2.467  1.00  0.00     0.174 HD
ENDBRANCH   6  26
TORSDOF 4
ENDMDL
MODEL 5
REMARK VINA RESULT:      -6.7      3.062      4.782
REMARK  4 active torsions:
REMARK  status: ('A' for Active; 'I' for Inactive)
REMARK    1  A    between atoms: O_2  and  C_3 
REMARK    2  A    between atoms: C_6  and  C_7 
REMARK    3  A    between atoms: C_12  and  N_13 
REMARK    4  A    between atoms: C_15  and  C_16 
ROOT
HETATM    1  C   UNL     1      43.417 -13.843   2.941  1.00  0.00     0.135 C 
HETATM    2  N   UNL     1      42.424 -12.850   2.541  1.00  0.00    -0.214 N 
HETATM    3  C   UNL     1      41.359 -12.615   3.335  1.00  0.00     0.736 A 
HETATM    4  N   UNL     1      41.356 -12.986   4.652  1.00  0.00    -0.074 N 
HETATM    5  N   UNL     1      40.214 -12.620   5.260  1.00  0.00     0.037 NA
HETATM    6  C   UNL     1      39.561 -12.059   4.245  1.00  0.00     0.753 A 
HETATM    7  N   UNL     1      40.216 -12.047   3.048  1.00  0.00     0.131 NA
HETATM    8  C   UNL     1      42.472 -13.628   5.333  1.00  0.00     0.164 C 
HETATM    9  C   UNL     1      43.733 -13.635   4.440  1.00  0.00     0.063 C 
HETATM   10  H   UNL     1      42.300 -12.710   1.543  1.00  0.00     0.178 HD
ENDROOT
BRANCH   1  11
HETATM   11  C   UNL     1      43.041 -15.262   2.530  1.00  0.00    -0.035 A 
HETATM   12  C   UNL     1      42.041 -15.540   1.581  1.00  0.00     0.012 A 
HETATM   13  C   UNL     1      41.733 -16.854   1.202  1.00  0.00     0.037 A 
HETATM   14  C   UNL     1      42.428 -17.925   1.754  1.00  0.00     0.068 A 
HETATM   15  C   UNL     1      43.431 -17.667   2.688  1.00  0.00     0.037 A 
HETATM   16  C   UNL     1      43.742 -16.355   3.065  1.00  0.00     0.012 A 
BRANCH  14  17
HETATM   17  O   UNL     1      42.233 -19.247   1.467  1.00  0.00    -0.356 OA
HETATM   18  C   UNL     1      43.218 -20.156   1.941  1.00  0.00     0.210 C 
ENDBRANCH  14  17
ENDBRANCH   1  11
BRANCH   8  19
HETATM   19  C   UNL     1      42.153 -15.009   5.894  1.00  0.00    -0.031 A 
HETATM   20  C   UNL     1      43.067 -15.769   6.638  1.00  0.00     0.028 A 
HETATM   21  C   UNL     1      42.696 -17.007   7.167  1.00  0.00     0.011 A 
HETATM   22 BR   UNL     1      43.940 -17.998   8.189  1.00  0.00    -0.051 Br
HETATM   23  C   UNL     1      41.416 -17.514   6.956  1.00  0.00     0.019 A 
HETATM   24  C   UNL     1      40.499 -16.778   6.213  1.00  0.00     0.002 A 
HETATM   25  C   UNL     1      40.861 -15.535   5.689  1.00  0.00     0.009 A 
ENDBRANCH   8  19
BRANCH   6  26
HETATM   26  N   UNL     1      38.331 -11.557   4.300  1.00  0.00    -0.229 N 
HETATM   27  H   UNL     1      37.614 -12.159   4.684  1.00  0.00     0.174 HD
HETATM   28  H   UNL     1      38.038 -10.992   3.516  1.00  0.00     0.174 HD
ENDBRANCH   6  26
TORSDOF 4
ENDMDL
MODEL 6
REMARK VINA RESULT:      -6.6      6.364      9.098
REMARK  4 active torsions:
REMARK  status: ('A' for Active; 'I' for Inactive)
REMARK    1  A    between atoms: O_2  and  C_3 
REMARK    2  A    between atoms: C_6  and  C_7 
REMARK    3  A    between atoms: C_12  and  N_13 
REMARK    4  A    between atoms: C_15  and  C_16 
ROOT
HETATM    1  C   UNL     1      42.512 -12.704  -2.638  1.00  0.00     0.135 C 
HETATM    2  N   UNL     1      42.447 -14.126  -2.963  1.00  0.00    -0.214 N 
HETATM    3  C   UNL     1      41.257 -14.688  -3.260  1.00  0.00     0.736 A 
HETATM    4  N   UNL     1      40.182 -13.928  -3.630  1.00  0.00    -0.074 N 
HETATM    5  N   UNL     1      39.116 -14.695  -3.919  1.00  0.00     0.037 NA
HETATM    6  C   UNL     1      39.609 -15.907  -3.672  1.00  0.00     0.753 A 
HETATM    7  N   UNL     1      40.907 -15.948  -3.254  1.00  0.00     0.131 NA
HETATM    8  C   UNL     1      40.203 -12.478  -3.770  1.00  0.00     0.164 C 
HETATM    9  C   UNL     1      41.645 -11.934  -3.662  1.00  0.00     0.063 C 
HETATM   10  H   UNL     1      43.148 -14.721  -2.532  1.00  0.00     0.178 HD
ENDROOT
BRANCH   1  11
HETATM   11  C   UNL     1      42.225 -12.413  -1.170  1.00  0.00    -0.035 A 
HETATM   12  C   UNL     1      42.158 -11.107  -0.652  1.00  0.00     0.012 A 
HETATM   13  C   UNL     1      41.866 -10.866   0.697  1.00  0.00     0.037 A 
HETATM   14  C   UNL     1      41.620 -11.927   1.562  1.00  0.00     0.068 A 
HETATM   15  C   UNL     1      41.670 -13.228   1.064  1.00  0.00     0.037 A 
HETATM   16  C   UNL     1      41.958 -13.470  -0.284  1.00  0.00     0.012 A 
BRANCH  14  17
HETATM   17  O   UNL     1      41.318 -11.829   2.892  1.00  0.00    -0.356 OA
HETATM   18  C   UNL     1      42.070 -12.648   3.779  1.00  0.00     0.210 C 
ENDBRANCH  14  17
ENDBRANCH   1  11
BRANCH   8  19
HETATM   19  C   UNL     1      39.238 -11.746  -2.845  1.00  0.00    -0.031 A 
HETATM   20  C   UNL     1      38.715 -12.312  -1.672  1.00  0.00     0.028 A 
HETATM   21  C   UNL     1      37.875 -11.570  -0.841  1.00  0.00     0.011 A 
HETATM   22 BR   UNL     1      37.206 -12.348   0.747  1.00  0.00    -0.051 Br
HETATM   23  C   UNL     1      37.531 -10.259  -1.164  1.00  0.00     0.019 A 
HETATM   24  C   UNL     1      38.033  -9.686  -2.328  1.00  0.00     0.002 A 
HETATM   25  C   UNL     1      38.881 -10.419  -3.160  1.00  0.00     0.009 A 
ENDBRANCH   8  19
BRANCH   6  26
HETATM   26  N   UNL     1      38.935 -17.049  -3.763  1.00  0.00    -0.229 N 
HETATM   27  H   UNL     1      38.921 -17.633  -2.938  1.00  0.00     0.174 HD
HETATM   28  H   UNL     1      39.009 -17.549  -4.639  1.00  0.00     0.174 HD
ENDBRANCH   6  26
TORSDOF 4
ENDMDL
MODEL 7
REMARK VINA RESULT:      -6.6      5.729      8.139
REMARK  4 active torsions:
REMARK  status: ('A' for Active; 'I' for Inactive)
REMARK    1  A    between atoms: O_2  and  C_3 
REMARK    2  A    between atoms: C_6  and  C_7 
REMARK    3  A    between atoms: C_12  and  N_13 
REMARK    4  A    between atoms: C_15  and  C_16 
ROOT
HETATM    1  C   UNL     1      42.127 -13.162  -1.339  1.00  0.00     0.135 C 
HETATM    2  N   UNL     1      42.172 -14.271  -2.287  1.00  0.00    -0.214 N 
HETATM    3  C   UNL     1      41.036 -14.684  -2.885  1.00  0.00     0.736 A 
HETATM    4  N   UNL     1      39.924 -13.888  -2.929  1.00  0.00    -0.074 N 
HETATM    5  N   UNL     1      38.925 -14.481  -3.606  1.00  0.00     0.037 NA
HETATM    6  C   UNL     1      39.493 -15.645  -3.917  1.00  0.00     0.753 A 
HETATM    7  N   UNL     1      40.776 -15.816  -3.485  1.00  0.00     0.131 NA
HETATM    8  C   UNL     1      39.848 -12.541  -2.381  1.00  0.00     0.164 C 
HETATM    9  C   UNL     1      41.244 -12.044  -1.943  1.00  0.00     0.063 C 
HETATM   10  H   UNL     1      42.898 -14.965  -2.137  1.00  0.00     0.178 HD
ENDROOT
BRANCH   1  11
HETATM   11  C   UNL     1      41.769 -13.601   0.077  1.00  0.00    -0.035 A 
HETATM   12  C   UNL     1      41.509 -12.687   1.114  1.00  0.00     0.012 A 
HETATM   13  C   UNL     1      41.157 -13.117   2.400  1.00  0.00     0.037 A 
HETATM   14  C   UNL     1      41.042 -14.475   2.679  1.00  0.00     0.068 A 
HETATM   15  C   UNL     1      41.284 -15.395   1.660  1.00  0.00     0.037 A 
HETATM   16  C   UNL     1      41.633 -14.966   0.374  1.00  0.00     0.012 A 
BRANCH  14  17
HETATM   17  O   UNL     1      40.700 -15.025   3.883  1.00  0.00    -0.356 OA
HETATM   18  C   UNL     1      41.172 -16.341   4.142  1.00  0.00     0.210 C 
ENDBRANCH  14  17
ENDBRANCH   1  11
BRANCH   8  19
HETATM   19  C   UNL     1      38.803 -12.369  -1.285  1.00  0.00    -0.031 A 
HETATM   20  C   UNL     1      38.214 -11.135  -0.969  1.00  0.00     0.028 A 
HETATM   21  C   UNL     1      37.225 -11.053   0.013  1.00  0.00     0.011 A 
HETATM   22 BR   UNL     1      36.428  -9.383   0.401  1.00  0.00    -0.051 Br
HETATM   23  C   UNL     1      36.813 -12.190   0.704  1.00  0.00     0.019 A 
HETATM   24  C   UNL     1      37.393 -13.420   0.409  1.00  0.00     0.002 A 
HETATM   25  C   UNL     1      38.376 -13.511  -0.578  1.00  0.00     0.009 A 
ENDBRANCH   8  19
BRANCH   6  26
HETATM   26  N   UNL     1      38.903 -16.643  -4.569  1.00  0.00    -0.229 N 
HETATM   27  H   UNL     1      38.758 -16.511  -5.561  1.00  0.00     0.174 HD
HETATM   28  H   UNL     1      38.152 -17.115  -4.086  1.00  0.00     0.174 HD
ENDBRANCH   6  26
TORSDOF 4
ENDMDL
MODEL 8
REMARK VINA RESULT:      -6.5      6.251      8.705
REMARK  4 active torsions:
REMARK  status: ('A' for Active; 'I' for Inactive)
REMARK    1  A    between atoms: O_2  and  C_3 
REMARK    2  A    between atoms: C_6  and  C_7 
REMARK    3  A    between atoms: C_12  and  N_13 
REMARK    4  A    between atoms: C_15  and  C_16 
ROOT
HETATM    1  C   UNL     1      41.112 -14.659  -3.270  1.00  0.00     0.135 C 
HETATM    2  N   UNL     1      42.082 -13.595  -3.510  1.00  0.00    -0.214 N 
HETATM    3  C   UNL     1      42.399 -12.744  -2.513  1.00  0.00     0.736 A 
HETATM    4  N   UNL     1      42.140 -13.051  -1.205  1.00  0.00    -0.074 N 
HETATM    5  N   UNL     1      42.573 -12.081  -0.380  1.00  0.00     0.037 NA
HETATM    6  C   UNL     1      43.055 -11.205  -1.259  1.00  0.00     0.753 A 
HETATM    7  N   UNL     1      42.956 -11.563  -2.572  1.00  0.00     0.131 NA
HETATM    8  C   UNL     1      41.543 -14.299  -0.750  1.00  0.00     0.164 C 
HETATM    9  C   UNL     1      41.441 -15.316  -1.909  1.00  0.00     0.063 C 
HETATM   10  H   UNL     1      42.139 -13.240  -4.460  1.00  0.00     0.178 HD
ENDROOT
BRANCH   1  11
HETATM   11  C   UNL     1      39.669 -14.206  -3.459  1.00  0.00    -0.035 A 
HETATM   12  C   UNL     1      39.311 -12.856  -3.628  1.00  0.00     0.012 A 
HETATM   13  C   UNL     1      37.979 -12.469  -3.826  1.00  0.00     0.037 A 
HETATM   14  C   UNL     1      36.970 -13.426  -3.872  1.00  0.00     0.068 A 
HETATM   15  C   UNL     1      37.307 -14.769  -3.718  1.00  0.00     0.037 A 
HETATM   16  C   UNL     1      38.638 -15.158  -3.524  1.00  0.00     0.012 A 
BRANCH  14  17
HETATM   17  O   UNL     1      35.638 -13.184  -4.065  1.00  0.00    -0.356 OA
HETATM   18  C   UNL     1      34.973 -13.997  -5.024  1.00  0.00     0.210 C 
ENDBRANCH  14  17
ENDBRANCH   1  11
BRANCH   8  19
HETATM   19  C   UNL     1      40.218 -14.127  -0.015  1.00  0.00    -0.031 A 
HETATM   20  C   UNL     1      39.267 -13.154  -0.356  1.00  0.00     0.028 A 
HETATM   21  C   UNL     1      38.051 -13.081   0.326  1.00  0.00     0.011 A 
HETATM   22 BR   UNL     1      36.776 -11.777  -0.172  1.00  0.00    -0.051 Br
HETATM   23  C   UNL     1      37.764 -13.965   1.363  1.00  0.00     0.019 A 
HETATM   24  C   UNL     1      38.700 -14.931   1.721  1.00  0.00     0.002 A 
HETATM   25  C   UNL     1      39.914 -15.014   1.037  1.00  0.00     0.009 A 
ENDBRANCH   8  19
BRANCH   6  26
HETATM   26  N   UNL     1      43.578 -10.019  -0.962  1.00  0.00    -0.229 N 
HETATM   27  H   UNL     1      43.950  -9.911  -0.027  1.00  0.00     0.174 HD
HETATM   28  H   UNL     1      43.096  -9.209  -1.325  1.00  0.00     0.174 HD
ENDBRANCH   6  26
TORSDOF 4
ENDMDL
MODEL 9
REMARK VINA RESULT:      -6.5      2.232      2.905
REMARK  4 active torsions:
REMARK  status: ('A' for Active; 'I' for Inactive)
REMARK    1  A    between atoms: O_2  and  C_3 
REMARK    2  A    between atoms: C_6  and  C_7 
REMARK    3  A    between atoms: C_12  and  N_13 
REMARK    4  A    between atoms: C_15  and  C_16 
ROOT
HETATM    1  C   UNL     1      41.374 -16.676   5.166  1.00  0.00     0.135 C 
HETATM    2  N   UNL     1      42.650 -16.738   5.873  1.00  0.00    -0.214 N 
HETATM    3  C   UNL     1      43.308 -15.597   6.162  1.00  0.00     0.736 A 
HETATM    4  N   UNL     1      42.672 -14.386   6.155  1.00  0.00    -0.074 N 
HETATM    5  N   UNL     1      43.506 -13.393   6.511  1.00  0.00     0.037 NA
HETATM    6  C   UNL     1      44.638 -14.072   6.688  1.00  0.00     0.753 A 
HETATM    7  N   UNL     1      44.566 -15.417   6.472  1.00  0.00     0.131 NA
HETATM    8  C   UNL     1      41.255 -14.197   5.875  1.00  0.00     0.164 C 
HETATM    9  C   UNL     1      40.521 -15.555   5.804  1.00  0.00     0.063 C 
HETATM   10  H   UNL     1      43.209 -17.573   5.726  1.00  0.00     0.178 HD
ENDROOT
BRANCH   1  11
HETATM   11  C   UNL     1      41.533 -16.612   3.651  1.00  0.00    -0.035 A 
HETATM   12  C   UNL     1      42.772 -16.783   3.008  1.00  0.00     0.012 A 
HETATM   13  C   UNL     1      42.886 -16.745   1.612  1.00  0.00     0.037 A 
HETATM   14  C   UNL     1      41.759 -16.547   0.821  1.00  0.00     0.068 A 
HETATM   15  C   UNL     1      40.521 -16.386   1.441  1.00  0.00     0.037 A 
HETATM   16  C   UNL     1      40.405 -16.428   2.836  1.00  0.00     0.012 A 
BRANCH  14  17
HETATM   17  O   UNL     1      41.731 -16.496  -0.545  1.00  0.00    -0.356 OA
HETATM   18  C   UNL     1      41.142 -15.341  -1.129  1.00  0.00     0.210 C 
ENDBRANCH  14  17
ENDBRANCH   1  11
BRANCH   8  19
HETATM   19  C   UNL     1      40.968 -13.321   4.661  1.00  0.00    -0.031 A 
HETATM   20  C   UNL     1      39.816 -12.529   4.537  1.00  0.00     0.028 A 
HETATM   21  C   UNL     1      39.637 -11.709   3.421  1.00  0.00     0.011 A 
HETATM   22 BR   UNL     1      38.088 -10.632   3.292  1.00  0.00    -0.051 Br
HETATM   23  C   UNL     1      40.591 -11.670   2.407  1.00  0.00     0.019 A 
HETATM   24  C   UNL     1      41.735 -12.456   2.510  1.00  0.00     0.002 A 
HETATM   25  C   UNL     1      41.924 -13.271   3.627  1.00  0.00     0.009 A 
ENDBRANCH   8  19
BRANCH   6  26
HETATM   26  N   UNL     1      45.813 -13.543   7.014  1.00  0.00    -0.229 N 
HETATM   27  H   UNL     1      45.963 -13.345   7.994  1.00  0.00     0.174 HD
HETATM   28  H   UNL     1      46.192 -12.855   6.377  1.00  0.00     0.174 HD
ENDBRANCH   6  26
TORSDOF 4
ENDMDL
MODEL 10
REMARK VINA RESULT:      -6.5      4.895      7.396
REMARK  4 active torsions:
REMARK  status: ('A' for Active; 'I' for Inactive)
REMARK    1  A    between atoms: O_2  and  C_3 
REMARK    2  A    between atoms: C_6  and  C_7 
REMARK    3  A    between atoms: C_12  and  N_13 
REMARK    4  A    between atoms: C_15  and  C_16 
ROOT
HETATM    1  C   UNL     1      38.576 -13.488   1.566  1.00  0.00     0.135 C 
HETATM    2  N   UNL     1      38.756 -13.174   0.152  1.00  0.00    -0.214 N 
HETATM    3  C   UNL     1      39.796 -13.707  -0.522  1.00  0.00     0.736 A 
HETATM    4  N   UNL     1      40.466 -14.802  -0.048  1.00  0.00    -0.074 N 
HETATM    5  N   UNL     1      41.436 -15.186  -0.897  1.00  0.00     0.037 NA
HETATM    6  C   UNL     1      41.316 -14.260  -1.846  1.00  0.00     0.753 A 
HETATM    7  N   UNL     1      40.338 -13.330  -1.650  1.00  0.00     0.131 NA
HETATM    8  C   UNL     1      40.128 -15.513   1.177  1.00  0.00     0.164 C 
HETATM    9  C   UNL     1      38.788 -15.008   1.757  1.00  0.00     0.063 C 
HETATM   10  H   UNL     1      38.416 -12.269  -0.158  1.00  0.00     0.178 HD
ENDROOT
BRANCH   1  11
HETATM   11  C   UNL     1      39.387 -12.582   2.487  1.00  0.00    -0.035 A 
HETATM   12  C   UNL     1      40.043 -11.424   2.031  1.00  0.00     0.012 A 
HETATM   13  C   UNL     1      40.760 -10.595   2.904  1.00  0.00     0.037 A 
HETATM   14  C   UNL     1      40.829 -10.897   4.260  1.00  0.00     0.068 A 
HETATM   15  C   UNL     1      40.176 -12.035   4.732  1.00  0.00     0.037 A 
HETATM   16  C   UNL     1      39.456 -12.862   3.862  1.00  0.00     0.012 A 
BRANCH  14  17
HETATM   17  O   UNL     1      41.486 -10.171   5.215  1.00  0.00    -0.356 OA
HETATM   18  C   UNL     1      41.357 -10.618   6.558  1.00  0.00     0.210 C 
ENDBRANCH  14  17
ENDBRANCH   1  11
BRANCH   8  19
HETATM   19  C   UNL     1      41.240 -15.526   2.220  1.00  0.00    -0.031 A 
HETATM   20  C   UNL     1      41.374 -16.529   3.192  1.00  0.00     0.028 A 
HETATM   21  C   UNL     1      42.445 -16.510   4.088  1.00  0.00     0.011 A 
HETATM   22 BR   UNL     1      42.616 -17.889   5.370  1.00  0.00    -0.051 Br
HETATM   23  C   UNL     1      43.392 -15.490   4.040  1.00  0.00     0.019 A 
HETATM   24  C   UNL     1      43.270 -14.482   3.089  1.00  0.00     0.002 A 
HETATM   25  C   UNL     1      42.207 -14.501   2.185  1.00  0.00     0.009 A 
ENDBRANCH   8  19
BRANCH   6  26
HETATM   26  N   UNL     1      42.086 -14.156  -2.924  1.00  0.00    -0.229 N 
HETATM   27  H   UNL     1      43.076 -14.317  -2.791  1.00  0.00     0.174 HD
HETATM   28  H   UNL     1      41.859 -13.413  -3.571  1.00  0.00     0.174 HD
ENDBRANCH   6  26
TORSDOF 4
ENDMDL
