MODEL 1
REMARK VINA RESULT:      -9.4      0.000      0.000
REMARK  4 active torsions:
REMARK  status: ('A' for Active; 'I' for Inactive)
REMARK    1  A    between atoms: C_2  and  C_3 
REMARK       I    between atoms: C_3  and  N_4 
REMARK    2  A    between atoms: N_4  and  N_5 
REMARK    3  A    between atoms: N_5  and  C_6 
REMARK    4  A    between atoms: N_7  and  C_8 
ROOT
HETATM    1  C   UNL     1      41.379 -15.515  -0.491  1.00  0.00     0.729 C 
HETATM    2  N   UNL     1      40.772 -14.410   0.104  1.00  0.00    -0.108 N 
HETATM    3  C   UNL     1      41.046 -14.125   1.436  1.00  0.00     0.276 C 
HETATM    4  O   UNL     1      40.930 -13.015   1.954  1.00  0.00    -0.266 OA
HETATM    5  C   UNL     1      41.514 -15.271   2.271  1.00  0.00     0.050 C 
HETATM    6  C   UNL     1      42.002 -16.320   1.584  1.00  0.00     0.099 C 
HETATM    7  C   UNL     1      42.669 -17.421   2.328  1.00  0.00     0.000 A 
HETATM    8  C   UNL     1      42.485 -17.551   3.711  1.00  0.00    -0.044 A 
HETATM    9  C   UNL     1      43.112 -18.589   4.418  1.00  0.00     0.008 A 
HETATM   10  C   UNL     1      43.945 -19.488   3.755  1.00  0.00     0.001 A 
HETATM   11  C   UNL     1      44.144 -19.363   2.384  1.00  0.00     0.001 A 
HETATM   12  C   UNL     1      43.510 -18.339   1.677  1.00  0.00     0.014 A 
HETATM   13  C   UNL     1      41.542 -16.617   4.415  1.00  0.00     0.054 C 
HETATM   14  C   UNL     1      41.501 -15.174   3.812  1.00  0.00    -0.002 C 
HETATM   15  C   UNL     1      42.743 -14.353   4.262  1.00  0.00     0.015 C 
HETATM   16  C   UNL     1      42.785 -14.047   5.761  1.00  0.00     0.001 C 
HETATM   17  C   UNL     1      41.489 -13.415   6.257  1.00  0.00     0.000 C 
HETATM   18  C   UNL     1      40.269 -14.251   5.890  1.00  0.00     0.001 C 
HETATM   19  C   UNL     1      40.206 -14.511   4.382  1.00  0.00     0.015 C 
HETATM   20  N   UNL     1      41.991 -16.425   0.220  1.00  0.00    -0.061 NA
ENDROOT
BRANCH   1  21
HETATM   21  N   UNL     1      41.422 -15.649  -1.872  1.00  0.00    -0.127 N 
HETATM   22  H   UNL     1      41.836 -14.908  -2.434  1.00  0.00     0.206 HD
BRANCH  21  23
HETATM   23  N   UNL     1      40.269 -16.209  -2.464  1.00  0.00    -0.256 N 
HETATM   24  C   UNL     1      39.773 -15.536  -3.562  1.00  0.00     0.236 C 
HETATM   25  O   UNL     1      40.408 -14.650  -4.135  1.00  0.00    -0.272 OA
HETATM   26  H   UNL     1      39.644 -16.637  -1.782  1.00  0.00     0.190 HD
BRANCH  24  27
HETATM   27  C   UNL     1      38.440 -16.037  -4.080  1.00  0.00     0.100 C 
HETATM   28  C   UNL     1      37.295 -15.058  -3.900  1.00  0.00     0.014 C 
ENDBRANCH  24  27
ENDBRANCH  21  23
ENDBRANCH   1  21
BRANCH   2  29
HETATM   29  C   UNL     1      40.002 -13.481  -0.672  1.00  0.00     0.060 A 
HETATM   30  C   UNL     1      40.606 -12.480  -1.443  1.00  0.00     0.030 A 
HETATM   31  C   UNL     1      39.831 -11.590  -2.194  1.00  0.00     0.002 A 
HETATM   32  C   UNL     1      38.441 -11.684  -2.174  1.00  0.00     0.000 A 
HETATM   33  C   UNL     1      37.824 -12.660  -1.397  1.00  0.00     0.002 A 
HETATM   34  C   UNL     1      38.599 -13.546  -0.645  1.00  0.00     0.030 A 
ENDBRANCH   2  29
TORSDOF 4
ENDMDL
MODEL 2
REMARK VINA RESULT:      -9.3      2.164      2.822
REMARK  4 active torsions:
REMARK  status: ('A' for Active; 'I' for Inactive)
REMARK    1  A    between atoms: C_2  and  C_3 
REMARK       I    between atoms: C_3  and  N_4 
REMARK    2  A    between atoms: N_4  and  N_5 
REMARK    3  A    between atoms: N_5  and  C_6 
REMARK    4  A    between atoms: N_7  and  C_8 
ROOT
HETATM    1  C   UNL     1      41.285 -16.705   0.887  1.00  0.00     0.729 C 
HETATM    2  N   UNL     1      40.968 -15.763   1.864  1.00  0.00    -0.108 N 
HETATM    3  C   UNL     1      41.654 -15.787   3.073  1.00  0.00     0.276 C 
HETATM    4  O   UNL     1      41.780 -14.823   3.826  1.00  0.00    -0.266 OA
HETATM    5  C   UNL     1      42.269 -17.093   3.453  1.00  0.00     0.050 C 
HETATM    6  C   UNL     1      42.449 -17.960   2.440  1.00  0.00     0.099 C 
HETATM    7  C   UNL     1      43.229 -19.202   2.684  1.00  0.00     0.000 A 
HETATM    8  C   UNL     1      43.465 -19.641   3.994  1.00  0.00    -0.044 A 
HETATM    9  C   UNL     1      44.200 -20.814   4.229  1.00  0.00     0.008 A 
HETATM   10  C   UNL     1      44.725 -21.540   3.163  1.00  0.00     0.001 A 
HETATM   11  C   UNL     1      44.507 -21.109   1.859  1.00  0.00     0.001 A 
HETATM   12  C   UNL     1      43.764 -19.950   1.622  1.00  0.00     0.014 A 
HETATM   13  C   UNL     1      42.849 -18.890   5.140  1.00  0.00     0.054 C 
HETATM   14  C   UNL     1      42.731 -17.348   4.904  1.00  0.00    -0.002 C 
HETATM   15  C   UNL     1      44.107 -16.652   5.110  1.00  0.00     0.015 C 
HETATM   16  C   UNL     1      44.624 -16.694   6.550  1.00  0.00     0.001 C 
HETATM   17  C   UNL     1      43.589 -16.189   7.549  1.00  0.00     0.000 C 
HETATM   18  C   UNL     1      42.258 -16.918   7.410  1.00  0.00     0.001 C 
HETATM   19  C   UNL     1      41.722 -16.829   5.978  1.00  0.00     0.015 C 
HETATM   20  N   UNL     1      42.016 -17.753   1.158  1.00  0.00    -0.061 NA
ENDROOT
BRANCH   1  21
HETATM   21  N   UNL     1      40.897 -16.522  -0.433  1.00  0.00    -0.127 N 
HETATM   22  H   UNL     1      40.574 -17.321  -0.975  1.00  0.00     0.206 HD
BRANCH  21  23
HETATM   23  N   UNL     1      41.696 -15.634  -1.184  1.00  0.00    -0.256 N 
HETATM   24  C   UNL     1      41.009 -14.757  -2.001  1.00  0.00     0.236 C 
HETATM   25  O   UNL     1      39.792 -14.591  -1.916  1.00  0.00    -0.272 OA
HETATM   26  H   UNL     1      42.576 -16.051  -1.483  1.00  0.00     0.190 HD
BRANCH  24  27
HETATM   27  C   UNL     1      41.871 -13.933  -2.935  1.00  0.00     0.100 C 
HETATM   28  C   UNL     1      42.651 -12.826  -2.248  1.00  0.00     0.014 C 
ENDBRANCH  24  27
ENDBRANCH  21  23
ENDBRANCH   1  21
BRANCH   2  29
HETATM   29  C   UNL     1      40.069 -14.681   1.586  1.00  0.00     0.060 A 
HETATM   30  C   UNL     1      40.525 -13.374   1.368  1.00  0.00     0.030 A 
HETATM   31  C   UNL     1      39.625 -12.340   1.094  1.00  0.00     0.002 A 
HETATM   32  C   UNL     1      38.257 -12.596   1.045  1.00  0.00     0.000 A 
HETATM   33  C   UNL     1      37.785 -13.884   1.279  1.00  0.00     0.002 A 
HETATM   34  C   UNL     1      38.684 -14.917   1.557  1.00  0.00     0.030 A 
ENDBRANCH   2  29
TORSDOF 4
ENDMDL
MODEL 3
REMARK VINA RESULT:      -8.5      2.354      6.877
REMARK  4 active torsions:
REMARK  status: ('A' for Active; 'I' for Inactive)
REMARK    1  A    between atoms: C_2  and  C_3 
REMARK       I    between atoms: C_3  and  N_4 
REMARK    2  A    between atoms: N_4  and  N_5 
REMARK    3  A    between atoms: N_5  and  C_6 
REMARK    4  A    between atoms: N_7  and  C_8 
ROOT
HETATM    1  C   UNL     1      42.674 -15.945   2.137  1.00  0.00     0.729 C 
HETATM    2  N   UNL     1      42.245 -15.087   3.148  1.00  0.00    -0.108 N 
HETATM    3  C   UNL     1      41.135 -14.281   2.924  1.00  0.00     0.276 C 
HETATM    4  O   UNL     1      40.421 -13.809   3.807  1.00  0.00    -0.266 OA
HETATM    5  C   UNL     1      40.814 -13.987   1.495  1.00  0.00     0.050 C 
HETATM    6  C   UNL     1      41.355 -14.834   0.600  1.00  0.00     0.099 C 
HETATM    7  C   UNL     1      40.936 -14.740  -0.823  1.00  0.00     0.000 A 
HETATM    8  C   UNL     1      40.282 -13.593  -1.293  1.00  0.00    -0.044 A 
HETATM    9  C   UNL     1      39.885 -13.500  -2.636  1.00  0.00     0.008 A 
HETATM   10  C   UNL     1      40.115 -14.559  -3.512  1.00  0.00     0.001 A 
HETATM   11  C   UNL     1      40.754 -15.707  -3.056  1.00  0.00     0.001 A 
HETATM   12  C   UNL     1      41.162 -15.795  -1.723  1.00  0.00     0.014 A 
HETATM   13  C   UNL     1      40.086 -12.429  -0.363  1.00  0.00     0.054 C 
HETATM   14  C   UNL     1      39.853 -12.836   1.130  1.00  0.00    -0.002 C 
HETATM   15  C   UNL     1      38.393 -13.328   1.345  1.00  0.00     0.015 C 
HETATM   16  C   UNL     1      37.330 -12.243   1.162  1.00  0.00     0.001 C 
HETATM   17  C   UNL     1      37.626 -11.000   1.993  1.00  0.00     0.000 C 
HETATM   18  C   UNL     1      39.028 -10.460   1.733  1.00  0.00     0.001 C 
HETATM   19  C   UNL     1      40.091 -11.538   1.966  1.00  0.00     0.015 C 
HETATM   20  N   UNL     1      42.230 -15.838   0.914  1.00  0.00    -0.061 NA
ENDROOT
BRANCH   1  21
HETATM   21  N   UNL     1      43.536 -16.998   2.414  1.00  0.00    -0.127 N 
HETATM   22  H   UNL     1      44.541 -16.847   2.367  1.00  0.00     0.206 HD
BRANCH  21  23
HETATM   23  N   UNL     1      43.143 -18.254   1.904  1.00  0.00    -0.256 N 
HETATM   24  C   UNL     1      43.737 -19.352   2.495  1.00  0.00     0.236 C 
HETATM   25  O   UNL     1      44.381 -19.269   3.542  1.00  0.00    -0.272 OA
HETATM   26  H   UNL     1      42.957 -18.234   0.903  1.00  0.00     0.190 HD
BRANCH  24  27
HETATM   27  C   UNL     1      43.450 -20.681   1.828  1.00  0.00     0.100 C 
HETATM   28  C   UNL     1      44.402 -21.795   2.225  1.00  0.00     0.014 C 
ENDBRANCH  24  27
ENDBRANCH  21  23
ENDBRANCH   1  21
BRANCH   2  29
HETATM   29  C   UNL     1      42.826 -15.135   4.459  1.00  0.00     0.060 A 
HETATM   30  C   UNL     1      42.501 -16.142   5.377  1.00  0.00     0.030 A 
HETATM   31  C   UNL     1      43.087 -16.168   6.647  1.00  0.00     0.002 A 
HETATM   32  C   UNL     1      43.998 -15.182   7.018  1.00  0.00     0.000 A 
HETATM   33  C   UNL     1      44.317 -14.163   6.125  1.00  0.00     0.002 A 
HETATM   34  C   UNL     1      43.729 -14.135   4.858  1.00  0.00     0.030 A 
ENDBRANCH   2  29
TORSDOF 4
ENDMDL
MODEL 4
REMARK VINA RESULT:      -8.4      2.745      7.944
REMARK  4 active torsions:
REMARK  status: ('A' for Active; 'I' for Inactive)
REMARK    1  A    between atoms: C_2  and  C_3 
REMARK       I    between atoms: C_3  and  N_4 
REMARK    2  A    between atoms: N_4  and  N_5 
REMARK    3  A    between atoms: N_5  and  C_6 
REMARK    4  A    between atoms: N_7  and  C_8 
ROOT
HETATM    1  C   UNL     1      42.017 -17.376   3.695  1.00  0.00     0.729 C 
HETATM    2  N   UNL     1      42.475 -17.849   2.466  1.00  0.00    -0.108 N 
HETATM    3  C   UNL     1      42.443 -17.004   1.363  1.00  0.00     0.276 C 
HETATM    4  O   UNL     1      43.157 -17.122   0.368  1.00  0.00    -0.266 OA
HETATM    5  C   UNL     1      41.459 -15.882   1.423  1.00  0.00     0.050 C 
HETATM    6  C   UNL     1      41.020 -15.569   2.656  1.00  0.00     0.099 C 
HETATM    7  C   UNL     1      40.195 -14.346   2.837  1.00  0.00     0.000 A 
HETATM    8  C   UNL     1      39.588 -13.734   1.732  1.00  0.00    -0.044 A 
HETATM    9  C   UNL     1      38.807 -12.579   1.898  1.00  0.00     0.008 A 
HETATM   10  C   UNL     1      38.647 -12.015   3.162  1.00  0.00     0.001 A 
HETATM   11  C   UNL     1      39.252 -12.607   4.265  1.00  0.00     0.001 A 
HETATM   12  C   UNL     1      40.018 -13.764   4.103  1.00  0.00     0.014 A 
HETATM   13  C   UNL     1      39.713 -14.376   0.379  1.00  0.00     0.054 C 
HETATM   14  C   UNL     1      41.074 -15.110   0.143  1.00  0.00    -0.002 C 
HETATM   15  C   UNL     1      42.204 -14.088  -0.173  1.00  0.00     0.015 C 
HETATM   16  C   UNL     1      42.030 -13.348  -1.501  1.00  0.00     0.001 C 
HETATM   17  C   UNL     1      41.801 -14.303  -2.667  1.00  0.00     0.000 C 
HETATM   18  C   UNL     1      40.645 -15.260  -2.403  1.00  0.00     0.001 C 
HETATM   19  C   UNL     1      40.849 -16.033  -1.097  1.00  0.00     0.015 C 
HETATM   20  N   UNL     1      41.335 -16.267   3.790  1.00  0.00    -0.061 NA
ENDROOT
BRANCH   1  21
HETATM   21  N   UNL     1      42.339 -18.032   4.875  1.00  0.00    -0.127 N 
HETATM   22  H   UNL     1      41.598 -18.458   5.429  1.00  0.00     0.206 HD
BRANCH  21  23
HETATM   23  N   UNL     1      43.328 -17.409   5.666  1.00  0.00    -0.256 N 
HETATM   24  C   UNL     1      42.881 -16.829   6.837  1.00  0.00     0.236 C 
HETATM   25  O   UNL     1      41.752 -17.034   7.285  1.00  0.00    -0.272 OA
HETATM   26  H   UNL     1      44.061 -16.972   5.110  1.00  0.00     0.190 HD
BRANCH  24  27
HETATM   27  C   UNL     1      43.911 -16.011   7.588  1.00  0.00     0.100 C 
HETATM   28  C   UNL     1      44.295 -14.712   6.903  1.00  0.00     0.014 C 
ENDBRANCH  24  27
ENDBRANCH  21  23
ENDBRANCH   1  21
BRANCH   2  29
HETATM   29  C   UNL     1      43.119 -19.126   2.356  1.00  0.00     0.060 A 
HETATM   30  C   UNL     1      42.483 -20.230   1.773  1.00  0.00     0.030 A 
HETATM   31  C   UNL     1      43.136 -21.462   1.674  1.00  0.00     0.002 A 
HETATM   32  C   UNL     1      44.431 -21.609   2.167  1.00  0.00     0.000 A 
HETATM   33  C   UNL     1      45.070 -20.529   2.767  1.00  0.00     0.002 A 
HETATM   34  C   UNL     1      44.415 -19.299   2.869  1.00  0.00     0.030 A 
ENDBRANCH   2  29
TORSDOF 4
ENDMDL
MODEL 5
REMARK VINA RESULT:      -8.0      4.312      9.325
REMARK  4 active torsions:
REMARK  status: ('A' for Active; 'I' for Inactive)
REMARK    1  A    between atoms: C_2  and  C_3 
REMARK       I    between atoms: C_3  and  N_4 
REMARK    2  A    between atoms: N_4  and  N_5 
REMARK    3  A    between atoms: N_5  and  C_6 
REMARK    4  A    between atoms: N_7  and  C_8 
ROOT
HETATM    1  C   UNL     1      43.189 -13.687   6.675  1.00  0.00     0.729 C 
HETATM    2  N   UNL     1      42.972 -14.858   5.950  1.00  0.00    -0.108 N 
HETATM    3  C   UNL     1      42.395 -14.773   4.688  1.00  0.00     0.276 C 
HETATM    4  O   UNL     1      42.517 -15.619   3.803  1.00  0.00    -0.266 OA
HETATM    5  C   UNL     1      41.574 -13.555   4.421  1.00  0.00     0.050 C 
HETATM    6  C   UNL     1      41.809 -12.513   5.241  1.00  0.00     0.099 C 
HETATM    7  C   UNL     1      41.186 -11.199   4.932  1.00  0.00     0.000 A 
HETATM    8  C   UNL     1      40.109 -11.121   4.038  1.00  0.00    -0.044 A 
HETATM    9  C   UNL     1      39.517  -9.883   3.744  1.00  0.00     0.008 A 
HETATM   10  C   UNL     1      40.010  -8.714   4.321  1.00  0.00     0.001 A 
HETATM   11  C   UNL     1      41.084  -8.777   5.201  1.00  0.00     0.001 A 
HETATM   12  C   UNL     1      41.665 -10.010   5.505  1.00  0.00     0.014 A 
HETATM   13  C   UNL     1      39.542 -12.388   3.463  1.00  0.00     0.054 C 
HETATM   14  C   UNL     1      40.602 -13.512   3.222  1.00  0.00    -0.002 C 
HETATM   15  C   UNL     1      41.425 -13.227   1.934  1.00  0.00     0.015 C 
HETATM   16  C   UNL     1      40.613 -13.302   0.639  1.00  0.00     0.001 C 
HETATM   17  C   UNL     1      39.832 -14.606   0.523  1.00  0.00     0.000 C 
HETATM   18  C   UNL     1      38.960 -14.860   1.747  1.00  0.00     0.001 C 
HETATM   19  C   UNL     1      39.788 -14.832   3.035  1.00  0.00     0.015 C 
HETATM   20  N   UNL     1      42.647 -12.553   6.322  1.00  0.00    -0.061 NA
ENDROOT
BRANCH   1  21
HETATM   21  N   UNL     1      44.056 -13.671   7.759  1.00  0.00    -0.127 N 
HETATM   22  H   UNL     1      44.150 -14.503   8.337  1.00  0.00     0.206 HD
BRANCH  21  23
HETATM   23  N   UNL     1      44.067 -12.475   8.510  1.00  0.00    -0.256 N 
HETATM   24  C   UNL     1      45.316 -11.995   8.851  1.00  0.00     0.236 C 
HETATM   25  O   UNL     1      46.351 -12.433   8.347  1.00  0.00    -0.272 OA
HETATM   26  H   UNL     1      43.283 -12.408   9.158  1.00  0.00     0.190 HD
BRANCH  24  27
HETATM   27  C   UNL     1      45.318 -10.817   9.804  1.00  0.00     0.100 C 
HETATM   28  C   UNL     1      44.525 -11.046  11.077  1.00  0.00     0.014 C 
ENDBRANCH  24  27
ENDBRANCH  21  23
ENDBRANCH   1  21
BRANCH   2  29
HETATM   29  C   UNL     1      43.473 -16.120   6.412  1.00  0.00     0.060 A 
HETATM   30  C   UNL     1      44.776 -16.549   6.127  1.00  0.00     0.030 A 
HETATM   31  C   UNL     1      45.240 -17.783   6.594  1.00  0.00     0.002 A 
HETATM   32  C   UNL     1      44.405 -18.607   7.344  1.00  0.00     0.000 A 
HETATM   33  C   UNL     1      43.101 -18.205   7.619  1.00  0.00     0.002 A 
HETATM   34  C   UNL     1      42.636 -16.974   7.149  1.00  0.00     0.030 A 
ENDBRANCH   2  29
TORSDOF 4
ENDMDL
MODEL 6
REMARK VINA RESULT:      -8.0      3.160      7.240
REMARK  4 active torsions:
REMARK  status: ('A' for Active; 'I' for Inactive)
REMARK    1  A    between atoms: C_2  and  C_3 
REMARK       I    between atoms: C_3  and  N_4 
REMARK    2  A    between atoms: N_4  and  N_5 
REMARK    3  A    between atoms: N_5  and  C_6 
REMARK    4  A    between atoms: N_7  and  C_8 
ROOT
HETATM    1  C   UNL     1      40.700 -15.816   3.703  1.00  0.00     0.729 C 
HETATM    2  N   UNL     1      41.252 -15.102   4.765  1.00  0.00    -0.108 N 
HETATM    3  C   UNL     1      40.823 -13.800   4.999  1.00  0.00     0.276 C 
HETATM    4  O   UNL     1      40.897 -13.221   6.082  1.00  0.00    -0.266 OA
HETATM    5  C   UNL     1      40.233 -13.082   3.829  1.00  0.00     0.050 C 
HETATM    6  C   UNL     1      39.812 -13.872   2.824  1.00  0.00     0.099 C 
HETATM    7  C   UNL     1      39.037 -13.266   1.710  1.00  0.00     0.000 A 
HETATM    8  C   UNL     1      39.048 -11.879   1.515  1.00  0.00    -0.044 A 
HETATM    9  C   UNL     1      38.318 -11.302   0.463  1.00  0.00     0.008 A 
HETATM   10  C   UNL     1      37.555 -12.103  -0.384  1.00  0.00     0.001 A 
HETATM   11  C   UNL     1      37.527 -13.480  -0.195  1.00  0.00     0.001 A 
HETATM   12  C   UNL     1      38.264 -14.057   0.842  1.00  0.00     0.014 A 
HETATM   13  C   UNL     1      39.916 -11.023   2.392  1.00  0.00     0.054 C 
HETATM   14  C   UNL     1      40.060 -11.549   3.859  1.00  0.00    -0.002 C 
HETATM   15  C   UNL     1      38.789 -11.214   4.691  1.00  0.00     0.015 C 
HETATM   16  C   UNL     1      38.570  -9.719   4.931  1.00  0.00     0.001 C 
HETATM   17  C   UNL     1      39.807  -9.041   5.507  1.00  0.00     0.000 C 
HETATM   18  C   UNL     1      41.047  -9.296   4.658  1.00  0.00     0.001 C 
HETATM   19  C   UNL     1      41.288 -10.796   4.463  1.00  0.00     0.015 C 
HETATM   20  N   UNL     1      39.988 -15.228   2.780  1.00  0.00    -0.061 NA
ENDROOT
BRANCH   1  21
HETATM   21  N   UNL     1      40.824 -17.197   3.632  1.00  0.00    -0.127 N 
HETATM   22  H   UNL     1      40.839 -17.743   4.491  1.00  0.00     0.206 HD
BRANCH  21  23
HETATM   23  N   UNL     1      41.728 -17.676   2.659  1.00  0.00    -0.256 N 
HETATM   24  C   UNL     1      42.810 -18.384   3.145  1.00  0.00     0.236 C 
HETATM   25  O   UNL     1      42.871 -18.777   4.310  1.00  0.00    -0.272 OA
HETATM   26  H   UNL     1      41.827 -17.043   1.866  1.00  0.00     0.190 HD
BRANCH  24  27
HETATM   27  C   UNL     1      43.865 -18.738   2.117  1.00  0.00     0.100 C 
HETATM   28  C   UNL     1      43.977 -17.748   0.973  1.00  0.00     0.014 C 
ENDBRANCH  24  27
ENDBRANCH  21  23
ENDBRANCH   1  21
BRANCH   2  29
HETATM   29  C   UNL     1      42.129 -15.733   5.707  1.00  0.00     0.060 A 
HETATM   30  C   UNL     1      41.657 -16.629   6.675  1.00  0.00     0.030 A 
HETATM   31  C   UNL     1      42.536 -17.235   7.578  1.00  0.00     0.002 A 
HETATM   32  C   UNL     1      43.897 -16.945   7.532  1.00  0.00     0.000 A 
HETATM   33  C   UNL     1      44.381 -16.042   6.591  1.00  0.00     0.002 A 
HETATM   34  C   UNL     1      43.502 -15.434   5.691  1.00  0.00     0.030 A 
ENDBRANCH   2  29
TORSDOF 4
ENDMDL
MODEL 7
REMARK VINA RESULT:      -8.0      3.880      6.839
REMARK  4 active torsions:
REMARK  status: ('A' for Active; 'I' for Inactive)
REMARK    1  A    between atoms: C_2  and  C_3 
REMARK       I    between atoms: C_3  and  N_4 
REMARK    2  A    between atoms: N_4  and  N_5 
REMARK    3  A    between atoms: N_5  and  C_6 
REMARK    4  A    between atoms: N_7  and  C_8 
ROOT
HETATM    1  C   UNL     1      40.971 -13.866   5.612  1.00  0.00     0.729 C 
HETATM    2  N   UNL     1      40.932 -13.842   4.219  1.00  0.00    -0.108 N 
HETATM    3  C   UNL     1      41.350 -14.963   3.513  1.00  0.00     0.276 C 
HETATM    4  O   UNL     1      41.001 -15.240   2.366  1.00  0.00    -0.266 OA
HETATM    5  C   UNL     1      42.289 -15.879   4.227  1.00  0.00     0.050 C 
HETATM    6  C   UNL     1      42.304 -15.752   5.567  1.00  0.00     0.099 C 
HETATM    7  C   UNL     1      43.057 -16.748   6.375  1.00  0.00     0.000 A 
HETATM    8  C   UNL     1      44.011 -17.575   5.766  1.00  0.00    -0.044 A 
HETATM    9  C   UNL     1      44.725 -18.516   6.525  1.00  0.00     0.008 A 
HETATM   10  C   UNL     1      44.474 -18.655   7.889  1.00  0.00     0.001 A 
HETATM   11  C   UNL     1      43.522 -17.848   8.502  1.00  0.00     0.001 A 
HETATM   12  C   UNL     1      42.822 -16.901   7.751  1.00  0.00     0.014 A 
HETATM   13  C   UNL     1      44.322 -17.384   4.309  1.00  0.00     0.054 C 
HETATM   14  C   UNL     1      43.096 -16.938   3.446  1.00  0.00    -0.002 C 
HETATM   15  C   UNL     1      42.162 -18.146   3.149  1.00  0.00     0.015 C 
HETATM   16  C   UNL     1      42.784 -19.216   2.250  1.00  0.00     0.001 C 
HETATM   17  C   UNL     1      43.359 -18.627   0.966  1.00  0.00     0.000 C 
HETATM   18  C   UNL     1      44.337 -17.492   1.246  1.00  0.00     0.001 C 
HETATM   19  C   UNL     1      43.691 -16.401   2.105  1.00  0.00     0.015 C 
HETATM   20  N   UNL     1      41.614 -14.798   6.263  1.00  0.00    -0.061 NA
ENDROOT
BRANCH   1  21
HETATM   21  N   UNL     1      40.260 -12.938   6.362  1.00  0.00    -0.127 N 
HETATM   22  H   UNL     1      39.390 -12.560   5.994  1.00  0.00     0.206 HD
BRANCH  21  23
HETATM   23  N   UNL     1      41.041 -11.973   7.033  1.00  0.00    -0.256 N 
HETATM   24  C   UNL     1      40.338 -10.948   7.634  1.00  0.00     0.236 C 
HETATM   25  O   UNL     1      39.116 -10.985   7.784  1.00  0.00    -0.272 OA
HETATM   26  H   UNL     1      41.934 -11.799   6.574  1.00  0.00     0.190 HD
BRANCH  24  27
HETATM   27  C   UNL     1      41.185  -9.824   8.195  1.00  0.00     0.100 C 
HETATM   28  C   UNL     1      42.168 -10.261   9.266  1.00  0.00     0.014 C 
ENDBRANCH  24  27
ENDBRANCH  21  23
ENDBRANCH   1  21
BRANCH   2  29
HETATM   29  C   UNL     1      40.326 -12.750   3.513  1.00  0.00     0.060 A 
HETATM   30  C   UNL     1      38.971 -12.760   3.155  1.00  0.00     0.030 A 
HETATM   31  C   UNL     1      38.405 -11.680   2.471  1.00  0.00     0.002 A 
HETATM   32  C   UNL     1      39.188 -10.580   2.128  1.00  0.00     0.000 A 
HETATM   33  C   UNL     1      40.539 -10.563   2.458  1.00  0.00     0.002 A 
HETATM   34  C   UNL     1      41.106 -11.644   3.138  1.00  0.00     0.030 A 
ENDBRANCH   2  29
TORSDOF 4
ENDMDL
MODEL 8
REMARK VINA RESULT:      -7.9      3.450      8.395
REMARK  4 active torsions:
REMARK  status: ('A' for Active; 'I' for Inactive)
REMARK    1  A    between atoms: C_2  and  C_3 
REMARK       I    between atoms: C_3  and  N_4 
REMARK    2  A    between atoms: N_4  and  N_5 
REMARK    3  A    between atoms: N_5  and  C_6 
REMARK    4  A    between atoms: N_7  and  C_8 
ROOT
HETATM    1  C   UNL     1      42.714 -14.293   4.769  1.00  0.00     0.729 C 
HETATM    2  N   UNL     1      42.278 -15.242   3.846  1.00  0.00    -0.108 N 
HETATM    3  C   UNL     1      41.486 -14.832   2.779  1.00  0.00     0.276 C 
HETATM    4  O   UNL     1      41.378 -15.437   1.713  1.00  0.00    -0.266 OA
HETATM    5  C   UNL     1      40.725 -13.562   2.975  1.00  0.00     0.050 C 
HETATM    6  C   UNL     1      41.187 -12.763   3.954  1.00  0.00     0.099 C 
HETATM    7  C   UNL     1      40.620 -11.395   4.094  1.00  0.00     0.000 A 
HETATM    8  C   UNL     1      39.406 -11.068   3.475  1.00  0.00    -0.044 A 
HETATM    9  C   UNL     1      38.866  -9.778   3.605  1.00  0.00     0.008 A 
HETATM   10  C   UNL     1      39.545  -8.802   4.332  1.00  0.00     0.001 A 
HETATM   11  C   UNL     1      40.755  -9.112   4.942  1.00  0.00     0.001 A 
HETATM   12  C   UNL     1      41.287 -10.398   4.826  1.00  0.00     0.014 A 
HETATM   13  C   UNL     1      38.647 -12.137   2.741  1.00  0.00     0.054 C 
HETATM   14  C   UNL     1      39.556 -13.197   2.036  1.00  0.00    -0.002 C 
HETATM   15  C   UNL     1      40.146 -12.627   0.715  1.00  0.00     0.015 C 
HETATM   16  C   UNL     1      39.106 -12.357  -0.374  1.00  0.00     0.001 C 
HETATM   17  C   UNL     1      38.219 -13.569  -0.637  1.00  0.00     0.000 C 
HETATM   18  C   UNL     1      37.571 -14.091   0.640  1.00  0.00     0.001 C 
HETATM   19  C   UNL     1      38.622 -14.406   1.708  1.00  0.00     0.015 C 
HETATM   20  N   UNL     1      42.205 -13.092   4.808  1.00  0.00    -0.061 NA
ENDROOT
BRANCH   1  21
HETATM   21  N   UNL     1      43.765 -14.570   5.633  1.00  0.00    -0.127 N 
HETATM   22  H   UNL     1      44.101 -15.527   5.722  1.00  0.00     0.206 HD
BRANCH  21  23
HETATM   23  N   UNL     1      43.737 -13.880   6.864  1.00  0.00    -0.256 N 
HETATM   24  C   UNL     1      44.955 -13.409   7.313  1.00  0.00     0.236 C 
HETATM   25  O   UNL     1      45.956 -13.378   6.596  1.00  0.00    -0.272 OA
HETATM   26  H   UNL     1      43.048 -14.257   7.513  1.00  0.00     0.190 HD
BRANCH  24  27
HETATM   27  C   UNL     1      44.948 -12.830   8.713  1.00  0.00     0.100 C 
HETATM   28  C   UNL     1      45.950 -11.710   8.928  1.00  0.00     0.014 C 
ENDBRANCH  24  27
ENDBRANCH  21  23
ENDBRANCH   1  21
BRANCH   2  29
HETATM   29  C   UNL     1      42.758 -16.593   3.888  1.00  0.00     0.060 A 
HETATM   30  C   UNL     1      43.670 -17.086   2.945  1.00  0.00     0.030 A 
HETATM   31  C   UNL     1      44.126 -18.406   3.014  1.00  0.00     0.002 A 
HETATM   32  C   UNL     1      43.667 -19.254   4.018  1.00  0.00     0.000 A 
HETATM   33  C   UNL     1      42.744 -18.788   4.950  1.00  0.00     0.002 A 
HETATM   34  C   UNL     1      42.287 -17.469   4.880  1.00  0.00     0.030 A 
ENDBRANCH   2  29
TORSDOF 4
ENDMDL
MODEL 9
REMARK VINA RESULT:      -7.7      1.367      2.045
REMARK  4 active torsions:
REMARK  status: ('A' for Active; 'I' for Inactive)
REMARK    1  A    between atoms: C_2  and  C_3 
REMARK       I    between atoms: C_3  and  N_4 
REMARK    2  A    between atoms: N_4  and  N_5 
REMARK    3  A    between atoms: N_5  and  C_6 
REMARK    4  A    between atoms: N_7  and  C_8 
ROOT
HETATM    1  C   UNL     1      41.191 -14.785  -0.616  1.00  0.00     0.729 C 
HETATM    2  N   UNL     1      40.517 -13.815   0.124  1.00  0.00    -0.108 N 
HETATM    3  C   UNL     1      40.773 -13.706   1.486  1.00  0.00     0.276 C 
HETATM    4  O   UNL     1      40.589 -12.691   2.155  1.00  0.00    -0.266 OA
HETATM    5  C   UNL     1      41.311 -14.929   2.153  1.00  0.00     0.050 C 
HETATM    6  C   UNL     1      41.863 -15.838   1.328  1.00  0.00     0.099 C 
HETATM    7  C   UNL     1      42.597 -16.990   1.914  1.00  0.00     0.000 A 
HETATM    8  C   UNL     1      42.422 -17.327   3.263  1.00  0.00    -0.044 A 
HETATM    9  C   UNL     1      43.112 -18.414   3.820  1.00  0.00     0.008 A 
HETATM   10  C   UNL     1      43.999 -19.157   3.043  1.00  0.00     0.001 A 
HETATM   11  C   UNL     1      44.189 -18.827   1.706  1.00  0.00     0.001 A 
HETATM   12  C   UNL     1      43.492 -17.754   1.146  1.00  0.00     0.014 A 
HETATM   13  C   UNL     1      41.423 -16.562   4.085  1.00  0.00     0.054 C 
HETATM   14  C   UNL     1      41.293 -15.053   3.692  1.00  0.00    -0.002 C 
HETATM   15  C   UNL     1      42.482 -14.230   4.265  1.00  0.00     0.015 C 
HETATM   16  C   UNL     1      42.506 -14.139   5.793  1.00  0.00     0.001 C 
HETATM   17  C   UNL     1      41.173 -13.665   6.362  1.00  0.00     0.000 C 
HETATM   18  C   UNL     1      40.007 -14.513   5.869  1.00  0.00     0.001 C 
HETATM   19  C   UNL     1      39.960 -14.558   4.339  1.00  0.00     0.015 C 
HETATM   20  N   UNL     1      41.858 -15.747  -0.037  1.00  0.00    -0.061 NA
ENDROOT
BRANCH   1  21
HETATM   21  N   UNL     1      41.241 -14.718  -2.002  1.00  0.00    -0.127 N 
HETATM   22  H   UNL     1      41.275 -15.578  -2.544  1.00  0.00     0.206 HD
BRANCH  21  23
HETATM   23  N   UNL     1      42.064 -13.700  -2.531  1.00  0.00    -0.256 N 
HETATM   24  C   UNL     1      41.517 -12.966  -3.565  1.00  0.00     0.236 C 
HETATM   25  O   UNL     1      40.321 -13.024  -3.855  1.00  0.00    -0.272 OA
HETATM   26  H   UNL     1      43.052 -13.951  -2.530  1.00  0.00     0.190 HD
BRANCH  24  27
HETATM   27  C   UNL     1      42.465 -12.001  -4.246  1.00  0.00     0.100 C 
HETATM   28  C   UNL     1      42.419 -10.589  -3.692  1.00  0.00     0.014 C 
ENDBRANCH  24  27
ENDBRANCH  21  23
ENDBRANCH   1  21
BRANCH   2  29
HETATM   29  C   UNL     1      39.691 -12.834  -0.518  1.00  0.00     0.060 A 
HETATM   30  C   UNL     1      38.411 -13.142  -0.998  1.00  0.00     0.030 A 
HETATM   31  C   UNL     1      37.625 -12.164  -1.615  1.00  0.00     0.002 A 
HETATM   32  C   UNL     1      38.112 -10.868  -1.769  1.00  0.00     0.000 A 
HETATM   33  C   UNL     1      39.389 -10.550  -1.317  1.00  0.00     0.002 A 
HETATM   34  C   UNL     1      40.176 -11.529  -0.703  1.00  0.00     0.030 A 
ENDBRANCH   2  29
TORSDOF 4
ENDMDL
MODEL 10
REMARK VINA RESULT:      -7.7      3.391      7.825
REMARK  4 active torsions:
REMARK  status: ('A' for Active; 'I' for Inactive)
REMARK    1  A    between atoms: C_2  and  C_3 
REMARK       I    between atoms: C_3  and  N_4 
REMARK    2  A    between atoms: N_4  and  N_5 
REMARK    3  A    between atoms: N_5  and  C_6 
REMARK    4  A    between atoms: N_7  and  C_8 
ROOT
HETATM    1  C   UNL     1      42.987 -14.873   5.075  1.00  0.00     0.729 C 
HETATM    2  N   UNL     1      42.537 -15.200   3.797  1.00  0.00    -0.108 N 
HETATM    3  C   UNL     1      41.822 -14.254   3.071  1.00  0.00     0.276 C 
HETATM    4  O   UNL     1      41.727 -14.237   1.844  1.00  0.00    -0.266 OA
HETATM    5  C   UNL     1      41.132 -13.197   3.868  1.00  0.00     0.050 C 
HETATM    6  C   UNL     1      41.595 -13.029   5.120  1.00  0.00     0.099 C 
HETATM    7  C   UNL     1      41.106 -11.874   5.920  1.00  0.00     0.000 A 
HETATM    8  C   UNL     1      39.945 -11.191   5.535  1.00  0.00    -0.044 A 
HETATM    9  C   UNL     1      39.479 -10.100   6.287  1.00  0.00     0.008 A 
HETATM   10  C   UNL     1      40.181  -9.671   7.411  1.00  0.00     0.001 A 
HETATM   11  C   UNL     1      41.341 -10.334   7.797  1.00  0.00     0.001 A 
HETATM   12  C   UNL     1      41.798 -11.428   7.058  1.00  0.00     0.014 A 
HETATM   13  C   UNL     1      39.157 -11.690   4.357  1.00  0.00     0.054 C 
HETATM   14  C   UNL     1      40.032 -12.325   3.226  1.00  0.00    -0.002 C 
HETATM   15  C   UNL     1      40.717 -11.219   2.373  1.00  0.00     0.015 C 
HETATM   16  C   UNL     1      39.747 -10.364   1.555  1.00  0.00     0.001 C 
HETATM   17  C   UNL     1      38.801 -11.212   0.712  1.00  0.00     0.000 C 
HETATM   18  C   UNL     1      38.064 -12.250   1.550  1.00  0.00     0.001 C 
HETATM   19  C   UNL     1      39.043 -13.135   2.327  1.00  0.00     0.015 C 
HETATM   20  N   UNL     1      42.550 -13.816   5.705  1.00  0.00    -0.061 NA
ENDROOT
BRANCH   1  21
HETATM   21  N   UNL     1      43.977 -15.622   5.696  1.00  0.00    -0.127 N 
HETATM   22  H   UNL     1      44.782 -15.932   5.156  1.00  0.00     0.206 HD
BRANCH  21  23
HETATM   23  N   UNL     1      43.519 -16.596   6.610  1.00  0.00    -0.256 N 
HETATM   24  C   UNL     1      44.297 -17.732   6.713  1.00  0.00     0.236 C 
HETATM   25  O   UNL     1      45.428 -17.804   6.229  1.00  0.00    -0.272 OA
HETATM   26  H   UNL     1      42.502 -16.649   6.654  1.00  0.00     0.190 HD
BRANCH  24  27
HETATM   27  C   UNL     1      43.709 -18.845   7.556  1.00  0.00     0.100 C 
HETATM   28  C   UNL     1      43.666 -20.194   6.863  1.00  0.00     0.014 C 
ENDBRANCH  24  27
ENDBRANCH  21  23
ENDBRANCH   1  21
BRANCH   2  29
HETATM   29  C   UNL     1      42.931 -16.424   3.162  1.00  0.00     0.060 A 
HETATM   30  C   UNL     1      43.889 -16.455   2.141  1.00  0.00     0.030 A 
HETATM   31  C   UNL     1      44.259 -17.664   1.543  1.00  0.00     0.002 A 
HETATM   32  C   UNL     1      43.668 -18.856   1.952  1.00  0.00     0.000 A 
HETATM   33  C   UNL     1      42.699 -18.842   2.951  1.00  0.00     0.002 A 
HETATM   34  C   UNL     1      42.328 -17.633   3.546  1.00  0.00     0.030 A 
ENDBRANCH   2  29
TORSDOF 4
ENDMDL
