MODEL 1
REMARK VINA RESULT:      -9.6      0.000      0.000
REMARK  8 active torsions:
REMARK  status: ('A' for Active; 'I' for Inactive)
REMARK    1  A    between atoms: O_2  and  C_3 
REMARK    2  A    between atoms: C_6  and  C_7 
REMARK    3  A    between atoms: C_7  and  C_8 
REMARK    4  A    between atoms: C_8  and  C_9 
REMARK    5  A    between atoms: C_11  and  N_12 
REMARK       I    between atoms: N_12  and  C_13 
REMARK    6  A    between atoms: C_13  and  C_14 
REMARK    7  A    between atoms: C_18  and  C_19 
REMARK    8  A    between atoms: C_20  and  O_21 
ROOT
HETATM    1  N   UNL     1      44.585 -14.602   6.977  1.00  0.00    -0.149 N 
HETATM    2  C   UNL     1      43.462 -14.490   6.196  1.00  0.00     0.290 C 
HETATM    3  O   UNL     1      42.750 -13.501   6.058  1.00  0.00    -0.265 OA
HETATM    4  H   UNL     1      45.057 -15.494   7.007  1.00  0.00     0.188 HD
ENDROOT
BRANCH   1   5
HETATM    5  C   UNL     1      45.121 -13.593   7.718  1.00  0.00     0.747 A 
HETATM    6  N   UNL     1      44.545 -13.271   8.923  1.00  0.00    -0.046 NA
HETATM    7  C   UNL     1      45.297 -12.288   9.375  1.00  0.00     0.140 A 
HETATM    8  N   UNL     1      46.290 -12.050   8.471  1.00  0.00    -0.248 N 
HETATM    9  N   UNL     1      46.186 -12.853   7.412  1.00  0.00     0.020 NA
HETATM   10  H   UNL     1      47.042 -11.372   8.505  1.00  0.00     0.191 HD
BRANCH   7  11
HETATM   11  C   UNL     1      45.183 -11.530  10.651  1.00  0.00     0.085 C 
BRANCH  11  12
HETATM   12  C   UNL     1      44.079 -10.468  10.582  1.00  0.00     0.046 C 
BRANCH  12  13
HETATM   13  C   UNL     1      43.323 -10.330  11.880  1.00  0.00    -0.058 A 
HETATM   14  C   UNL     1      42.118 -11.019  12.073  1.00  0.00     0.010 A 
HETATM   15  C   UNL     1      41.422 -10.923  13.283  1.00  0.00     0.037 A 
HETATM   16  C   UNL     1      41.926 -10.140  14.319  1.00  0.00     0.068 A 
HETATM   17  C   UNL     1      43.115  -9.434  14.122  1.00  0.00     0.037 A 
HETATM   18  C   UNL     1      43.812  -9.527  12.914  1.00  0.00     0.010 A 
BRANCH  16  19
HETATM   19  O   UNL     1      41.355  -9.978  15.552  1.00  0.00    -0.356 OA
HETATM   20  C   UNL     1      41.783  -8.853  16.309  1.00  0.00     0.210 C 
ENDBRANCH  16  19
ENDBRANCH  12  13
ENDBRANCH  11  12
ENDBRANCH   7  11
ENDBRANCH   1   5
BRANCH   2  21
HETATM   21  C   UNL     1      43.140 -15.744   5.492  1.00  0.00     0.147 A 
HETATM   22  N   UNL     1      41.910 -16.036   5.029  1.00  0.00    -0.169 NA
HETATM   23  N   UNL     1      42.061 -17.257   4.475  1.00  0.00    -0.277 N 
HETATM   24  H   UNL     1      41.255 -17.715   4.060  1.00  0.00     0.189 HD
HETATM   25  C   UNL     1      43.336 -17.767   4.533  1.00  0.00     0.065 A 
HETATM   26  C   UNL     1      44.050 -16.793   5.206  1.00  0.00     0.071 A 
BRANCH  25  27
HETATM   27  C   UNL     1      43.738 -19.068   3.967  1.00  0.00     0.025 A 
HETATM   28  C   UNL     1      43.480 -19.447   2.628  1.00  0.00     0.080 A 
HETATM   29  C   UNL     1      43.908 -20.703   2.168  1.00  0.00     0.037 A 
HETATM   30  C   UNL     1      44.580 -21.585   3.015  1.00  0.00     0.003 A 
HETATM   31  C   UNL     1      44.837 -21.224   4.330  1.00  0.00     0.001 A 
HETATM   32  C   UNL     1      44.419 -19.978   4.798  1.00  0.00     0.016 A 
BRANCH  28  33
HETATM   33  O   UNL     1      42.814 -18.540   1.836  1.00  0.00    -0.355 OA
HETATM   34  C   UNL     1      43.596 -17.723   0.972  1.00  0.00     0.210 C 
ENDBRANCH  28  33
ENDBRANCH  25  27
ENDBRANCH   2  21
TORSDOF 8
ENDMDL
MODEL 2
REMARK VINA RESULT:      -9.3      1.115      1.838
REMARK  8 active torsions:
REMARK  status: ('A' for Active; 'I' for Inactive)
REMARK    1  A    between atoms: O_2  and  C_3 
REMARK    2  A    between atoms: C_6  and  C_7 
REMARK    3  A    between atoms: C_7  and  C_8 
REMARK    4  A    between atoms: C_8  and  C_9 
REMARK    5  A    between atoms: C_11  and  N_12 
REMARK       I    between atoms: N_12  and  C_13 
REMARK    6  A    between atoms: C_13  and  C_14 
REMARK    7  A    between atoms: C_18  and  C_19 
REMARK    8  A    between atoms: C_20  and  O_21 
ROOT
HETATM    1  N   UNL     1      44.697 -14.614   7.002  1.00  0.00    -0.149 N 
HETATM    2  C   UNL     1      43.520 -14.589   6.296  1.00  0.00     0.290 C 
HETATM    3  O   UNL     1      42.712 -13.669   6.233  1.00  0.00    -0.265 OA
HETATM    4  H   UNL     1      45.250 -15.459   6.975  1.00  0.00     0.188 HD
ENDROOT
BRANCH   1   5
HETATM    5  C   UNL     1      45.183 -13.579   7.741  1.00  0.00     0.747 A 
HETATM    6  N   UNL     1      44.604 -13.293   8.953  1.00  0.00    -0.046 NA
HETATM    7  C   UNL     1      45.304 -12.270   9.400  1.00  0.00     0.140 A 
HETATM    8  N   UNL     1      46.272 -11.974   8.485  1.00  0.00    -0.248 N 
HETATM    9  N   UNL     1      46.201 -12.778   7.425  1.00  0.00     0.020 NA
HETATM   10  H   UNL     1      46.985 -11.255   8.513  1.00  0.00     0.191 HD
BRANCH   7  11
HETATM   11  C   UNL     1      45.162 -11.523  10.679  1.00  0.00     0.085 C 
BRANCH  11  12
HETATM   12  C   UNL     1      44.057 -10.463  10.596  1.00  0.00     0.046 C 
BRANCH  12  13
HETATM   13  C   UNL     1      43.289 -10.321  11.887  1.00  0.00    -0.058 A 
HETATM   14  C   UNL     1      42.100 -11.036  12.084  1.00  0.00     0.010 A 
HETATM   15  C   UNL     1      41.393 -10.937  13.287  1.00  0.00     0.037 A 
HETATM   16  C   UNL     1      41.870 -10.123  14.312  1.00  0.00     0.068 A 
HETATM   17  C   UNL     1      43.043  -9.391  14.111  1.00  0.00     0.037 A 
HETATM   18  C   UNL     1      43.750  -9.487  12.910  1.00  0.00     0.010 A 
BRANCH  16  19
HETATM   19  O   UNL     1      41.287  -9.953  15.538  1.00  0.00    -0.356 OA
HETATM   20  C   UNL     1      41.825  -8.929  16.364  1.00  0.00     0.210 C 
ENDBRANCH  16  19
ENDBRANCH  12  13
ENDBRANCH  11  12
ENDBRANCH   7  11
ENDBRANCH   1   5
BRANCH   2  21
HETATM   21  C   UNL     1      43.271 -15.849   5.574  1.00  0.00     0.147 A 
HETATM   22  N   UNL     1      42.175 -16.065   4.821  1.00  0.00    -0.169 NA
HETATM   23  N   UNL     1      42.348 -17.323   4.365  1.00  0.00    -0.277 N 
HETATM   24  H   UNL     1      41.634 -17.736   3.772  1.00  0.00     0.189 HD
HETATM   25  C   UNL     1      43.514 -17.930   4.762  1.00  0.00     0.065 A 
HETATM   26  C   UNL     1      44.123 -16.983   5.564  1.00  0.00     0.071 A 
BRANCH  25  27
HETATM   27  C   UNL     1      43.924 -19.289   4.360  1.00  0.00     0.025 A 
HETATM   28  C   UNL     1      44.256 -20.308   5.285  1.00  0.00     0.080 A 
HETATM   29  C   UNL     1      44.627 -21.579   4.815  1.00  0.00     0.037 A 
HETATM   30  C   UNL     1      44.678 -21.848   3.447  1.00  0.00     0.003 A 
HETATM   31  C   UNL     1      44.357 -20.856   2.531  1.00  0.00     0.001 A 
HETATM   32  C   UNL     1      43.984 -19.591   2.986  1.00  0.00     0.016 A 
BRANCH  28  33
HETATM   33  O   UNL     1      44.188 -19.988   6.622  1.00  0.00    -0.355 OA
HETATM   34  C   UNL     1      43.555 -20.922   7.491  1.00  0.00     0.210 C 
ENDBRANCH  28  33
ENDBRANCH  25  27
ENDBRANCH   2  21
TORSDOF 8
ENDMDL
MODEL 3
REMARK VINA RESULT:      -8.8      1.686      2.140
REMARK  8 active torsions:
REMARK  status: ('A' for Active; 'I' for Inactive)
REMARK    1  A    between atoms: O_2  and  C_3 
REMARK    2  A    between atoms: C_6  and  C_7 
REMARK    3  A    between atoms: C_7  and  C_8 
REMARK    4  A    between atoms: C_8  and  C_9 
REMARK    5  A    between atoms: C_11  and  N_12 
REMARK       I    between atoms: N_12  and  C_13 
REMARK    6  A    between atoms: C_13  and  C_14 
REMARK    7  A    between atoms: C_18  and  C_19 
REMARK    8  A    between atoms: C_20  and  O_21 
ROOT
HETATM    1  N   UNL     1      44.899 -14.415   7.163  1.00  0.00    -0.149 N 
HETATM    2  C   UNL     1      43.827 -14.411   6.306  1.00  0.00     0.290 C 
HETATM    3  O   UNL     1      43.124 -13.453   6.003  1.00  0.00    -0.265 OA
HETATM    4  H   UNL     1      45.369 -15.293   7.332  1.00  0.00     0.188 HD
ENDROOT
BRANCH   1   5
HETATM    5  C   UNL     1      45.386 -13.318   7.806  1.00  0.00     0.747 A 
HETATM    6  N   UNL     1      44.864 -12.975   9.030  1.00  0.00    -0.046 NA
HETATM    7  C   UNL     1      45.548 -11.902   9.371  1.00  0.00     0.140 A 
HETATM    8  N   UNL     1      46.451 -11.632   8.384  1.00  0.00    -0.248 N 
HETATM    9  N   UNL     1      46.352 -12.505   7.382  1.00  0.00     0.020 NA
HETATM   10  H   UNL     1      47.137 -10.888   8.326  1.00  0.00     0.191 HD
BRANCH   7  11
HETATM   11  C   UNL     1      45.449 -11.079  10.607  1.00  0.00     0.085 C 
BRANCH  11  12
HETATM   12  C   UNL     1      44.214 -11.451  11.436  1.00  0.00     0.046 C 
BRANCH  12  13
HETATM   13  C   UNL     1      43.181 -10.351  11.466  1.00  0.00    -0.058 A 
HETATM   14  C   UNL     1      43.220  -9.373  12.469  1.00  0.00     0.010 A 
HETATM   15  C   UNL     1      42.288  -8.330  12.492  1.00  0.00     0.037 A 
HETATM   16  C   UNL     1      41.305  -8.250  11.508  1.00  0.00     0.068 A 
HETATM   17  C   UNL     1      41.249  -9.236  10.520  1.00  0.00     0.037 A 
HETATM   18  C   UNL     1      42.179 -10.279  10.496  1.00  0.00     0.010 A 
BRANCH  16  19
HETATM   19  O   UNL     1      40.349  -7.276  11.407  1.00  0.00    -0.356 OA
HETATM   20  C   UNL     1      39.038  -7.703  11.062  1.00  0.00     0.210 C 
ENDBRANCH  16  19
ENDBRANCH  12  13
ENDBRANCH  11  12
ENDBRANCH   7  11
ENDBRANCH   1   5
BRANCH   2  21
HETATM   21  C   UNL     1      43.552 -15.745   5.743  1.00  0.00     0.147 A 
HETATM   22  N   UNL     1      42.520 -15.999   4.916  1.00  0.00    -0.169 NA
HETATM   23  N   UNL     1      42.638 -17.319   4.659  1.00  0.00    -0.277 N 
HETATM   24  H   UNL     1      41.954 -17.768   4.058  1.00  0.00     0.189 HD
HETATM   25  C   UNL     1      43.709 -17.934   5.260  1.00  0.00     0.065 A 
HETATM   26  C   UNL     1      44.310 -16.920   5.982  1.00  0.00     0.071 A 
BRANCH  25  27
HETATM   27  C   UNL     1      44.050 -19.360   5.096  1.00  0.00     0.025 A 
HETATM   28  C   UNL     1      44.401 -19.938   3.852  1.00  0.00     0.080 A 
HETATM   29  C   UNL     1      44.721 -21.304   3.788  1.00  0.00     0.037 A 
HETATM   30  C   UNL     1      44.692 -22.101   4.934  1.00  0.00     0.003 A 
HETATM   31  C   UNL     1      44.348 -21.544   6.157  1.00  0.00     0.001 A 
HETATM   32  C   UNL     1      44.031 -20.188   6.235  1.00  0.00     0.016 A 
BRANCH  28  33
HETATM   33  O   UNL     1      44.413 -19.107   2.755  1.00  0.00    -0.355 OA
HETATM   34  C   UNL     1      43.424 -19.325   1.754  1.00  0.00     0.210 C 
ENDBRANCH  28  33
ENDBRANCH  25  27
ENDBRANCH   2  21
TORSDOF 8
ENDMDL
MODEL 4
REMARK VINA RESULT:      -8.6      1.662      2.341
REMARK  8 active torsions:
REMARK  status: ('A' for Active; 'I' for Inactive)
REMARK    1  A    between atoms: O_2  and  C_3 
REMARK    2  A    between atoms: C_6  and  C_7 
REMARK    3  A    between atoms: C_7  and  C_8 
REMARK    4  A    between atoms: C_8  and  C_9 
REMARK    5  A    between atoms: C_11  and  N_12 
REMARK       I    between atoms: N_12  and  C_13 
REMARK    6  A    between atoms: C_13  and  C_14 
REMARK    7  A    between atoms: C_18  and  C_19 
REMARK    8  A    between atoms: C_20  and  O_21 
ROOT
HETATM    1  N   UNL     1      44.622 -14.719   6.547  1.00  0.00    -0.149 N 
HETATM    2  C   UNL     1      43.455 -14.607   5.832  1.00  0.00     0.290 C 
HETATM    3  O   UNL     1      42.675 -13.660   5.829  1.00  0.00    -0.265 OA
HETATM    4  H   UNL     1      45.150 -15.575   6.463  1.00  0.00     0.188 HD
ENDROOT
BRANCH   1   5
HETATM    5  C   UNL     1      45.129 -13.755   7.365  1.00  0.00     0.747 A 
HETATM    6  N   UNL     1      44.638 -13.638   8.643  1.00  0.00    -0.046 NA
HETATM    7  C   UNL     1      45.335 -12.644   9.154  1.00  0.00     0.140 A 
HETATM    8  N   UNL     1      46.216 -12.201   8.211  1.00  0.00    -0.248 N 
HETATM    9  N   UNL     1      46.089 -12.880   7.071  1.00  0.00     0.020 NA
HETATM   10  H   UNL     1      46.903 -11.459   8.271  1.00  0.00     0.191 HD
BRANCH   7  11
HETATM   11  C   UNL     1      45.269 -12.057  10.521  1.00  0.00     0.085 C 
BRANCH  11  12
HETATM   12  C   UNL     1      45.155 -10.529  10.475  1.00  0.00     0.046 C 
BRANCH  12  13
HETATM   13  C   UNL     1      43.753 -10.043  10.752  1.00  0.00    -0.058 A 
HETATM   14  C   UNL     1      42.770 -10.117   9.756  1.00  0.00     0.010 A 
HETATM   15  C   UNL     1      41.459  -9.697  10.009  1.00  0.00     0.037 A 
HETATM   16  C   UNL     1      41.114  -9.202  11.264  1.00  0.00     0.068 A 
HETATM   17  C   UNL     1      42.097  -9.105  12.252  1.00  0.00     0.037 A 
HETATM   18  C   UNL     1      43.407  -9.522  12.002  1.00  0.00     0.010 A 
BRANCH  16  19
HETATM   19  O   UNL     1      39.870  -8.778  11.644  1.00  0.00    -0.356 OA
HETATM   20  C   UNL     1      39.026  -9.745  12.257  1.00  0.00     0.210 C 
ENDBRANCH  16  19
ENDBRANCH  12  13
ENDBRANCH  11  12
ENDBRANCH   7  11
ENDBRANCH   1   5
BRANCH   2  21
HETATM   21  C   UNL     1      43.179 -15.802   5.016  1.00  0.00     0.147 A 
HETATM   22  N   UNL     1      42.108 -15.913   4.208  1.00  0.00    -0.169 NA
HETATM   23  N   UNL     1      42.241 -17.145   3.674  1.00  0.00    -0.277 N 
HETATM   24  H   UNL     1      41.534 -17.483   3.027  1.00  0.00     0.189 HD
HETATM   25  C   UNL     1      43.359 -17.835   4.075  1.00  0.00     0.065 A 
HETATM   26  C   UNL     1      43.976 -16.974   4.963  1.00  0.00     0.071 A 
BRANCH  25  27
HETATM   27  C   UNL     1      43.722 -19.182   3.598  1.00  0.00     0.025 A 
HETATM   28  C   UNL     1      44.368 -20.147   4.408  1.00  0.00     0.080 A 
HETATM   29  C   UNL     1      44.668 -21.412   3.875  1.00  0.00     0.037 A 
HETATM   30  C   UNL     1      44.344 -21.728   2.555  1.00  0.00     0.003 A 
HETATM   31  C   UNL     1      43.712 -20.788   1.752  1.00  0.00     0.001 A 
HETATM   32  C   UNL     1      43.406 -19.530   2.270  1.00  0.00     0.016 A 
BRANCH  28  33
HETATM   33  O   UNL     1      44.665 -19.783   5.702  1.00  0.00    -0.355 OA
HETATM   34  C   UNL     1      43.861 -20.333   6.740  1.00  0.00     0.210 C 
ENDBRANCH  28  33
ENDBRANCH  25  27
ENDBRANCH   2  21
TORSDOF 8
ENDMDL
MODEL 5
REMARK VINA RESULT:      -8.6      2.078     11.438
REMARK  8 active torsions:
REMARK  status: ('A' for Active; 'I' for Inactive)
REMARK    1  A    between atoms: O_2  and  C_3 
REMARK    2  A    between atoms: C_6  and  C_7 
REMARK    3  A    between atoms: C_7  and  C_8 
REMARK    4  A    between atoms: C_8  and  C_9 
REMARK    5  A    between atoms: C_11  and  N_12 
REMARK       I    between atoms: N_12  and  C_13 
REMARK    6  A    between atoms: C_13  and  C_14 
REMARK    7  A    between atoms: C_18  and  C_19 
REMARK    8  A    between atoms: C_20  and  O_21 
ROOT
HETATM    1  N   UNL     1      43.374 -12.879   7.057  1.00  0.00    -0.149 N 
HETATM    2  C   UNL     1      44.513 -12.922   7.821  1.00  0.00     0.290 C 
HETATM    3  O   UNL     1      45.458 -13.695   7.703  1.00  0.00    -0.265 OA
HETATM    4  H   UNL     1      42.669 -12.195   7.292  1.00  0.00     0.188 HD
ENDROOT
BRANCH   1   5
HETATM    5  C   UNL     1      43.119 -13.692   5.994  1.00  0.00     0.747 A 
HETATM    6  N   UNL     1      42.256 -14.748   6.153  1.00  0.00    -0.046 NA
HETATM    7  C   UNL     1      42.223 -15.307   4.961  1.00  0.00     0.140 A 
HETATM    8  N   UNL     1      43.032 -14.593   4.125  1.00  0.00    -0.248 N 
HETATM    9  N   UNL     1      43.618 -13.580   4.763  1.00  0.00     0.020 NA
HETATM   10  H   UNL     1      43.232 -14.740   3.143  1.00  0.00     0.191 HD
BRANCH   7  11
HETATM   11  C   UNL     1      41.448 -16.491   4.500  1.00  0.00     0.085 C 
BRANCH  11  12
HETATM   12  C   UNL     1      41.825 -16.892   3.069  1.00  0.00     0.046 C 
BRANCH  12  13
HETATM   13  C   UNL     1      42.694 -18.124   3.021  1.00  0.00    -0.058 A 
HETATM   14  C   UNL     1      43.491 -18.470   4.121  1.00  0.00     0.010 A 
HETATM   15  C   UNL     1      44.278 -19.626   4.102  1.00  0.00     0.037 A 
HETATM   16  C   UNL     1      44.276 -20.455   2.982  1.00  0.00     0.068 A 
HETATM   17  C   UNL     1      43.501 -20.101   1.875  1.00  0.00     0.037 A 
HETATM   18  C   UNL     1      42.714 -18.946   1.891  1.00  0.00     0.010 A 
BRANCH  16  19
HETATM   19  O   UNL     1      44.983 -21.618   2.843  1.00  0.00    -0.356 OA
HETATM   20  C   UNL     1      44.639 -22.682   3.722  1.00  0.00     0.210 C 
ENDBRANCH  16  19
ENDBRANCH  12  13
ENDBRANCH  11  12
ENDBRANCH   7  11
ENDBRANCH   1   5
BRANCH   2  21
HETATM   21  C   UNL     1      44.515 -11.902   8.885  1.00  0.00     0.147 A 
HETATM   22  N   UNL     1      45.597 -11.165   9.200  1.00  0.00    -0.169 NA
HETATM   23  N   UNL     1      45.164 -10.384  10.212  1.00  0.00    -0.277 N 
HETATM   24  H   UNL     1      45.813  -9.733  10.646  1.00  0.00     0.189 HD
HETATM   25  C   UNL     1      43.847 -10.558  10.557  1.00  0.00     0.065 A 
HETATM   26  C   UNL     1      43.411 -11.556   9.706  1.00  0.00     0.071 A 
BRANCH  25  27
HETATM   27  C   UNL     1      43.154  -9.793  11.612  1.00  0.00     0.025 A 
HETATM   28  C   UNL     1      42.046  -8.949  11.360  1.00  0.00     0.080 A 
HETATM   29  C   UNL     1      41.440  -8.264  12.426  1.00  0.00     0.037 A 
HETATM   30  C   UNL     1      41.918  -8.401  13.730  1.00  0.00     0.003 A 
HETATM   31  C   UNL     1      43.005  -9.225  13.987  1.00  0.00     0.001 A 
HETATM   32  C   UNL     1      43.614  -9.913  12.937  1.00  0.00     0.016 A 
BRANCH  28  33
HETATM   33  O   UNL     1      41.615  -8.850  10.057  1.00  0.00    -0.355 OA
HETATM   34  C   UNL     1      40.331  -9.381   9.747  1.00  0.00     0.210 C 
ENDBRANCH  28  33
ENDBRANCH  25  27
ENDBRANCH   2  21
TORSDOF 8
ENDMDL
MODEL 6
REMARK VINA RESULT:      -8.6      7.061     10.341
REMARK  8 active torsions:
REMARK  status: ('A' for Active; 'I' for Inactive)
REMARK    1  A    between atoms: O_2  and  C_3 
REMARK    2  A    between atoms: C_6  and  C_7 
REMARK    3  A    between atoms: C_7  and  C_8 
REMARK    4  A    between atoms: C_8  and  C_9 
REMARK    5  A    between atoms: C_11  and  N_12 
REMARK       I    between atoms: N_12  and  C_13 
REMARK    6  A    between atoms: C_13  and  C_14 
REMARK    7  A    between atoms: C_18  and  C_19 
REMARK    8  A    between atoms: C_20  and  O_21 
ROOT
HETATM    1  N   UNL     1      42.131 -14.009   2.150  1.00  0.00    -0.149 N 
HETATM    2  C   UNL     1      43.172 -14.427   2.941  1.00  0.00     0.290 C 
HETATM    3  O   UNL     1      44.126 -13.759   3.327  1.00  0.00    -0.265 OA
HETATM    4  H   UNL     1      41.426 -14.686   1.895  1.00  0.00     0.188 HD
ENDROOT
BRANCH   1   5
HETATM    5  C   UNL     1      41.970 -12.740   1.682  1.00  0.00     0.747 A 
HETATM    6  N   UNL     1      42.449 -12.423   0.435  1.00  0.00    -0.046 NA
HETATM    7  C   UNL     1      42.125 -11.154   0.290  1.00  0.00     0.140 A 
HETATM    8  N   UNL     1      41.465 -10.744   1.411  1.00  0.00    -0.248 N 
HETATM    9  N   UNL     1      41.372 -11.726   2.307  1.00  0.00     0.020 NA
HETATM   10  H   UNL     1      41.072  -9.837   1.631  1.00  0.00     0.191 HD
BRANCH   7  11
HETATM   11  C   UNL     1      42.364 -10.251  -0.869  1.00  0.00     0.085 C 
BRANCH  11  12
HETATM   12  C   UNL     1      41.183 -10.260  -1.846  1.00  0.00     0.046 C 
BRANCH  12  13
HETATM   13  C   UNL     1      40.898 -11.635  -2.400  1.00  0.00    -0.058 A 
HETATM   14  C   UNL     1      39.628 -12.208  -2.248  1.00  0.00     0.010 A 
HETATM   15  C   UNL     1      39.341 -13.468  -2.782  1.00  0.00     0.037 A 
HETATM   16  C   UNL     1      40.321 -14.171  -3.480  1.00  0.00     0.068 A 
HETATM   17  C   UNL     1      41.594 -13.613  -3.614  1.00  0.00     0.037 A 
HETATM   18  C   UNL     1      41.884 -12.354  -3.080  1.00  0.00     0.010 A 
BRANCH  16  19
HETATM   19  O   UNL     1      40.164 -15.398  -4.065  1.00  0.00    -0.356 OA
HETATM   20  C   UNL     1      38.836 -15.902  -4.142  1.00  0.00     0.210 C 
ENDBRANCH  16  19
ENDBRANCH  12  13
ENDBRANCH  11  12
ENDBRANCH   7  11
ENDBRANCH   1   5
BRANCH   2  21
HETATM   21  C   UNL     1      43.061 -15.849   3.310  1.00  0.00     0.147 A 
HETATM   22  N   UNL     1      42.206 -16.305   4.245  1.00  0.00    -0.169 NA
HETATM   23  N   UNL     1      42.441 -17.633   4.268  1.00  0.00    -0.277 N 
HETATM   24  H   UNL     1      41.920 -18.216   4.918  1.00  0.00     0.189 HD
HETATM   25  C   UNL     1      43.391 -18.071   3.378  1.00  0.00     0.065 A 
HETATM   26  C   UNL     1      43.814 -16.914   2.752  1.00  0.00     0.071 A 
BRANCH  25  27
HETATM   27  C   UNL     1      43.786 -19.482   3.209  1.00  0.00     0.025 A 
HETATM   28  C   UNL     1      44.455 -20.228   4.210  1.00  0.00     0.080 A 
HETATM   29  C   UNL     1      44.786 -21.571   3.969  1.00  0.00     0.037 A 
HETATM   30  C   UNL     1      44.468 -22.180   2.754  1.00  0.00     0.003 A 
HETATM   31  C   UNL     1      43.814 -21.457   1.766  1.00  0.00     0.001 A 
HETATM   32  C   UNL     1      43.478 -20.123   1.994  1.00  0.00     0.016 A 
BRANCH  28  33
HETATM   33  O   UNL     1      44.743 -19.579   5.389  1.00  0.00    -0.355 OA
HETATM   34  C   UNL     1      44.005 -19.957   6.545  1.00  0.00     0.210 C 
ENDBRANCH  28  33
ENDBRANCH  25  27
ENDBRANCH   2  21
TORSDOF 8
ENDMDL
MODEL 7
REMARK VINA RESULT:      -8.4      2.198      2.997
REMARK  8 active torsions:
REMARK  status: ('A' for Active; 'I' for Inactive)
REMARK    1  A    between atoms: O_2  and  C_3 
REMARK    2  A    between atoms: C_6  and  C_7 
REMARK    3  A    between atoms: C_7  and  C_8 
REMARK    4  A    between atoms: C_8  and  C_9 
REMARK    5  A    between atoms: C_11  and  N_12 
REMARK       I    between atoms: N_12  and  C_13 
REMARK    6  A    between atoms: C_13  and  C_14 
REMARK    7  A    between atoms: C_18  and  C_19 
REMARK    8  A    between atoms: C_20  and  O_21 
ROOT
HETATM    1  N   UNL     1      42.260 -13.554   5.215  1.00  0.00    -0.149 N 
HETATM    2  C   UNL     1      41.604 -14.754   5.106  1.00  0.00     0.290 C 
HETATM    3  O   UNL     1      40.519 -15.054   5.593  1.00  0.00    -0.265 OA
HETATM    4  H   UNL     1      43.164 -13.464   4.774  1.00  0.00     0.188 HD
ENDROOT
BRANCH   1   5
HETATM    5  C   UNL     1      41.782 -12.463   5.876  1.00  0.00     0.747 A 
HETATM    6  N   UNL     1      42.373 -12.086   7.057  1.00  0.00    -0.046 NA
HETATM    7  C   UNL     1      41.695 -11.015   7.417  1.00  0.00     0.140 A 
HETATM    8  N   UNL     1      40.745 -10.765   6.470  1.00  0.00    -0.248 N 
HETATM    9  N   UNL     1      40.775 -11.677   5.499  1.00  0.00     0.020 NA
HETATM   10  H   UNL     1      40.060 -10.020   6.428  1.00  0.00     0.191 HD
BRANCH   7  11
HETATM   11  C   UNL     1      41.879 -10.145   8.611  1.00  0.00     0.085 C 
BRANCH  11  12
HETATM   12  C   UNL     1      43.066 -10.602   9.467  1.00  0.00     0.046 C 
BRANCH  12  13
HETATM   13  C   UNL     1      42.781 -10.521  10.946  1.00  0.00    -0.058 A 
HETATM   14  C   UNL     1      43.680  -9.871  11.803  1.00  0.00     0.010 A 
HETATM   15  C   UNL     1      43.414  -9.762  13.173  1.00  0.00     0.037 A 
HETATM   16  C   UNL     1      42.243 -10.299  13.702  1.00  0.00     0.068 A 
HETATM   17  C   UNL     1      41.356 -10.967  12.855  1.00  0.00     0.037 A 
HETATM   18  C   UNL     1      41.619 -11.079  11.487  1.00  0.00     0.010 A 
BRANCH  16  19
HETATM   19  O   UNL     1      41.857 -10.244  15.014  1.00  0.00    -0.356 OA
HETATM   20  C   UNL     1      42.007  -8.992  15.671  1.00  0.00     0.210 C 
ENDBRANCH  16  19
ENDBRANCH  12  13
ENDBRANCH  11  12
ENDBRANCH   7  11
ENDBRANCH   1   5
BRANCH   2  21
HETATM   21  C   UNL     1      42.359 -15.737   4.309  1.00  0.00     0.147 A 
HETATM   22  N   UNL     1      43.133 -15.399   3.260  1.00  0.00    -0.169 NA
HETATM   23  N   UNL     1      43.617 -16.583   2.829  1.00  0.00    -0.277 N 
HETATM   24  H   UNL     1      44.230 -16.601   2.019  1.00  0.00     0.189 HD
HETATM   25  C   UNL     1      43.216 -17.675   3.560  1.00  0.00     0.065 A 
HETATM   26  C   UNL     1      42.384 -17.139   4.524  1.00  0.00     0.071 A 
BRANCH  25  27
HETATM   27  C   UNL     1      43.644 -19.060   3.290  1.00  0.00     0.025 A 
HETATM   28  C   UNL     1      44.402 -19.833   4.203  1.00  0.00     0.080 A 
HETATM   29  C   UNL     1      44.759 -21.149   3.869  1.00  0.00     0.037 A 
HETATM   30  C   UNL     1      44.381 -21.705   2.645  1.00  0.00     0.003 A 
HETATM   31  C   UNL     1      43.640 -20.955   1.743  1.00  0.00     0.001 A 
HETATM   32  C   UNL     1      43.277 -19.648   2.064  1.00  0.00     0.016 A 
BRANCH  28  33
HETATM   33  O   UNL     1      44.748 -19.236   5.394  1.00  0.00    -0.355 OA
HETATM   34  C   UNL     1      44.094 -19.695   6.573  1.00  0.00     0.210 C 
ENDBRANCH  28  33
ENDBRANCH  25  27
ENDBRANCH   2  21
TORSDOF 8
ENDMDL
MODEL 8
REMARK VINA RESULT:      -8.4      2.694     11.496
REMARK  8 active torsions:
REMARK  status: ('A' for Active; 'I' for Inactive)
REMARK    1  A    between atoms: O_2  and  C_3 
REMARK    2  A    between atoms: C_6  and  C_7 
REMARK    3  A    between atoms: C_7  and  C_8 
REMARK    4  A    between atoms: C_8  and  C_9 
REMARK    5  A    between atoms: C_11  and  N_12 
REMARK       I    between atoms: N_12  and  C_13 
REMARK    6  A    between atoms: C_13  and  C_14 
REMARK    7  A    between atoms: C_18  and  C_19 
REMARK    8  A    between atoms: C_20  and  O_21 
ROOT
HETATM    1  N   UNL     1      42.412 -12.892   6.366  1.00  0.00    -0.149 N 
HETATM    2  C   UNL     1      41.716 -11.717   6.224  1.00  0.00     0.290 C 
HETATM    3  O   UNL     1      41.311 -11.217   5.180  1.00  0.00    -0.265 OA
HETATM    4  H   UNL     1      42.699 -13.165   7.295  1.00  0.00     0.188 HD
ENDROOT
BRANCH   1   5
HETATM    5  C   UNL     1      42.746 -13.728   5.344  1.00  0.00     0.747 A 
HETATM    6  N   UNL     1      41.908 -14.771   5.035  1.00  0.00    -0.046 NA
HETATM    7  C   UNL     1      42.504 -15.359   4.017  1.00  0.00     0.140 A 
HETATM    8  N   UNL     1      43.649 -14.673   3.731  1.00  0.00    -0.248 N 
HETATM    9  N   UNL     1      43.825 -13.651   4.567  1.00  0.00     0.020 NA
HETATM   10  H   UNL     1      44.338 -14.846   3.009  1.00  0.00     0.191 HD
BRANCH   7  11
HETATM   11  C   UNL     1      42.069 -16.546   3.232  1.00  0.00     0.085 C 
BRANCH  11  12
HETATM   12  C   UNL     1      43.202 -17.089   2.353  1.00  0.00     0.046 C 
BRANCH  12  13
HETATM   13  C   UNL     1      43.582 -18.507   2.706  1.00  0.00    -0.058 A 
HETATM   14  C   UNL     1      43.514 -19.517   1.737  1.00  0.00     0.010 A 
HETATM   15  C   UNL     1      43.891 -20.830   2.041  1.00  0.00     0.037 A 
HETATM   16  C   UNL     1      44.345 -21.147   3.319  1.00  0.00     0.068 A 
HETATM   17  C   UNL     1      44.392 -20.148   4.293  1.00  0.00     0.037 A 
HETATM   18  C   UNL     1      44.015 -18.836   3.993  1.00  0.00     0.010 A 
BRANCH  16  19
HETATM   19  O   UNL     1      44.760 -22.382   3.738  1.00  0.00    -0.356 OA
HETATM   20  C   UNL     1      45.096 -22.509   5.114  1.00  0.00     0.210 C 
ENDBRANCH  16  19
ENDBRANCH  12  13
ENDBRANCH  11  12
ENDBRANCH   7  11
ENDBRANCH   1   5
BRANCH   2  21
HETATM   21  C   UNL     1      41.483 -11.043   7.513  1.00  0.00     0.147 A 
HETATM   22  N   UNL     1      40.301 -10.495   7.857  1.00  0.00    -0.169 NA
HETATM   23  N   UNL     1      40.533  -9.989   9.086  1.00  0.00    -0.277 N 
HETATM   24  H   UNL     1      39.784  -9.499   9.567  1.00  0.00     0.189 HD
HETATM   25  C   UNL     1      41.800 -10.199   9.571  1.00  0.00     0.065 A 
HETATM   26  C   UNL     1      42.437 -10.877   8.549  1.00  0.00     0.071 A 
BRANCH  25  27
HETATM   27  C   UNL     1      42.266  -9.762  10.901  1.00  0.00     0.025 A 
HETATM   28  C   UNL     1      41.891  -8.530  11.490  1.00  0.00     0.080 A 
HETATM   29  C   UNL     1      42.373  -8.196  12.766  1.00  0.00     0.037 A 
HETATM   30  C   UNL     1      43.221  -9.060  13.460  1.00  0.00     0.003 A 
HETATM   31  C   UNL     1      43.596 -10.269  12.890  1.00  0.00     0.001 A 
HETATM   32  C   UNL     1      43.122 -10.613  11.625  1.00  0.00     0.016 A 
BRANCH  28  33
HETATM   33  O   UNL     1      41.052  -7.716  10.763  1.00  0.00    -0.355 OA
HETATM   34  C   UNL     1      39.837  -7.304  11.380  1.00  0.00     0.210 C 
ENDBRANCH  28  33
ENDBRANCH  25  27
ENDBRANCH   2  21
TORSDOF 8
ENDMDL
MODEL 9
REMARK VINA RESULT:      -8.3      3.151     11.693
REMARK  8 active torsions:
REMARK  status: ('A' for Active; 'I' for Inactive)
REMARK    1  A    between atoms: O_2  and  C_3 
REMARK    2  A    between atoms: C_6  and  C_7 
REMARK    3  A    between atoms: C_7  and  C_8 
REMARK    4  A    between atoms: C_8  and  C_9 
REMARK    5  A    between atoms: C_11  and  N_12 
REMARK       I    between atoms: N_12  and  C_13 
REMARK    6  A    between atoms: C_13  and  C_14 
REMARK    7  A    between atoms: C_18  and  C_19 
REMARK    8  A    between atoms: C_20  and  O_21 
ROOT
HETATM    1  N   UNL     1      41.303 -11.703   6.934  1.00  0.00    -0.149 N 
HETATM    2  C   UNL     1      39.991 -11.416   7.222  1.00  0.00     0.290 C 
HETATM    3  O   UNL     1      39.031 -11.499   6.464  1.00  0.00    -0.265 OA
HETATM    4  H   UNL     1      41.990 -11.563   7.661  1.00  0.00     0.188 HD
ENDROOT
BRANCH   1   5
HETATM    5  C   UNL     1      41.753 -12.168   5.736  1.00  0.00     0.747 A 
HETATM    6  N   UNL     1      42.425 -13.365   5.695  1.00  0.00    -0.046 NA
HETATM    7  C   UNL     1      42.703 -13.523   4.417  1.00  0.00     0.140 A 
HETATM    8  N   UNL     1      42.197 -12.459   3.728  1.00  0.00    -0.248 N 
HETATM    9  N   UNL     1      41.609 -11.586   4.546  1.00  0.00     0.020 NA
HETATM   10  H   UNL     1      42.224 -12.264   2.734  1.00  0.00     0.191 HD
BRANCH   7  11
HETATM   11  C   UNL     1      43.409 -14.646   3.741  1.00  0.00     0.085 C 
BRANCH  11  12
HETATM   12  C   UNL     1      42.423 -15.663   3.154  1.00  0.00     0.046 C 
BRANCH  12  13
HETATM   13  C   UNL     1      42.987 -17.061   3.111  1.00  0.00    -0.058 A 
HETATM   14  C   UNL     1      43.628 -17.599   4.235  1.00  0.00     0.010 A 
HETATM   15  C   UNL     1      44.129 -18.905   4.220  1.00  0.00     0.037 A 
HETATM   16  C   UNL     1      43.992 -19.692   3.078  1.00  0.00     0.068 A 
HETATM   17  C   UNL     1      43.375 -19.152   1.948  1.00  0.00     0.037 A 
HETATM   18  C   UNL     1      42.874 -17.847   1.961  1.00  0.00     0.010 A 
BRANCH  16  19
HETATM   19  O   UNL     1      44.420 -20.985   2.940  1.00  0.00    -0.356 OA
HETATM   20  C   UNL     1      43.985 -21.679   1.778  1.00  0.00     0.210 C 
ENDBRANCH  16  19
ENDBRANCH  12  13
ENDBRANCH  11  12
ENDBRANCH   7  11
ENDBRANCH   1   5
BRANCH   2  21
HETATM   21  C   UNL     1      39.809 -10.954   8.609  1.00  0.00     0.147 A 
HETATM   22  N   UNL     1      38.607 -10.640   9.130  1.00  0.00    -0.169 NA
HETATM   23  N   UNL     1      38.899 -10.265  10.394  1.00  0.00    -0.277 N 
HETATM   24  H   UNL     1      38.147  -9.960  11.004  1.00  0.00     0.189 HD
HETATM   25  C   UNL     1      40.228 -10.343  10.730  1.00  0.00     0.065 A 
HETATM   26  C   UNL     1      40.837 -10.781   9.569  1.00  0.00     0.071 A 
BRANCH  25  27
HETATM   27  C   UNL     1      40.770 -10.013  12.062  1.00  0.00     0.025 A 
HETATM   28  C   UNL     1      40.351  -8.891  12.817  1.00  0.00     0.080 A 
HETATM   29  C   UNL     1      40.913  -8.656  14.082  1.00  0.00     0.037 A 
HETATM   30  C   UNL     1      41.884  -9.513  14.604  1.00  0.00     0.003 A 
HETATM   31  C   UNL     1      42.303 -10.614  13.871  1.00  0.00     0.001 A 
HETATM   32  C   UNL     1      41.750 -10.859  12.614  1.00  0.00     0.016 A 
BRANCH  28  33
HETATM   33  O   UNL     1      39.391  -8.080  12.255  1.00  0.00    -0.355 OA
HETATM   34  C   UNL     1      38.216  -7.826  13.018  1.00  0.00     0.210 C 
ENDBRANCH  28  33
ENDBRANCH  25  27
ENDBRANCH   2  21
TORSDOF 8
ENDMDL
MODEL 10
REMARK VINA RESULT:      -8.2      3.047     11.358
REMARK  8 active torsions:
REMARK  status: ('A' for Active; 'I' for Inactive)
REMARK    1  A    between atoms: O_2  and  C_3 
REMARK    2  A    between atoms: C_6  and  C_7 
REMARK    3  A    between atoms: C_7  and  C_8 
REMARK    4  A    between atoms: C_8  and  C_9 
REMARK    5  A    between atoms: C_11  and  N_12 
REMARK       I    between atoms: N_12  and  C_13 
REMARK    6  A    between atoms: C_13  and  C_14 
REMARK    7  A    between atoms: C_18  and  C_19 
REMARK    8  A    between atoms: C_20  and  O_21 
ROOT
HETATM    1  N   UNL     1      40.388 -12.856   6.726  1.00  0.00    -0.149 N 
HETATM    2  C   UNL     1      39.667 -11.699   6.878  1.00  0.00     0.290 C 
HETATM    3  O   UNL     1      38.968 -11.144   6.037  1.00  0.00    -0.265 OA
HETATM    4  H   UNL     1      40.938 -13.180   7.508  1.00  0.00     0.188 HD
ENDROOT
BRANCH   1   5
HETATM    5  C   UNL     1      40.418 -13.611   5.593  1.00  0.00     0.747 A 
HETATM    6  N   UNL     1      41.508 -13.525   4.761  1.00  0.00    -0.046 NA
HETATM    7  C   UNL     1      41.228 -14.371   3.791  1.00  0.00     0.140 A 
HETATM    8  N   UNL     1      40.018 -14.946   4.053  1.00  0.00    -0.248 N 
HETATM    9  N   UNL     1      39.485 -14.467   5.177  1.00  0.00     0.020 NA
HETATM   10  H   UNL     1      39.508 -15.642   3.522  1.00  0.00     0.191 HD
BRANCH   7  11
HETATM   11  C   UNL     1      42.038 -14.731   2.596  1.00  0.00     0.085 C 
BRANCH  11  12
HETATM   12  C   UNL     1      43.447 -15.193   2.986  1.00  0.00     0.046 C 
BRANCH  12  13
HETATM   13  C   UNL     1      43.595 -16.694   2.959  1.00  0.00    -0.058 A 
HETATM   14  C   UNL     1      43.680 -17.374   1.737  1.00  0.00     0.010 A 
HETATM   15  C   UNL     1      43.847 -18.762   1.697  1.00  0.00     0.037 A 
HETATM   16  C   UNL     1      43.935 -19.489   2.882  1.00  0.00     0.068 A 
HETATM   17  C   UNL     1      43.826 -18.819   4.102  1.00  0.00     0.037 A 
HETATM   18  C   UNL     1      43.659 -17.432   4.145  1.00  0.00     0.010 A 
BRANCH  16  19
HETATM   19  O   UNL     1      44.116 -20.842   2.981  1.00  0.00    -0.356 OA
HETATM   20  C   UNL     1      43.928 -21.599   1.792  1.00  0.00     0.210 C 
ENDBRANCH  16  19
ENDBRANCH  12  13
ENDBRANCH  11  12
ENDBRANCH   7  11
ENDBRANCH   1   5
BRANCH   2  21
HETATM   21  C   UNL     1      39.813 -11.118   8.225  1.00  0.00     0.147 A 
HETATM   22  N   UNL     1      38.770 -10.874   9.041  1.00  0.00    -0.169 NA
HETATM   23  N   UNL     1      39.346 -10.345  10.141  1.00  0.00    -0.277 N 
HETATM   24  H   UNL     1      38.758 -10.056  10.917  1.00  0.00     0.189 HD
HETATM   25  C   UNL     1      40.716 -10.254  10.092  1.00  0.00     0.065 A 
HETATM   26  C   UNL     1      41.035 -10.745   8.840  1.00  0.00     0.071 A 
BRANCH  25  27
HETATM   27  C   UNL     1      41.555  -9.738  11.190  1.00  0.00     0.025 A 
HETATM   28  C   UNL     1      42.594 -10.486  11.794  1.00  0.00     0.080 A 
HETATM   29  C   UNL     1      43.352  -9.913  12.828  1.00  0.00     0.037 A 
HETATM   30  C   UNL     1      43.092  -8.616  13.272  1.00  0.00     0.003 A 
HETATM   31  C   UNL     1      42.075  -7.874  12.688  1.00  0.00     0.001 A 
HETATM   32  C   UNL     1      41.316  -8.431  11.658  1.00  0.00     0.016 A 
BRANCH  28  33
HETATM   33  O   UNL     1      42.809 -11.760  11.318  1.00  0.00    -0.355 OA
HETATM   34  C   UNL     1      44.147 -12.125  10.997  1.00  0.00     0.210 C 
ENDBRANCH  28  33
ENDBRANCH  25  27
ENDBRANCH   2  21
TORSDOF 8
ENDMDL
