MODEL 1
REMARK VINA RESULT:      -8.2      0.000      0.000
REMARK  4 active torsions:
REMARK  status: ('A' for Active; 'I' for Inactive)
REMARK    1  A    between atoms: O_2  and  C_3 
REMARK    2  A    between atoms: C_6  and  C_7 
REMARK    3  A    between atoms: C_12  and  N_13 
REMARK    4  A    between atoms: C_15  and  C_16 
ROOT
HETATM    1  C   UNL     1      43.092 -16.764   5.575  1.00  0.00     0.135 C 
HETATM    2  N   UNL     1      43.068 -16.161   4.247  1.00  0.00    -0.214 N 
HETATM    3  C   UNL     1      42.872 -14.828   4.165  1.00  0.00     0.736 A 
HETATM    4  N   UNL     1      43.143 -14.003   5.225  1.00  0.00    -0.074 N 
HETATM    5  N   UNL     1      42.761 -12.739   4.965  1.00  0.00     0.037 NA
HETATM    6  C   UNL     1      42.344 -12.858   3.708  1.00  0.00     0.753 A 
HETATM    7  N   UNL     1      42.404 -14.112   3.177  1.00  0.00     0.131 NA
HETATM    8  C   UNL     1      43.554 -14.475   6.543  1.00  0.00     0.164 C 
HETATM    9  C   UNL     1      44.017 -15.944   6.488  1.00  0.00     0.063 C 
HETATM   10  H   UNL     1      42.613 -16.719   3.526  1.00  0.00     0.178 HD
ENDROOT
BRANCH   1  11
HETATM   11  C   UNL     1      43.557 -18.206   5.489  1.00  0.00    -0.035 A 
HETATM   12  C   UNL     1      44.078 -18.738   4.300  1.00  0.00     0.012 A 
HETATM   13  C   UNL     1      44.548 -20.052   4.256  1.00  0.00     0.037 A 
HETATM   14  C   UNL     1      44.517 -20.859   5.394  1.00  0.00     0.068 A 
HETATM   15  C   UNL     1      43.987 -20.346   6.576  1.00  0.00     0.037 A 
HETATM   16  C   UNL     1      43.513 -19.028   6.624  1.00  0.00     0.012 A 
BRANCH  14  17
HETATM   17  O   UNL     1      45.022 -22.117   5.218  1.00  0.00    -0.356 OA
HETATM   18  C   UNL     1      44.739 -22.753   3.978  1.00  0.00     0.210 C 
ENDBRANCH  14  17
ENDBRANCH   1  11
BRANCH   8  19
HETATM   19  C   UNL     1      44.633 -13.602   7.170  1.00  0.00    -0.031 A 
HETATM   20  C   UNL     1      44.351 -12.877   8.341  1.00  0.00     0.028 A 
HETATM   21  C   UNL     1      45.341 -12.100   8.943  1.00  0.00     0.011 A 
HETATM   22 BR   UNL     1      44.943 -11.133  10.518  1.00  0.00    -0.051 Br
HETATM   23  C   UNL     1      46.621 -12.034   8.398  1.00  0.00     0.019 A 
HETATM   24  C   UNL     1      46.914 -12.750   7.239  1.00  0.00     0.002 A 
HETATM   25  C   UNL     1      45.928 -13.530   6.630  1.00  0.00     0.009 A 
ENDBRANCH   8  19
BRANCH   6  26
HETATM   26  N   UNL     1      41.892 -11.864   2.948  1.00  0.00    -0.229 N 
HETATM   27  H   UNL     1      41.076 -12.062   2.385  1.00  0.00     0.174 HD
HETATM   28  H   UNL     1      41.915 -10.940   3.354  1.00  0.00     0.174 HD
ENDBRANCH   6  26
TORSDOF 4
ENDMDL
MODEL 2
REMARK VINA RESULT:      -8.2      4.456      6.239
REMARK  4 active torsions:
REMARK  status: ('A' for Active; 'I' for Inactive)
REMARK    1  A    between atoms: O_2  and  C_3 
REMARK    2  A    between atoms: C_6  and  C_7 
REMARK    3  A    between atoms: C_12  and  N_13 
REMARK    4  A    between atoms: C_15  and  C_16 
ROOT
HETATM    1  C   UNL     1      42.650 -16.671   3.490  1.00  0.00     0.135 C 
HETATM    2  N   UNL     1      41.828 -16.696   4.695  1.00  0.00    -0.214 N 
HETATM    3  C   UNL     1      41.104 -15.596   4.986  1.00  0.00     0.736 A 
HETATM    4  N   UNL     1      40.767 -14.688   4.015  1.00  0.00    -0.074 N 
HETATM    5  N   UNL     1      40.155 -13.615   4.548  1.00  0.00     0.037 NA
HETATM    6  C   UNL     1      40.083 -13.976   5.825  1.00  0.00     0.753 A 
HETATM    7  N   UNL     1      40.640 -15.181   6.135  1.00  0.00     0.131 NA
HETATM    8  C   UNL     1      41.234 -14.759   2.634  1.00  0.00     0.164 C 
HETATM    9  C   UNL     1      41.809 -16.152   2.313  1.00  0.00     0.063 C 
HETATM   10  H   UNL     1      42.244 -17.174   5.493  1.00  0.00     0.178 HD
ENDROOT
BRANCH   1  11
HETATM   11  C   UNL     1      43.195 -18.055   3.196  1.00  0.00    -0.035 A 
HETATM   12  C   UNL     1      43.989 -18.743   4.126  1.00  0.00     0.012 A 
HETATM   13  C   UNL     1      44.438 -20.038   3.857  1.00  0.00     0.037 A 
HETATM   14  C   UNL     1      44.101 -20.676   2.662  1.00  0.00     0.068 A 
HETATM   15  C   UNL     1      43.327 -19.996   1.725  1.00  0.00     0.037 A 
HETATM   16  C   UNL     1      42.875 -18.696   1.990  1.00  0.00     0.012 A 
BRANCH  14  17
HETATM   17  O   UNL     1      44.591 -21.945   2.533  1.00  0.00    -0.356 OA
HETATM   18  C   UNL     1      44.710 -22.710   3.726  1.00  0.00     0.210 C 
ENDBRANCH  14  17
ENDBRANCH   1  11
BRANCH   8  19
HETATM   19  C   UNL     1      40.153 -14.386   1.630  1.00  0.00    -0.031 A 
HETATM   20  C   UNL     1      40.507 -13.750   0.427  1.00  0.00     0.028 A 
HETATM   21  C   UNL     1      39.528 -13.433  -0.516  1.00  0.00     0.011 A 
HETATM   22 BR   UNL     1      40.024 -12.579  -2.128  1.00  0.00    -0.051 Br
HETATM   23  C   UNL     1      38.191 -13.746  -0.284  1.00  0.00     0.019 A 
HETATM   24  C   UNL     1      37.827 -14.379   0.902  1.00  0.00     0.002 A 
HETATM   25  C   UNL     1      38.800 -14.699   1.852  1.00  0.00     0.009 A 
ENDBRANCH   8  19
BRANCH   6  26
HETATM   26  N   UNL     1      39.514 -13.268   6.797  1.00  0.00    -0.229 N 
HETATM   27  H   UNL     1      40.122 -12.660   7.328  1.00  0.00     0.174 HD
HETATM   28  H   UNL     1      38.598 -12.888   6.600  1.00  0.00     0.174 HD
ENDBRANCH   6  26
TORSDOF 4
ENDMDL
MODEL 3
REMARK VINA RESULT:      -7.9      4.868      7.517
REMARK  4 active torsions:
REMARK  status: ('A' for Active; 'I' for Inactive)
REMARK    1  A    between atoms: O_2  and  C_3 
REMARK    2  A    between atoms: C_6  and  C_7 
REMARK    3  A    between atoms: C_12  and  N_13 
REMARK    4  A    between atoms: C_15  and  C_16 
ROOT
HETATM    1  C   UNL     1      41.847 -15.166   2.143  1.00  0.00     0.135 C 
HETATM    2  N   UNL     1      42.852 -14.234   2.644  1.00  0.00    -0.214 N 
HETATM    3  C   UNL     1      43.353 -14.452   3.877  1.00  0.00     0.736 A 
HETATM    4  N   UNL     1      43.306 -15.694   4.456  1.00  0.00    -0.074 N 
HETATM    5  N   UNL     1      43.748 -15.654   5.726  1.00  0.00     0.037 NA
HETATM    6  C   UNL     1      44.120 -14.380   5.821  1.00  0.00     0.753 A 
HETATM    7  N   UNL     1      43.907 -13.614   4.714  1.00  0.00     0.131 NA
HETATM    8  C   UNL     1      42.633 -16.845   3.863  1.00  0.00     0.164 C 
HETATM    9  C   UNL     1      42.334 -16.606   2.370  1.00  0.00     0.063 C 
HETATM   10  H   UNL     1      42.698 -13.258   2.396  1.00  0.00     0.178 HD
ENDROOT
BRANCH   1  11
HETATM   11  C   UNL     1      41.580 -14.910   0.672  1.00  0.00    -0.035 A 
HETATM   12  C   UNL     1      41.358 -15.964  -0.226  1.00  0.00     0.012 A 
HETATM   13  C   UNL     1      41.063 -15.706  -1.566  1.00  0.00     0.037 A 
HETATM   14  C   UNL     1      40.976 -14.395  -2.037  1.00  0.00     0.068 A 
HETATM   15  C   UNL     1      41.211 -13.340  -1.157  1.00  0.00     0.037 A 
HETATM   16  C   UNL     1      41.508 -13.596   0.188  1.00  0.00     0.012 A 
BRANCH  14  17
HETATM   17  O   UNL     1      40.664 -14.282  -3.363  1.00  0.00    -0.356 OA
HETATM   18  C   UNL     1      39.633 -15.130  -3.852  1.00  0.00     0.210 C 
ENDBRANCH  14  17
ENDBRANCH   1  11
BRANCH   8  19
HETATM   19  C   UNL     1      43.412 -18.140   4.048  1.00  0.00    -0.031 A 
HETATM   20  C   UNL     1      43.400 -19.113   3.033  1.00  0.00     0.028 A 
HETATM   21  C   UNL     1      44.137 -20.289   3.177  1.00  0.00     0.011 A 
HETATM   22 BR   UNL     1      44.109 -21.585   1.801  1.00  0.00    -0.051 Br
HETATM   23  C   UNL     1      44.898 -20.514   4.322  1.00  0.00     0.019 A 
HETATM   24  C   UNL     1      44.920 -19.557   5.334  1.00  0.00     0.002 A 
HETATM   25  C   UNL     1      44.184 -18.377   5.198  1.00  0.00     0.009 A 
ENDBRANCH   8  19
BRANCH   6  26
HETATM   26  N   UNL     1      44.678 -13.817   6.889  1.00  0.00    -0.229 N 
HETATM   27  H   UNL     1      44.416 -12.861   7.084  1.00  0.00     0.174 HD
HETATM   28  H   UNL     1      44.785 -14.405   7.704  1.00  0.00     0.174 HD
ENDBRANCH   6  26
TORSDOF 4
ENDMDL
MODEL 4
REMARK VINA RESULT:      -7.8      4.872      6.793
REMARK  4 active torsions:
REMARK  status: ('A' for Active; 'I' for Inactive)
REMARK    1  A    between atoms: O_2  and  C_3 
REMARK    2  A    between atoms: C_6  and  C_7 
REMARK    3  A    between atoms: C_12  and  N_13 
REMARK    4  A    between atoms: C_15  and  C_16 
ROOT
HETATM    1  C   UNL     1      42.699 -16.247   2.539  1.00  0.00     0.135 C 
HETATM    2  N   UNL     1      41.400 -16.006   3.156  1.00  0.00    -0.214 N 
HETATM    3  C   UNL     1      40.734 -14.886   2.806  1.00  0.00     0.736 A 
HETATM    4  N   UNL     1      40.996 -14.242   1.625  1.00  0.00    -0.074 N 
HETATM    5  N   UNL     1      40.310 -13.089   1.539  1.00  0.00     0.037 NA
HETATM    6  C   UNL     1      39.595 -13.139   2.659  1.00  0.00     0.753 A 
HETATM    7  N   UNL     1      39.815 -14.223   3.456  1.00  0.00     0.131 NA
HETATM    8  C   UNL     1      42.063 -14.626   0.705  1.00  0.00     0.164 C 
HETATM    9  C   UNL     1      42.585 -16.042   1.020  1.00  0.00     0.063 C 
HETATM   10  H   UNL     1      41.330 -16.272   4.137  1.00  0.00     0.178 HD
ENDROOT
BRANCH   1  11
HETATM   11  C   UNL     1      43.183 -17.648   2.861  1.00  0.00    -0.035 A 
HETATM   12  C   UNL     1      43.329 -18.621   1.861  1.00  0.00     0.012 A 
HETATM   13  C   UNL     1      43.824 -19.889   2.170  1.00  0.00     0.037 A 
HETATM   14  C   UNL     1      44.191 -20.212   3.477  1.00  0.00     0.068 A 
HETATM   15  C   UNL     1      44.035 -19.258   4.481  1.00  0.00     0.037 A 
HETATM   16  C   UNL     1      43.537 -17.985   4.175  1.00  0.00     0.012 A 
BRANCH  14  17
HETATM   17  O   UNL     1      44.676 -21.480   3.640  1.00  0.00    -0.356 OA
HETATM   18  C   UNL     1      44.992 -21.878   4.968  1.00  0.00     0.210 C 
ENDBRANCH  14  17
ENDBRANCH   1  11
BRANCH   8  19
HETATM   19  C   UNL     1      41.642 -14.528  -0.755  1.00  0.00    -0.031 A 
HETATM   20  C   UNL     1      41.984 -13.389  -1.504  1.00  0.00     0.028 A 
HETATM   21  C   UNL     1      41.634 -13.303  -2.853  1.00  0.00     0.011 A 
HETATM   22 BR   UNL     1      42.103 -11.764  -3.845  1.00  0.00    -0.051 Br
HETATM   23  C   UNL     1      40.946 -14.342  -3.476  1.00  0.00     0.019 A 
HETATM   24  C   UNL     1      40.603 -15.477  -2.744  1.00  0.00     0.002 A 
HETATM   25  C   UNL     1      40.950 -15.571  -1.395  1.00  0.00     0.009 A 
ENDBRANCH   8  19
BRANCH   6  26
HETATM   26  N   UNL     1      38.699 -12.235   3.044  1.00  0.00    -0.229 N 
HETATM   27  H   UNL     1      38.422 -11.550   2.354  1.00  0.00     0.174 HD
HETATM   28  H   UNL     1      37.952 -12.565   3.639  1.00  0.00     0.174 HD
ENDBRANCH   6  26
TORSDOF 4
ENDMDL
MODEL 5
REMARK VINA RESULT:      -7.8      5.429      8.305
REMARK  4 active torsions:
REMARK  status: ('A' for Active; 'I' for Inactive)
REMARK    1  A    between atoms: O_2  and  C_3 
REMARK    2  A    between atoms: C_6  and  C_7 
REMARK    3  A    between atoms: C_12  and  N_13 
REMARK    4  A    between atoms: C_15  and  C_16 
ROOT
HETATM    1  C   UNL     1      40.798 -15.238   0.822  1.00  0.00     0.135 C 
HETATM    2  N   UNL     1      40.909 -14.289   1.925  1.00  0.00    -0.214 N 
HETATM    3  C   UNL     1      40.837 -14.773   3.182  1.00  0.00     0.736 A 
HETATM    4  N   UNL     1      41.113 -16.087   3.455  1.00  0.00    -0.074 N 
HETATM    5  N   UNL     1      40.859 -16.378   4.744  1.00  0.00     0.037 NA
HETATM    6  C   UNL     1      40.513 -15.180   5.207  1.00  0.00     0.753 A 
HETATM    7  N   UNL     1      40.496 -14.171   4.291  1.00  0.00     0.131 NA
HETATM    8  C   UNL     1      41.397 -17.091   2.434  1.00  0.00     0.164 C 
HETATM    9  C   UNL     1      41.733 -16.430   1.083  1.00  0.00     0.063 C 
HETATM   10  H   UNL     1      40.453 -13.391   1.771  1.00  0.00     0.178 HD
ENDROOT
BRANCH   1  11
HETATM   11  C   UNL     1      41.139 -14.560  -0.491  1.00  0.00    -0.035 A 
HETATM   12  C   UNL     1      41.669 -13.262  -0.530  1.00  0.00     0.012 A 
HETATM   13  C   UNL     1      42.025 -12.676  -1.747  1.00  0.00     0.037 A 
HETATM   14  C   UNL     1      41.867 -13.371  -2.946  1.00  0.00     0.068 A 
HETATM   15  C   UNL     1      41.327 -14.656  -2.921  1.00  0.00     0.037 A 
HETATM   16  C   UNL     1      40.968 -15.247  -1.702  1.00  0.00     0.012 A 
BRANCH  14  17
HETATM   17  O   UNL     1      42.269 -12.690  -4.061  1.00  0.00    -0.356 OA
HETATM   18  C   UNL     1      42.340 -11.274  -3.954  1.00  0.00     0.210 C 
ENDBRANCH  14  17
ENDBRANCH   1  11
BRANCH   8  19
HETATM   19  C   UNL     1      42.507 -18.049   2.846  1.00  0.00    -0.031 A 
HETATM   20  C   UNL     1      42.689 -19.251   2.141  1.00  0.00     0.028 A 
HETATM   21  C   UNL     1      43.724 -20.121   2.488  1.00  0.00     0.011 A 
HETATM   22 BR   UNL     1      43.953 -21.732   1.527  1.00  0.00    -0.051 Br
HETATM   23  C   UNL     1      44.592 -19.810   3.531  1.00  0.00     0.019 A 
HETATM   24  C   UNL     1      44.424 -18.621   4.237  1.00  0.00     0.002 A 
HETATM   25  C   UNL     1      43.391 -17.745   3.896  1.00  0.00     0.009 A 
ENDBRANCH   8  19
BRANCH   6  26
HETATM   26  N   UNL     1      40.198 -14.902   6.469  1.00  0.00    -0.229 N 
HETATM   27  H   UNL     1      40.757 -14.197   6.929  1.00  0.00     0.174 HD
HETATM   28  H   UNL     1      39.213 -14.877   6.692  1.00  0.00     0.174 HD
ENDBRANCH   6  26
TORSDOF 4
ENDMDL
MODEL 6
REMARK VINA RESULT:      -7.6      4.719      7.705
REMARK  4 active torsions:
REMARK  status: ('A' for Active; 'I' for Inactive)
REMARK    1  A    between atoms: O_2  and  C_3 
REMARK    2  A    between atoms: C_6  and  C_7 
REMARK    3  A    between atoms: C_12  and  N_13 
REMARK    4  A    between atoms: C_15  and  C_16 
ROOT
HETATM    1  C   UNL     1      40.643 -15.405   2.907  1.00  0.00     0.135 C 
HETATM    2  N   UNL     1      41.632 -14.439   3.374  1.00  0.00    -0.214 N 
HETATM    3  C   UNL     1      42.485 -14.831   4.343  1.00  0.00     0.736 A 
HETATM    4  N   UNL     1      42.750 -16.158   4.565  1.00  0.00    -0.074 N 
HETATM    5  N   UNL     1      43.527 -16.322   5.651  1.00  0.00     0.037 NA
HETATM    6  C   UNL     1      43.759 -15.056   5.985  1.00  0.00     0.753 A 
HETATM    7  N   UNL     1      43.152 -14.114   5.209  1.00  0.00     0.131 NA
HETATM    8  C   UNL     1      42.076 -17.251   3.872  1.00  0.00     0.164 C 
HETATM    9  C   UNL     1      41.339 -16.744   2.617  1.00  0.00     0.063 C 
HETATM   10  H   UNL     1      41.301 -13.478   3.440  1.00  0.00     0.178 HD
ENDROOT
BRANCH   1  11
HETATM   11  C   UNL     1      39.941 -14.881   1.669  1.00  0.00    -0.035 A 
HETATM   12  C   UNL     1      40.584 -14.839   0.424  1.00  0.00     0.012 A 
HETATM   13  C   UNL     1      39.903 -14.401  -0.714  1.00  0.00     0.037 A 
HETATM   14  C   UNL     1      38.568 -14.004  -0.637  1.00  0.00     0.068 A 
HETATM   15  C   UNL     1      37.923 -14.026   0.599  1.00  0.00     0.037 A 
HETATM   16  C   UNL     1      38.603 -14.464   1.743  1.00  0.00     0.012 A 
BRANCH  14  17
HETATM   17  O   UNL     1      38.016 -13.614  -1.825  1.00  0.00    -0.356 OA
HETATM   18  C   UNL     1      38.674 -14.048  -3.008  1.00  0.00     0.210 C 
ENDBRANCH  14  17
ENDBRANCH   1  11
BRANCH   8  19
HETATM   19  C   UNL     1      43.021 -18.388   3.509  1.00  0.00    -0.031 A 
HETATM   20  C   UNL     1      43.394 -19.325   4.488  1.00  0.00     0.028 A 
HETATM   21  C   UNL     1      44.233 -20.391   4.160  1.00  0.00     0.011 A 
HETATM   22 BR   UNL     1      44.721 -21.642   5.490  1.00  0.00    -0.051 Br
HETATM   23  C   UNL     1      44.709 -20.544   2.860  1.00  0.00     0.019 A 
HETATM   24  C   UNL     1      44.346 -19.623   1.880  1.00  0.00     0.002 A 
HETATM   25  C   UNL     1      43.507 -18.554   2.201  1.00  0.00     0.009 A 
ENDBRANCH   8  19
BRANCH   6  26
HETATM   26  N   UNL     1      44.528 -14.653   6.993  1.00  0.00    -0.229 N 
HETATM   27  H   UNL     1      44.388 -13.706   7.317  1.00  0.00     0.174 HD
HETATM   28  H   UNL     1      44.708 -15.330   7.721  1.00  0.00     0.174 HD
ENDBRANCH   6  26
TORSDOF 4
ENDMDL
MODEL 7
REMARK VINA RESULT:      -7.3      5.351      6.946
REMARK  4 active torsions:
REMARK  status: ('A' for Active; 'I' for Inactive)
REMARK    1  A    between atoms: O_2  and  C_3 
REMARK    2  A    between atoms: C_6  and  C_7 
REMARK    3  A    between atoms: C_12  and  N_13 
REMARK    4  A    between atoms: C_15  and  C_16 
ROOT
HETATM    1  C   UNL     1      40.970 -16.668   1.013  1.00  0.00     0.135 C 
HETATM    2  N   UNL     1      41.719 -16.159  -0.131  1.00  0.00    -0.214 N 
HETATM    3  C   UNL     1      41.088 -15.314  -0.971  1.00  0.00     0.736 A 
HETATM    4  N   UNL     1      39.993 -14.594  -0.568  1.00  0.00    -0.074 N 
HETATM    5  N   UNL     1      39.453 -13.915  -1.596  1.00  0.00     0.037 NA
HETATM    6  C   UNL     1      40.315 -14.205  -2.567  1.00  0.00     0.753 A 
HETATM    7  N   UNL     1      41.333 -15.046  -2.227  1.00  0.00     0.131 NA
HETATM    8  C   UNL     1      39.353 -14.744   0.736  1.00  0.00     0.164 C 
HETATM    9  C   UNL     1      40.268 -15.498   1.720  1.00  0.00     0.063 C 
HETATM   10  H   UNL     1      42.348 -16.830  -0.570  1.00  0.00     0.178 HD
ENDROOT
BRANCH   1  11
HETATM   11  C   UNL     1      41.897 -17.398   1.966  1.00  0.00    -0.035 A 
HETATM   12  C   UNL     1      41.674 -17.397   3.350  1.00  0.00     0.012 A 
HETATM   13  C   UNL     1      42.510 -18.118   4.205  1.00  0.00     0.037 A 
HETATM   14  C   UNL     1      43.579 -18.860   3.700  1.00  0.00     0.068 A 
HETATM   15  C   UNL     1      43.820 -18.855   2.328  1.00  0.00     0.037 A 
HETATM   16  C   UNL     1      42.984 -18.131   1.466  1.00  0.00     0.012 A 
BRANCH  14  17
HETATM   17  O   UNL     1      44.307 -19.532   4.642  1.00  0.00    -0.356 OA
HETATM   18  C   UNL     1      45.093 -20.624   4.183  1.00  0.00     0.210 C 
ENDBRANCH  14  17
ENDBRANCH   1  11
BRANCH   8  19
HETATM   19  C   UNL     1      38.915 -13.413   1.331  1.00  0.00    -0.031 A 
HETATM   20  C   UNL     1      37.717 -12.817   0.902  1.00  0.00     0.028 A 
HETATM   21  C   UNL     1      37.288 -11.614   1.465  1.00  0.00     0.011 A 
HETATM   22 BR   UNL     1      35.672 -10.829   0.876  1.00  0.00    -0.051 Br
HETATM   23  C   UNL     1      38.036 -10.990   2.460  1.00  0.00     0.019 A 
HETATM   24  C   UNL     1      39.225 -11.571   2.895  1.00  0.00     0.002 A 
HETATM   25  C   UNL     1      39.661 -12.774   2.337  1.00  0.00     0.009 A 
ENDBRANCH   8  19
BRANCH   6  26
HETATM   26  N   UNL     1      40.261 -13.739  -3.811  1.00  0.00    -0.229 N 
HETATM   27  H   UNL     1      39.406 -13.274  -4.082  1.00  0.00     0.174 HD
HETATM   28  H   UNL     1      41.106 -13.320  -4.172  1.00  0.00     0.174 HD
ENDBRANCH   6  26
TORSDOF 4
ENDMDL
MODEL 8
REMARK VINA RESULT:      -7.3      4.292      7.165
REMARK  4 active torsions:
REMARK  status: ('A' for Active; 'I' for Inactive)
REMARK    1  A    between atoms: O_2  and  C_3 
REMARK    2  A    between atoms: C_6  and  C_7 
REMARK    3  A    between atoms: C_12  and  N_13 
REMARK    4  A    between atoms: C_15  and  C_16 
ROOT
HETATM    1  C   UNL     1      40.874 -14.521   4.702  1.00  0.00     0.135 C 
HETATM    2  N   UNL     1      42.060 -13.673   4.679  1.00  0.00    -0.214 N 
HETATM    3  C   UNL     1      43.028 -13.919   5.587  1.00  0.00     0.736 A 
HETATM    4  N   UNL     1      43.144 -15.146   6.188  1.00  0.00    -0.074 N 
HETATM    5  N   UNL     1      44.092 -15.129   7.142  1.00  0.00     0.037 NA
HETATM    6  C   UNL     1      44.561 -13.892   7.008  1.00  0.00     0.753 A 
HETATM    7  N   UNL     1      43.947 -13.123   6.064  1.00  0.00     0.131 NA
HETATM    8  C   UNL     1      42.199 -16.241   5.996  1.00  0.00     0.164 C 
HETATM    9  C   UNL     1      41.304 -15.995   4.766  1.00  0.00     0.063 C 
HETATM   10  H   UNL     1      41.886 -12.690   4.475  1.00  0.00     0.178 HD
ENDROOT
BRANCH   1  11
HETATM   11  C   UNL     1      40.017 -14.260   3.477  1.00  0.00    -0.035 A 
HETATM   12  C   UNL     1      39.636 -15.299   2.615  1.00  0.00     0.012 A 
HETATM   13  C   UNL     1      38.805 -15.045   1.522  1.00  0.00     0.037 A 
HETATM   14  C   UNL     1      38.331 -13.757   1.269  1.00  0.00     0.068 A 
HETATM   15  C   UNL     1      38.717 -12.715   2.110  1.00  0.00     0.037 A 
HETATM   16  C   UNL     1      39.552 -12.965   3.207  1.00  0.00     0.012 A 
BRANCH  14  17
HETATM   17  O   UNL     1      37.514 -13.651   0.179  1.00  0.00    -0.356 OA
HETATM   18  C   UNL     1      38.042 -12.969  -0.952  1.00  0.00     0.210 C 
ENDBRANCH  14  17
ENDBRANCH   1  11
BRANCH   8  19
HETATM   19  C   UNL     1      42.886 -17.596   5.890  1.00  0.00    -0.031 A 
HETATM   20  C   UNL     1      43.245 -18.100   4.628  1.00  0.00     0.028 A 
HETATM   21  C   UNL     1      43.905 -19.325   4.520  1.00  0.00     0.011 A 
HETATM   22 BR   UNL     1      44.382 -19.984   2.814  1.00  0.00    -0.051 Br
HETATM   23  C   UNL     1      44.221 -20.063   5.658  1.00  0.00     0.019 A 
HETATM   24  C   UNL     1      43.871 -19.574   6.915  1.00  0.00     0.002 A 
HETATM   25  C   UNL     1      43.211 -18.349   7.031  1.00  0.00     0.009 A 
ENDBRANCH   8  19
BRANCH   6  26
HETATM   26  N   UNL     1      45.564 -13.367   7.705  1.00  0.00    -0.229 N 
HETATM   27  H   UNL     1      46.394 -13.936   7.801  1.00  0.00     0.174 HD
HETATM   28  H   UNL     1      45.737 -12.380   7.573  1.00  0.00     0.174 HD
ENDBRANCH   6  26
TORSDOF 4
ENDMDL
MODEL 9
REMARK VINA RESULT:      -7.1      4.375      7.469
REMARK  4 active torsions:
REMARK  status: ('A' for Active; 'I' for Inactive)
REMARK    1  A    between atoms: O_2  and  C_3 
REMARK    2  A    between atoms: C_6  and  C_7 
REMARK    3  A    between atoms: C_12  and  N_13 
REMARK    4  A    between atoms: C_15  and  C_16 
ROOT
HETATM    1  C   UNL     1      41.623 -13.713   3.611  1.00  0.00     0.135 C 
HETATM    2  N   UNL     1      40.611 -14.031   2.610  1.00  0.00    -0.214 N 
HETATM    3  C   UNL     1      40.984 -14.787   1.556  1.00  0.00     0.736 A 
HETATM    4  N   UNL     1      42.082 -15.604   1.620  1.00  0.00    -0.074 N 
HETATM    5  N   UNL     1      42.338 -16.166   0.424  1.00  0.00     0.037 NA
HETATM    6  C   UNL     1      41.313 -15.710  -0.290  1.00  0.00     0.753 A 
HETATM    7  N   UNL     1      40.457 -14.875   0.363  1.00  0.00     0.131 NA
HETATM    8  C   UNL     1      42.994 -15.658   2.757  1.00  0.00     0.164 C 
HETATM    9  C   UNL     1      42.370 -14.998   4.002  1.00  0.00     0.063 C 
HETATM   10  H   UNL     1      39.955 -13.279   2.403  1.00  0.00     0.178 HD
ENDROOT
BRANCH   1  11
HETATM   11  C   UNL     1      40.977 -13.072   4.825  1.00  0.00    -0.035 A 
HETATM   12  C   UNL     1      41.601 -12.026   5.520  1.00  0.00     0.012 A 
HETATM   13  C   UNL     1      40.967 -11.415   6.603  1.00  0.00     0.037 A 
HETATM   14  C   UNL     1      39.699 -11.828   7.013  1.00  0.00     0.068 A 
HETATM   15  C   UNL     1      39.076 -12.877   6.340  1.00  0.00     0.037 A 
HETATM   16  C   UNL     1      39.710 -13.494   5.253  1.00  0.00     0.012 A 
BRANCH  14  17
HETATM   17  O   UNL     1      39.185 -11.136   8.075  1.00  0.00    -0.356 OA
HETATM   18  C   UNL     1      39.989 -10.090   8.605  1.00  0.00     0.210 C 
ENDBRANCH  14  17
ENDBRANCH   1  11
BRANCH   8  19
HETATM   19  C   UNL     1      43.449 -17.075   3.079  1.00  0.00    -0.031 A 
HETATM   20  C   UNL     1      43.457 -17.520   4.412  1.00  0.00     0.028 A 
HETATM   21  C   UNL     1      43.839 -18.827   4.716  1.00  0.00     0.011 A 
HETATM   22 BR   UNL     1      43.841 -19.407   6.515  1.00  0.00    -0.051 Br
HETATM   23  C   UNL     1      44.212 -19.710   3.706  1.00  0.00     0.019 A 
HETATM   24  C   UNL     1      44.207 -19.282   2.380  1.00  0.00     0.002 A 
HETATM   25  C   UNL     1      43.826 -17.976   2.068  1.00  0.00     0.009 A 
ENDBRANCH   8  19
BRANCH   6  26
HETATM   26  N   UNL     1      41.065 -16.010  -1.562  1.00  0.00    -0.229 N 
HETATM   27  H   UNL     1      41.309 -15.309  -2.247  1.00  0.00     0.174 HD
HETATM   28  H   UNL     1      41.249 -16.963  -1.845  1.00  0.00     0.174 HD
ENDBRANCH   6  26
TORSDOF 4
ENDMDL
MODEL 10
REMARK VINA RESULT:      -6.6      4.510      7.565
REMARK  4 active torsions:
REMARK  status: ('A' for Active; 'I' for Inactive)
REMARK    1  A    between atoms: O_2  and  C_3 
REMARK    2  A    between atoms: C_6  and  C_7 
REMARK    3  A    between atoms: C_12  and  N_13 
REMARK    4  A    between atoms: C_15  and  C_16 
ROOT
HETATM    1  C   UNL     1      41.720 -13.660   4.745  1.00  0.00     0.135 C 
HETATM    2  N   UNL     1      40.598 -14.217   3.997  1.00  0.00    -0.214 N 
HETATM    3  C   UNL     1      40.809 -15.350   3.296  1.00  0.00     0.736 A 
HETATM    4  N   UNL     1      41.837 -16.200   3.609  1.00  0.00    -0.074 N 
HETATM    5  N   UNL     1      41.935 -17.195   2.709  1.00  0.00     0.037 NA
HETATM    6  C   UNL     1      40.890 -16.931   1.930  1.00  0.00     0.753 A 
HETATM    7  N   UNL     1      40.169 -15.821   2.258  1.00  0.00     0.131 NA
HETATM    8  C   UNL     1      42.843 -15.922   4.630  1.00  0.00     0.164 C 
HETATM    9  C   UNL     1      42.392 -14.778   5.558  1.00  0.00     0.063 C 
HETATM   10  H   UNL     1      39.990 -13.530   3.554  1.00  0.00     0.178 HD
ENDROOT
BRANCH   1  11
HETATM   11  C   UNL     1      41.244 -12.542   5.653  1.00  0.00    -0.035 A 
HETATM   12  C   UNL     1      39.910 -12.109   5.645  1.00  0.00     0.012 A 
HETATM   13  C   UNL     1      39.481 -11.114   6.525  1.00  0.00     0.037 A 
HETATM   14  C   UNL     1      40.368 -10.535   7.434  1.00  0.00     0.068 A 
HETATM   15  C   UNL     1      41.699 -10.946   7.439  1.00  0.00     0.037 A 
HETATM   16  C   UNL     1      42.134 -11.943   6.557  1.00  0.00     0.012 A 
BRANCH  14  17
HETATM   17  O   UNL     1      39.815  -9.586   8.249  1.00  0.00    -0.356 OA
HETATM   18  C   UNL     1      38.792 -10.021   9.135  1.00  0.00     0.210 C 
ENDBRANCH  14  17
ENDBRANCH   1  11
BRANCH   8  19
HETATM   19  C   UNL     1      43.207 -17.155   5.446  1.00  0.00    -0.031 A 
HETATM   20  C   UNL     1      43.791 -18.265   4.811  1.00  0.00     0.028 A 
HETATM   21  C   UNL     1      44.160 -19.388   5.554  1.00  0.00     0.011 A 
HETATM   22 BR   UNL     1      44.945 -20.870   4.682  1.00  0.00    -0.051 Br
HETATM   23  C   UNL     1      43.959 -19.424   6.932  1.00  0.00     0.019 A 
HETATM   24  C   UNL     1      43.383 -18.330   7.573  1.00  0.00     0.002 A 
HETATM   25  C   UNL     1      43.011 -17.203   6.837  1.00  0.00     0.009 A 
ENDBRANCH   8  19
BRANCH   6  26
HETATM   26  N   UNL     1      40.502 -17.658   0.886  1.00  0.00    -0.229 N 
HETATM   27  H   UNL     1      40.403 -18.652   1.039  1.00  0.00     0.174 HD
HETATM   28  H   UNL     1      39.800 -17.247   0.287  1.00  0.00     0.174 HD
ENDBRANCH   6  26
TORSDOF 4
ENDMDL
