MODEL 1
REMARK VINA RESULT:      -8.9      0.000      0.000
REMARK  8 active torsions:
REMARK  status: ('A' for Active; 'I' for Inactive)
REMARK    1  A    between atoms: C_10  and  C_11 
REMARK    2  A    between atoms: C_11  and  C_12 
REMARK       I    between atoms: C_12  and  N_13 
REMARK    3  A    between atoms: N_13  and  N_14 
REMARK       I    between atoms: N_14  and  C_15 
REMARK    4  A    between atoms: C_15  and  C_16 
REMARK    5  A    between atoms: C_16  and  C_17 
REMARK    6  A    between atoms: C_17  and  C_18 
REMARK       I    between atoms: C_18  and  N_19 
REMARK    7  A    between atoms: N_19  and  C_20 
REMARK    8  A    between atoms: C_20  and  C_21 
ROOT
HETATM    1  C   UNL     1      42.033 -14.406   4.990  1.00  0.00     0.240 C 
HETATM    2  N   UNL     1      42.402 -14.420   6.322  1.00  0.00    -0.267 N 
HETATM    3  O   UNL     1      42.514 -13.606   4.188  1.00  0.00    -0.272 OA
HETATM    4  H   UNL     1      42.150 -15.169   6.966  1.00  0.00     0.190 HD
ENDROOT
BRANCH   2   5
HETATM    5  N   UNL     1      43.383 -13.518   6.742  1.00  0.00    -0.268 N 
HETATM    6  C   UNL     1      44.624 -14.006   7.085  1.00  0.00     0.236 C 
HETATM    7  O   UNL     1      44.969 -15.169   6.882  1.00  0.00    -0.272 OA
HETATM    8  H   UNL     1      43.057 -12.583   6.990  1.00  0.00     0.190 HD
BRANCH   6   9
HETATM    9  C   UNL     1      45.520 -12.961   7.715  1.00  0.00     0.114 C 
BRANCH   9  10
HETATM   10  C   UNL     1      45.253 -12.794   9.204  1.00  0.00     0.112 C 
BRANCH  10  11
HETATM   11  C   UNL     1      44.657 -11.434   9.489  1.00  0.00     0.218 C 
HETATM   12  N   UNL     1      43.315 -11.451   9.768  1.00  0.00    -0.355 N 
HETATM   13  H   UNL     1      42.880 -12.345   9.997  1.00  0.00     0.162 HD
HETATM   14  O   UNL     1      45.341 -10.415   9.496  1.00  0.00    -0.274 OA
BRANCH  12  15
HETATM   15  C   UNL     1      42.639 -10.251  10.202  1.00  0.00     0.187 C 
BRANCH  15  16
HETATM   16  C   UNL     1      42.524 -10.277  11.677  1.00  0.00     0.070 A 
HETATM   17  O   UNL     1      41.330 -10.693  12.192  1.00  0.00    -0.325 OA
HETATM   18  C   UNL     1      41.441 -10.634  13.544  1.00  0.00     0.142 A 
HETATM   19  C   UNL     1      42.688 -10.184  13.907  1.00  0.00     0.027 A 
HETATM   20  C   UNL     1      43.390  -9.951  12.701  1.00  0.00     0.036 A 
ENDBRANCH  15  16
ENDBRANCH  12  15
ENDBRANCH  10  11
ENDBRANCH   9  10
ENDBRANCH   6   9
ENDBRANCH   2   5
BRANCH   1  21
HETATM   21  C   UNL     1      40.962 -15.408   4.633  1.00  0.00     0.146 C 
BRANCH  21  22
HETATM   22  C   UNL     1      41.278 -16.362   3.519  1.00  0.00    -0.015 A 
HETATM   23  C   UNL     1      42.216 -17.454   3.461  1.00  0.00    -0.000 A 
HETATM   24  C   UNL     1      43.167 -18.014   4.346  1.00  0.00     0.021 A 
HETATM   25  C   UNL     1      42.085 -18.047   2.204  1.00  0.00     0.043 A 
HETATM   26  C   UNL     1      43.940 -19.124   3.960  1.00  0.00    -0.061 A 
HETATM   27  C   UNL     1      44.925 -19.732   4.917  1.00  0.00     0.048 C 
HETATM   28  C   UNL     1      43.756 -19.690   2.698  1.00  0.00     0.009 A 
HETATM   29  C   UNL     1      42.833 -19.158   1.797  1.00  0.00     0.031 A 
HETATM   30  N   UNL     1      41.130 -17.344   1.515  1.00  0.00    -0.359 N 
HETATM   31  H   UNL     1      40.842 -17.556   0.571  1.00  0.00     0.166 HD
HETATM   32  C   UNL     1      40.628 -16.332   2.288  1.00  0.00     0.013 A 
HETATM   33  C   UNL     1      39.566 -15.424   1.776  1.00  0.00     0.068 C 
ENDBRANCH  21  22
ENDBRANCH   1  21
TORSDOF 8
ENDMDL
MODEL 2
REMARK VINA RESULT:      -8.9      2.147      3.291
REMARK  8 active torsions:
REMARK  status: ('A' for Active; 'I' for Inactive)
REMARK    1  A    between atoms: C_10  and  C_11 
REMARK    2  A    between atoms: C_11  and  C_12 
REMARK       I    between atoms: C_12  and  N_13 
REMARK    3  A    between atoms: N_13  and  N_14 
REMARK       I    between atoms: N_14  and  C_15 
REMARK    4  A    between atoms: C_15  and  C_16 
REMARK    5  A    between atoms: C_16  and  C_17 
REMARK    6  A    between atoms: C_17  and  C_18 
REMARK       I    between atoms: C_18  and  N_19 
REMARK    7  A    between atoms: N_19  and  C_20 
REMARK    8  A    between atoms: C_20  and  C_21 
ROOT
HETATM    1  C   UNL     1      43.073 -16.750   7.674  1.00  0.00     0.240 C 
HETATM    2  N   UNL     1      43.246 -15.493   7.125  1.00  0.00    -0.267 N 
HETATM    3  O   UNL     1      43.572 -17.064   8.755  1.00  0.00    -0.272 OA
HETATM    4  H   UNL     1      42.713 -15.153   6.325  1.00  0.00     0.190 HD
ENDROOT
BRANCH   2   5
HETATM    5  N   UNL     1      43.978 -14.553   7.853  1.00  0.00    -0.268 N 
HETATM    6  C   UNL     1      44.834 -13.713   7.174  1.00  0.00     0.236 C 
HETATM    7  O   UNL     1      44.862 -13.631   5.947  1.00  0.00    -0.272 OA
HETATM    8  H   UNL     1      44.013 -14.695   8.863  1.00  0.00     0.190 HD
BRANCH   6   9
HETATM    9  C   UNL     1      45.713 -12.892   8.093  1.00  0.00     0.114 C 
BRANCH   9  10
HETATM   10  C   UNL     1      44.936 -11.799   8.811  1.00  0.00     0.112 C 
BRANCH  10  11
HETATM   11  C   UNL     1      44.808 -12.115  10.283  1.00  0.00     0.218 C 
HETATM   12  N   UNL     1      43.665 -11.635  10.869  1.00  0.00    -0.355 N 
HETATM   13  H   UNL     1      42.902 -11.331  10.263  1.00  0.00     0.162 HD
HETATM   14  O   UNL     1      45.654 -12.774  10.881  1.00  0.00    -0.274 OA
BRANCH  12  15
HETATM   15  C   UNL     1      43.335 -11.983  12.231  1.00  0.00     0.187 C 
BRANCH  15  16
HETATM   16  C   UNL     1      42.593 -10.858  12.842  1.00  0.00     0.070 A 
HETATM   17  O   UNL     1      41.696 -10.208  12.044  1.00  0.00    -0.325 OA
HETATM   18  C   UNL     1      41.141  -9.222  12.795  1.00  0.00     0.142 A 
HETATM   19  C   UNL     1      41.670  -9.226  14.064  1.00  0.00     0.027 A 
HETATM   20  C   UNL     1      42.610 -10.282  14.097  1.00  0.00     0.036 A 
ENDBRANCH  15  16
ENDBRANCH  12  15
ENDBRANCH  10  11
ENDBRANCH   9  10
ENDBRANCH   6   9
ENDBRANCH   2   5
BRANCH   1  21
HETATM   21  C   UNL     1      42.278 -17.700   6.812  1.00  0.00     0.146 C 
BRANCH  21  22
HETATM   22  C   UNL     1      43.062 -18.629   5.933  1.00  0.00    -0.015 A 
HETATM   23  C   UNL     1      43.320 -18.581   4.516  1.00  0.00    -0.000 A 
HETATM   24  C   UNL     1      42.948 -17.725   3.452  1.00  0.00     0.021 A 
HETATM   25  C   UNL     1      44.141 -19.666   4.207  1.00  0.00     0.043 A 
HETATM   26  C   UNL     1      43.398 -17.972   2.142  1.00  0.00    -0.061 A 
HETATM   27  C   UNL     1      43.024 -17.041   1.024  1.00  0.00     0.048 C 
HETATM   28  C   UNL     1      44.233 -19.062   1.891  1.00  0.00     0.009 A 
HETATM   29  C   UNL     1      44.612 -19.930   2.915  1.00  0.00     0.031 A 
HETATM   30  N   UNL     1      44.361 -20.360   5.369  1.00  0.00    -0.359 N 
HETATM   31  H   UNL     1      44.919 -21.199   5.431  1.00  0.00     0.166 HD
HETATM   32  C   UNL     1      43.728 -19.750   6.419  1.00  0.00     0.013 A 
HETATM   33  C   UNL     1      43.818 -20.300   7.798  1.00  0.00     0.068 C 
ENDBRANCH  21  22
ENDBRANCH   1  21
TORSDOF 8
ENDMDL
MODEL 3
REMARK VINA RESULT:      -8.8      4.707      7.131
REMARK  8 active torsions:
REMARK  status: ('A' for Active; 'I' for Inactive)
REMARK    1  A    between atoms: C_10  and  C_11 
REMARK    2  A    between atoms: C_11  and  C_12 
REMARK       I    between atoms: C_12  and  N_13 
REMARK    3  A    between atoms: N_13  and  N_14 
REMARK       I    between atoms: N_14  and  C_15 
REMARK    4  A    between atoms: C_15  and  C_16 
REMARK    5  A    between atoms: C_16  and  C_17 
REMARK    6  A    between atoms: C_17  and  C_18 
REMARK       I    between atoms: C_18  and  N_19 
REMARK    7  A    between atoms: N_19  and  C_20 
REMARK    8  A    between atoms: C_20  and  C_21 
ROOT
HETATM    1  C   UNL     1      42.362 -17.514   1.426  1.00  0.00     0.240 C 
HETATM    2  N   UNL     1      42.190 -16.741   0.293  1.00  0.00    -0.267 N 
HETATM    3  O   UNL     1      41.488 -17.613   2.287  1.00  0.00    -0.272 OA
HETATM    4  H   UNL     1      42.820 -16.773  -0.508  1.00  0.00     0.190 HD
ENDROOT
BRANCH   2   5
HETATM    5  N   UNL     1      40.965 -16.092   0.119  1.00  0.00    -0.268 N 
HETATM    6  C   UNL     1      40.964 -14.733  -0.102  1.00  0.00     0.236 C 
HETATM    7  O   UNL     1      41.987 -14.087  -0.324  1.00  0.00    -0.272 OA
HETATM    8  H   UNL     1      40.135 -16.619   0.395  1.00  0.00     0.190 HD
BRANCH   6   9
HETATM    9  C   UNL     1      39.577 -14.127  -0.066  1.00  0.00     0.114 C 
BRANCH   9  10
HETATM   10  C   UNL     1      38.722 -14.709   1.050  1.00  0.00     0.112 C 
BRANCH  10  11
HETATM   11  C   UNL     1      39.127 -14.132   2.388  1.00  0.00     0.218 C 
HETATM   12  N   UNL     1      39.678 -15.040   3.254  1.00  0.00    -0.355 N 
HETATM   13  H   UNL     1      39.991 -15.937   2.879  1.00  0.00     0.162 HD
HETATM   14  O   UNL     1      38.993 -12.939   2.647  1.00  0.00    -0.274 OA
BRANCH  12  15
HETATM   15  C   UNL     1      40.244 -14.609   4.510  1.00  0.00     0.187 C 
BRANCH  15  16
HETATM   16  C   UNL     1      41.681 -14.316   4.308  1.00  0.00     0.070 A 
HETATM   17  O   UNL     1      42.358 -13.799   5.374  1.00  0.00    -0.325 OA
HETATM   18  C   UNL     1      43.640 -13.604   4.971  1.00  0.00     0.142 A 
HETATM   19  C   UNL     1      43.797 -13.984   3.660  1.00  0.00     0.027 A 
HETATM   20  C   UNL     1      42.531 -14.445   3.228  1.00  0.00     0.036 A 
ENDBRANCH  15  16
ENDBRANCH  12  15
ENDBRANCH  10  11
ENDBRANCH   9  10
ENDBRANCH   6   9
ENDBRANCH   2   5
BRANCH   1  21
HETATM   21  C   UNL     1      43.718 -18.167   1.532  1.00  0.00     0.146 C 
BRANCH  21  22
HETATM   22  C   UNL     1      43.952 -19.043   2.728  1.00  0.00    -0.015 A 
HETATM   23  C   UNL     1      44.026 -18.714   4.128  1.00  0.00    -0.000 A 
HETATM   24  C   UNL     1      43.942 -17.524   4.890  1.00  0.00     0.021 A 
HETATM   25  C   UNL     1      44.220 -19.907   4.826  1.00  0.00     0.043 A 
HETATM   26  C   UNL     1      44.051 -17.560   6.292  1.00  0.00    -0.061 A 
HETATM   27  C   UNL     1      43.930 -16.297   7.095  1.00  0.00     0.048 C 
HETATM   28  C   UNL     1      44.227 -18.783   6.941  1.00  0.00     0.009 A 
HETATM   29  C   UNL     1      44.322 -19.974   6.220  1.00  0.00     0.031 A 
HETATM   30  N   UNL     1      44.285 -20.917   3.901  1.00  0.00    -0.359 N 
HETATM   31  H   UNL     1      44.428 -21.890   4.133  1.00  0.00     0.166 HD
HETATM   32  C   UNL     1      44.119 -20.422   2.636  1.00  0.00     0.013 A 
HETATM   33  C   UNL     1      44.137 -21.317   1.448  1.00  0.00     0.068 C 
ENDBRANCH  21  22
ENDBRANCH   1  21
TORSDOF 8
ENDMDL
MODEL 4
REMARK VINA RESULT:      -8.7      2.426      4.023
REMARK  8 active torsions:
REMARK  status: ('A' for Active; 'I' for Inactive)
REMARK    1  A    between atoms: C_10  and  C_11 
REMARK    2  A    between atoms: C_11  and  C_12 
REMARK       I    between atoms: C_12  and  N_13 
REMARK    3  A    between atoms: N_13  and  N_14 
REMARK       I    between atoms: N_14  and  C_15 
REMARK    4  A    between atoms: C_15  and  C_16 
REMARK    5  A    between atoms: C_16  and  C_17 
REMARK    6  A    between atoms: C_17  and  C_18 
REMARK       I    between atoms: C_18  and  N_19 
REMARK    7  A    between atoms: N_19  and  C_20 
REMARK    8  A    between atoms: C_20  and  C_21 
ROOT
HETATM    1  C   UNL     1      41.367 -15.927   6.197  1.00  0.00     0.240 C 
HETATM    2  N   UNL     1      40.122 -15.339   6.324  1.00  0.00    -0.267 N 
HETATM    3  O   UNL     1      42.407 -15.271   6.246  1.00  0.00    -0.272 OA
HETATM    4  H   UNL     1      39.262 -15.870   6.455  1.00  0.00     0.190 HD
ENDROOT
BRANCH   2   5
HETATM    5  N   UNL     1      40.067 -13.962   6.556  1.00  0.00    -0.268 N 
HETATM    6  C   UNL     1      39.828 -13.123   5.490  1.00  0.00     0.236 C 
HETATM    7  O   UNL     1      39.492 -13.528   4.378  1.00  0.00    -0.272 OA
HETATM    8  H   UNL     1      40.434 -13.643   7.453  1.00  0.00     0.190 HD
BRANCH   6   9
HETATM    9  C   UNL     1      39.999 -11.660   5.836  1.00  0.00     0.114 C 
BRANCH   9  10
HETATM   10  C   UNL     1      41.463 -11.256   5.932  1.00  0.00     0.112 C 
BRANCH  10  11
HETATM   11  C   UNL     1      41.712 -10.449   7.185  1.00  0.00     0.218 C 
HETATM   12  N   UNL     1      41.717 -11.184   8.342  1.00  0.00    -0.355 N 
HETATM   13  H   UNL     1      41.796 -12.199   8.269  1.00  0.00     0.162 HD
HETATM   14  O   UNL     1      41.921  -9.240   7.147  1.00  0.00    -0.274 OA
BRANCH  12  15
HETATM   15  C   UNL     1      42.085 -10.576   9.599  1.00  0.00     0.187 C 
BRANCH  15  16
HETATM   16  C   UNL     1      43.441 -11.038   9.971  1.00  0.00     0.070 A 
HETATM   17  O   UNL     1      44.474 -10.603   9.192  1.00  0.00    -0.325 OA
HETATM   18  C   UNL     1      45.610 -11.145   9.702  1.00  0.00     0.142 A 
HETATM   19  C   UNL     1      45.323 -11.924  10.797  1.00  0.00     0.027 A 
HETATM   20  C   UNL     1      43.921 -11.858  10.973  1.00  0.00     0.036 A 
ENDBRANCH  15  16
ENDBRANCH  12  15
ENDBRANCH  10  11
ENDBRANCH   9  10
ENDBRANCH   6   9
ENDBRANCH   2   5
BRANCH   1  21
HETATM   21  C   UNL     1      41.327 -17.414   5.940  1.00  0.00     0.146 C 
BRANCH  21  22
HETATM   22  C   UNL     1      42.371 -17.965   5.014  1.00  0.00    -0.015 A 
HETATM   23  C   UNL     1      42.546 -17.794   3.594  1.00  0.00    -0.000 A 
HETATM   24  C   UNL     1      41.848 -17.115   2.567  1.00  0.00     0.021 A 
HETATM   25  C   UNL     1      43.700 -18.489   3.231  1.00  0.00     0.043 A 
HETATM   26  C   UNL     1      42.314 -17.148   1.240  1.00  0.00    -0.061 A 
HETATM   27  C   UNL     1      41.585 -16.399   0.162  1.00  0.00     0.048 C 
HETATM   28  C   UNL     1      43.485 -17.844   0.935  1.00  0.00     0.009 A 
HETATM   29  C   UNL     1      44.193 -18.531   1.921  1.00  0.00     0.031 A 
HETATM   30  N   UNL     1      44.200 -19.076   4.366  1.00  0.00    -0.359 N 
HETATM   31  H   UNL     1      45.032 -19.649   4.388  1.00  0.00     0.166 HD
HETATM   32  C   UNL     1      43.421 -18.769   5.448  1.00  0.00     0.013 A 
HETATM   33  C   UNL     1      43.754 -19.275   6.807  1.00  0.00     0.068 C 
ENDBRANCH  21  22
ENDBRANCH   1  21
TORSDOF 8
ENDMDL
MODEL 5
REMARK VINA RESULT:      -8.7      2.347      4.099
REMARK  8 active torsions:
REMARK  status: ('A' for Active; 'I' for Inactive)
REMARK    1  A    between atoms: C_10  and  C_11 
REMARK    2  A    between atoms: C_11  and  C_12 
REMARK       I    between atoms: C_12  and  N_13 
REMARK    3  A    between atoms: N_13  and  N_14 
REMARK       I    between atoms: N_14  and  C_15 
REMARK    4  A    between atoms: C_15  and  C_16 
REMARK    5  A    between atoms: C_16  and  C_17 
REMARK    6  A    between atoms: C_17  and  C_18 
REMARK       I    between atoms: C_18  and  N_19 
REMARK    7  A    between atoms: N_19  and  C_20 
REMARK    8  A    between atoms: C_20  and  C_21 
ROOT
HETATM    1  C   UNL     1      42.095 -16.055   4.195  1.00  0.00     0.240 C 
HETATM    2  N   UNL     1      42.104 -14.673   4.220  1.00  0.00    -0.267 N 
HETATM    3  O   UNL     1      41.146 -16.710   4.626  1.00  0.00    -0.272 OA
HETATM    4  H   UNL     1      42.792 -14.108   3.723  1.00  0.00     0.190 HD
ENDROOT
BRANCH   2   5
HETATM    5  N   UNL     1      40.974 -14.017   4.717  1.00  0.00    -0.268 N 
HETATM    6  C   UNL     1      41.129 -13.145   5.771  1.00  0.00     0.236 C 
HETATM    7  O   UNL     1      42.228 -12.782   6.188  1.00  0.00    -0.272 OA
HETATM    8  H   UNL     1      40.072 -14.395   4.425  1.00  0.00     0.190 HD
BRANCH   6   9
HETATM    9  C   UNL     1      39.812 -12.666   6.343  1.00  0.00     0.114 C 
BRANCH   9  10
HETATM   10  C   UNL     1      39.849 -11.193   6.723  1.00  0.00     0.112 C 
BRANCH  10  11
HETATM   11  C   UNL     1      40.076 -11.032   8.209  1.00  0.00     0.218 C 
HETATM   12  N   UNL     1      41.394 -10.935   8.574  1.00  0.00    -0.355 N 
HETATM   13  H   UNL     1      42.083 -10.739   7.848  1.00  0.00     0.162 HD
HETATM   14  O   UNL     1      39.143 -10.965   9.004  1.00  0.00    -0.274 OA
BRANCH  12  15
HETATM   15  C   UNL     1      41.759 -10.633   9.938  1.00  0.00     0.187 C 
BRANCH  15  16
HETATM   16  C   UNL     1      43.208 -10.880  10.109  1.00  0.00     0.070 A 
HETATM   17  O   UNL     1      43.954 -10.968   8.969  1.00  0.00    -0.325 OA
HETATM   18  C   UNL     1      45.236 -11.200   9.353  1.00  0.00     0.142 A 
HETATM   19  C   UNL     1      45.325 -11.266  10.723  1.00  0.00     0.027 A 
HETATM   20  C   UNL     1      44.014 -11.060  11.214  1.00  0.00     0.036 A 
ENDBRANCH  15  16
ENDBRANCH  12  15
ENDBRANCH  10  11
ENDBRANCH   9  10
ENDBRANCH   6   9
ENDBRANCH   2   5
BRANCH   1  21
HETATM   21  C   UNL     1      43.360 -16.674   3.651  1.00  0.00     0.146 C 
BRANCH  21  22
HETATM   22  C   UNL     1      43.877 -17.888   4.366  1.00  0.00    -0.015 A 
HETATM   23  C   UNL     1      44.071 -19.237   3.898  1.00  0.00    -0.000 A 
HETATM   24  C   UNL     1      43.848 -19.923   2.681  1.00  0.00     0.021 A 
HETATM   25  C   UNL     1      44.616 -19.968   4.954  1.00  0.00     0.043 A 
HETATM   26  C   UNL     1      44.169 -21.287   2.557  1.00  0.00    -0.061 A 
HETATM   27  C   UNL     1      43.958 -22.001   1.253  1.00  0.00     0.048 C 
HETATM   28  C   UNL     1      44.729 -21.967   3.640  1.00  0.00     0.009 A 
HETATM   29  C   UNL     1      44.955 -21.323   4.857  1.00  0.00     0.031 A 
HETATM   30  N   UNL     1      44.732 -19.119   6.025  1.00  0.00    -0.359 N 
HETATM   31  H   UNL     1      45.093 -19.392   6.928  1.00  0.00     0.166 HD
HETATM   32  C   UNL     1      44.300 -17.863   5.692  1.00  0.00     0.013 A 
HETATM   33  C   UNL     1      44.332 -16.749   6.677  1.00  0.00     0.068 C 
ENDBRANCH  21  22
ENDBRANCH   1  21
TORSDOF 8
ENDMDL
MODEL 6
REMARK VINA RESULT:      -8.6      1.565      2.179
REMARK  8 active torsions:
REMARK  status: ('A' for Active; 'I' for Inactive)
REMARK    1  A    between atoms: C_10  and  C_11 
REMARK    2  A    between atoms: C_11  and  C_12 
REMARK       I    between atoms: C_12  and  N_13 
REMARK    3  A    between atoms: N_13  and  N_14 
REMARK       I    between atoms: N_14  and  C_15 
REMARK    4  A    between atoms: C_15  and  C_16 
REMARK    5  A    between atoms: C_16  and  C_17 
REMARK    6  A    between atoms: C_17  and  C_18 
REMARK       I    between atoms: C_18  and  N_19 
REMARK    7  A    between atoms: N_19  and  C_20 
REMARK    8  A    between atoms: C_20  and  C_21 
ROOT
HETATM    1  C   UNL     1      42.953 -16.788   7.363  1.00  0.00     0.240 C 
HETATM    2  N   UNL     1      43.080 -15.452   7.032  1.00  0.00    -0.267 N 
HETATM    3  O   UNL     1      43.577 -17.291   8.298  1.00  0.00    -0.272 OA
HETATM    4  H   UNL     1      42.458 -14.974   6.381  1.00  0.00     0.190 HD
ENDROOT
BRANCH   2   5
HETATM    5  N   UNL     1      43.915 -14.656   7.820  1.00  0.00    -0.268 N 
HETATM    6  C   UNL     1      44.473 -13.529   7.259  1.00  0.00     0.236 C 
HETATM    7  O   UNL     1      44.143 -13.092   6.158  1.00  0.00    -0.272 OA
HETATM    8  H   UNL     1      44.248 -15.077   8.689  1.00  0.00     0.190 HD
BRANCH   6   9
HETATM    9  C   UNL     1      45.513 -12.877   8.146  1.00  0.00     0.114 C 
BRANCH   9  10
HETATM   10  C   UNL     1      45.012 -12.672   9.568  1.00  0.00     0.112 C 
BRANCH  10  11
HETATM   11  C   UNL     1      43.934 -11.612   9.606  1.00  0.00     0.218 C 
HETATM   12  N   UNL     1      42.992 -11.797  10.584  1.00  0.00    -0.355 N 
HETATM   13  H   UNL     1      43.199 -12.455  11.337  1.00  0.00     0.162 HD
HETATM   14  O   UNL     1      43.936 -10.657   8.835  1.00  0.00    -0.274 OA
BRANCH  12  15
HETATM   15  C   UNL     1      41.986 -10.792  10.835  1.00  0.00     0.187 C 
BRANCH  15  16
HETATM   16  C   UNL     1      42.363 -10.036  12.051  1.00  0.00     0.070 A 
HETATM   17  O   UNL     1      41.575  -8.973  12.382  1.00  0.00    -0.325 OA
HETATM   18  C   UNL     1      42.099  -8.428  13.510  1.00  0.00     0.142 A 
HETATM   19  C   UNL     1      43.215  -9.124  13.909  1.00  0.00     0.027 A 
HETATM   20  C   UNL     1      43.389 -10.164  12.966  1.00  0.00     0.036 A 
ENDBRANCH  15  16
ENDBRANCH  12  15
ENDBRANCH  10  11
ENDBRANCH   9  10
ENDBRANCH   6   9
ENDBRANCH   2   5
BRANCH   1  21
HETATM   21  C   UNL     1      42.038 -17.568   6.451  1.00  0.00     0.146 C 
BRANCH  21  22
HETATM   22  C   UNL     1      42.571 -17.903   5.089  1.00  0.00    -0.015 A 
HETATM   23  C   UNL     1      43.366 -19.020   4.645  1.00  0.00    -0.000 A 
HETATM   24  C   UNL     1      43.948 -20.152   5.262  1.00  0.00     0.021 A 
HETATM   25  C   UNL     1      43.555 -18.873   3.270  1.00  0.00     0.043 A 
HETATM   26  C   UNL     1      44.683 -21.083   4.506  1.00  0.00    -0.061 A 
HETATM   27  C   UNL     1      45.271 -22.298   5.164  1.00  0.00     0.048 C 
HETATM   28  C   UNL     1      44.826 -20.899   3.130  1.00  0.00     0.009 A 
HETATM   29  C   UNL     1      44.272 -19.789   2.490  1.00  0.00     0.031 A 
HETATM   30  N   UNL     1      42.926 -17.715   2.889  1.00  0.00    -0.359 N 
HETATM   31  H   UNL     1      42.911 -17.363   1.943  1.00  0.00     0.166 HD
HETATM   32  C   UNL     1      42.323 -17.121   3.965  1.00  0.00     0.013 A 
HETATM   33  C   UNL     1      41.561 -15.852   3.818  1.00  0.00     0.068 C 
ENDBRANCH  21  22
ENDBRANCH   1  21
TORSDOF 8
ENDMDL
MODEL 7
REMARK VINA RESULT:      -8.4      1.806      2.383
REMARK  8 active torsions:
REMARK  status: ('A' for Active; 'I' for Inactive)
REMARK    1  A    between atoms: C_10  and  C_11 
REMARK    2  A    between atoms: C_11  and  C_12 
REMARK       I    between atoms: C_12  and  N_13 
REMARK    3  A    between atoms: N_13  and  N_14 
REMARK       I    between atoms: N_14  and  C_15 
REMARK    4  A    between atoms: C_15  and  C_16 
REMARK    5  A    between atoms: C_16  and  C_17 
REMARK    6  A    between atoms: C_17  and  C_18 
REMARK       I    between atoms: C_18  and  N_19 
REMARK    7  A    between atoms: N_19  and  C_20 
REMARK    8  A    between atoms: C_20  and  C_21 
ROOT
HETATM    1  C   UNL     1      41.523 -14.698   5.356  1.00  0.00     0.240 C 
HETATM    2  N   UNL     1      40.805 -13.936   6.258  1.00  0.00    -0.267 N 
HETATM    3  O   UNL     1      42.522 -14.264   4.784  1.00  0.00    -0.272 OA
HETATM    4  H   UNL     1      40.082 -14.320   6.867  1.00  0.00     0.190 HD
ENDROOT
BRANCH   2   5
HETATM    5  N   UNL     1      41.268 -12.650   6.547  1.00  0.00    -0.268 N 
HETATM    6  C   UNL     1      40.355 -11.620   6.615  1.00  0.00     0.236 C 
HETATM    7  O   UNL     1      39.138 -11.799   6.604  1.00  0.00    -0.272 OA
HETATM    8  H   UNL     1      42.274 -12.505   6.462  1.00  0.00     0.190 HD
BRANCH   6   9
HETATM    9  C   UNL     1      41.004 -10.258   6.726  1.00  0.00     0.114 C 
BRANCH   9  10
HETATM   10  C   UNL     1      40.959  -9.710   8.145  1.00  0.00     0.112 C 
BRANCH  10  11
HETATM   11  C   UNL     1      42.020 -10.362   9.002  1.00  0.00     0.218 C 
HETATM   12  N   UNL     1      41.630 -10.617  10.291  1.00  0.00    -0.355 N 
HETATM   13  H   UNL     1      40.634 -10.583  10.510  1.00  0.00     0.162 HD
HETATM   14  O   UNL     1      43.124 -10.658   8.553  1.00  0.00    -0.274 OA
BRANCH  12  15
HETATM   15  C   UNL     1      42.483 -11.366  11.183  1.00  0.00     0.187 C 
BRANCH  15  16
HETATM   16  C   UNL     1      42.613 -10.620  12.454  1.00  0.00     0.070 A 
HETATM   17  O   UNL     1      41.709 -10.914  13.434  1.00  0.00    -0.325 OA
HETATM   18  C   UNL     1      42.005 -10.121  14.496  1.00  0.00     0.142 A 
HETATM   19  C   UNL     1      43.084  -9.318  14.213  1.00  0.00     0.027 A 
HETATM   20  C   UNL     1      43.479  -9.638  12.893  1.00  0.00     0.036 A 
ENDBRANCH  15  16
ENDBRANCH  12  15
ENDBRANCH  10  11
ENDBRANCH   9  10
ENDBRANCH   6   9
ENDBRANCH   2   5
BRANCH   1  21
HETATM   21  C   UNL     1      40.943 -16.068   5.102  1.00  0.00     0.146 C 
BRANCH  21  22
HETATM   22  C   UNL     1      41.374 -16.758   3.841  1.00  0.00    -0.015 A 
HETATM   23  C   UNL     1      42.353 -17.794   3.629  1.00  0.00    -0.000 A 
HETATM   24  C   UNL     1      43.256 -18.510   4.450  1.00  0.00     0.021 A 
HETATM   25  C   UNL     1      42.336 -18.110   2.270  1.00  0.00     0.043 A 
HETATM   26  C   UNL     1      44.096 -19.497   3.903  1.00  0.00    -0.061 A 
HETATM   27  C   UNL     1      45.029 -20.274   4.786  1.00  0.00     0.048 C 
HETATM   28  C   UNL     1      44.026 -19.786   2.539  1.00  0.00     0.009 A 
HETATM   29  C   UNL     1      43.153 -19.094   1.699  1.00  0.00     0.031 A 
HETATM   30  N   UNL     1      41.410 -17.295   1.670  1.00  0.00    -0.359 N 
HETATM   31  H   UNL     1      41.199 -17.308   0.683  1.00  0.00     0.166 HD
HETATM   32  C   UNL     1      40.815 -16.481   2.596  1.00  0.00     0.013 A 
HETATM   33  C   UNL     1      39.762 -15.507   2.203  1.00  0.00     0.068 C 
ENDBRANCH  21  22
ENDBRANCH   1  21
TORSDOF 8
ENDMDL
MODEL 8
REMARK VINA RESULT:      -8.4      5.572      8.298
REMARK  8 active torsions:
REMARK  status: ('A' for Active; 'I' for Inactive)
REMARK    1  A    between atoms: C_10  and  C_11 
REMARK    2  A    between atoms: C_11  and  C_12 
REMARK       I    between atoms: C_12  and  N_13 
REMARK    3  A    between atoms: N_13  and  N_14 
REMARK       I    between atoms: N_14  and  C_15 
REMARK    4  A    between atoms: C_15  and  C_16 
REMARK    5  A    between atoms: C_16  and  C_17 
REMARK    6  A    between atoms: C_17  and  C_18 
REMARK       I    between atoms: C_18  and  N_19 
REMARK    7  A    between atoms: N_19  and  C_20 
REMARK    8  A    between atoms: C_20  and  C_21 
ROOT
HETATM    1  C   UNL     1      41.774 -16.583   1.113  1.00  0.00     0.240 C 
HETATM    2  N   UNL     1      40.775 -16.322   0.195  1.00  0.00    -0.267 N 
HETATM    3  O   UNL     1      42.967 -16.515   0.817  1.00  0.00    -0.272 OA
HETATM    4  H   UNL     1      39.795 -16.207   0.451  1.00  0.00     0.190 HD
ENDROOT
BRANCH   2   5
HETATM    5  N   UNL     1      41.151 -15.931  -1.093  1.00  0.00    -0.268 N 
HETATM    6  C   UNL     1      40.427 -14.939  -1.718  1.00  0.00     0.236 C 
HETATM    7  O   UNL     1      39.577 -14.263  -1.142  1.00  0.00    -0.272 OA
HETATM    8  H   UNL     1      41.790 -16.557  -1.584  1.00  0.00     0.190 HD
BRANCH   6   9
HETATM    9  C   UNL     1      40.804 -14.757  -3.173  1.00  0.00     0.114 C 
BRANCH   9  10
HETATM   10  C   UNL     1      41.030 -13.296  -3.532  1.00  0.00     0.112 C 
BRANCH  10  11
HETATM   11  C   UNL     1      42.055 -12.673  -2.612  1.00  0.00     0.218 C 
HETATM   12  N   UNL     1      41.541 -11.763  -1.725  1.00  0.00    -0.355 N 
HETATM   13  H   UNL     1      40.531 -11.747  -1.579  1.00  0.00     0.162 HD
HETATM   14  O   UNL     1      43.240 -12.991  -2.652  1.00  0.00    -0.274 OA
BRANCH  12  15
HETATM   15  C   UNL     1      42.372 -11.196  -0.690  1.00  0.00     0.187 C 
BRANCH  15  16
HETATM   16  C   UNL     1      41.929 -11.726   0.619  1.00  0.00     0.070 A 
HETATM   17  O   UNL     1      41.251 -10.866   1.433  1.00  0.00    -0.325 OA
HETATM   18  C   UNL     1      40.950 -11.549   2.567  1.00  0.00     0.142 A 
HETATM   19  C   UNL     1      41.428 -12.836   2.498  1.00  0.00     0.027 A 
HETATM   20  C   UNL     1      42.063 -12.953   1.239  1.00  0.00     0.036 A 
ENDBRANCH  15  16
ENDBRANCH  12  15
ENDBRANCH  10  11
ENDBRANCH   9  10
ENDBRANCH   6   9
ENDBRANCH   2   5
BRANCH   1  21
HETATM   21  C   UNL     1      41.273 -17.008   2.472  1.00  0.00     0.146 C 
BRANCH  21  22
HETATM   22  C   UNL     1      42.291 -17.571   3.419  1.00  0.00    -0.015 A 
HETATM   23  C   UNL     1      43.096 -18.763   3.326  1.00  0.00    -0.000 A 
HETATM   24  C   UNL     1      43.229 -19.820   2.395  1.00  0.00     0.021 A 
HETATM   25  C   UNL     1      43.911 -18.802   4.458  1.00  0.00     0.043 A 
HETATM   26  C   UNL     1      44.150 -20.860   2.615  1.00  0.00    -0.061 A 
HETATM   27  C   UNL     1      44.307 -21.961   1.607  1.00  0.00     0.048 C 
HETATM   28  C   UNL     1      44.955 -20.841   3.756  1.00  0.00     0.009 A 
HETATM   29  C   UNL     1      44.844 -19.818   4.699  1.00  0.00     0.031 A 
HETATM   30  N   UNL     1      43.609 -17.703   5.221  1.00  0.00    -0.359 N 
HETATM   31  H   UNL     1      44.050 -17.488   6.104  1.00  0.00     0.166 HD
HETATM   32  C   UNL     1      42.645 -16.947   4.612  1.00  0.00     0.013 A 
HETATM   33  C   UNL     1      42.145 -15.689   5.231  1.00  0.00     0.068 C 
ENDBRANCH  21  22
ENDBRANCH   1  21
TORSDOF 8
ENDMDL
MODEL 9
REMARK VINA RESULT:      -8.4      2.613      4.106
REMARK  8 active torsions:
REMARK  status: ('A' for Active; 'I' for Inactive)
REMARK    1  A    between atoms: C_10  and  C_11 
REMARK    2  A    between atoms: C_11  and  C_12 
REMARK       I    between atoms: C_12  and  N_13 
REMARK    3  A    between atoms: N_13  and  N_14 
REMARK       I    between atoms: N_14  and  C_15 
REMARK    4  A    between atoms: C_15  and  C_16 
REMARK    5  A    between atoms: C_16  and  C_17 
REMARK    6  A    between atoms: C_17  and  C_18 
REMARK       I    between atoms: C_18  and  N_19 
REMARK    7  A    between atoms: N_19  and  C_20 
REMARK    8  A    between atoms: C_20  and  C_21 
ROOT
HETATM    1  C   UNL     1      42.590 -15.766   6.485  1.00  0.00     0.240 C 
HETATM    2  N   UNL     1      42.611 -14.386   6.409  1.00  0.00    -0.267 N 
HETATM    3  O   UNL     1      41.537 -16.401   6.539  1.00  0.00    -0.272 OA
HETATM    4  H   UNL     1      43.450 -13.848   6.196  1.00  0.00     0.190 HD
ENDROOT
BRANCH   2   5
HETATM    5  N   UNL     1      41.388 -13.712   6.353  1.00  0.00    -0.268 N 
HETATM    6  C   UNL     1      41.285 -12.598   5.549  1.00  0.00     0.236 C 
HETATM    7  O   UNL     1      42.158 -12.263   4.750  1.00  0.00    -0.272 OA
HETATM    8  H   UNL     1      40.713 -13.945   7.083  1.00  0.00     0.190 HD
BRANCH   6   9
HETATM    9  C   UNL     1      39.983 -11.849   5.738  1.00  0.00     0.114 C 
BRANCH   9  10
HETATM   10  C   UNL     1      39.277 -12.234   7.030  1.00  0.00     0.112 C 
BRANCH  10  11
HETATM   11  C   UNL     1      39.402 -11.130   8.055  1.00  0.00     0.218 C 
HETATM   12  N   UNL     1      40.105 -11.477   9.180  1.00  0.00    -0.355 N 
HETATM   13  H   UNL     1      40.677 -12.322   9.150  1.00  0.00     0.162 HD
HETATM   14  O   UNL     1      38.931 -10.012   7.865  1.00  0.00    -0.274 OA
BRANCH  12  15
HETATM   15  C   UNL     1      40.431 -10.486  10.178  1.00  0.00     0.187 C 
BRANCH  15  16
HETATM   16  C   UNL     1      41.794 -10.754  10.687  1.00  0.00     0.070 A 
HETATM   17  O   UNL     1      41.887 -11.332  11.919  1.00  0.00    -0.325 OA
HETATM   18  C   UNL     1      43.210 -11.480  12.188  1.00  0.00     0.142 A 
HETATM   19  C   UNL     1      43.971 -11.002  11.147  1.00  0.00     0.027 A 
HETATM   20  C   UNL     1      43.057 -10.531  10.175  1.00  0.00     0.036 A 
ENDBRANCH  15  16
ENDBRANCH  12  15
ENDBRANCH  10  11
ENDBRANCH   9  10
ENDBRANCH   6   9
ENDBRANCH   2   5
BRANCH   1  21
HETATM   21  C   UNL     1      43.957 -16.404   6.551  1.00  0.00     0.146 C 
BRANCH  21  22
HETATM   22  C   UNL     1      44.080 -17.791   5.991  1.00  0.00    -0.015 A 
HETATM   23  C   UNL     1      44.043 -18.256   4.628  1.00  0.00    -0.000 A 
HETATM   24  C   UNL     1      43.863 -17.652   3.361  1.00  0.00     0.021 A 
HETATM   25  C   UNL     1      44.246 -19.636   4.655  1.00  0.00     0.043 A 
HETATM   26  C   UNL     1      43.893 -18.425   2.187  1.00  0.00    -0.061 A 
HETATM   27  C   UNL     1      43.733 -17.772   0.844  1.00  0.00     0.048 C 
HETATM   28  C   UNL     1      44.118 -19.800   2.269  1.00  0.00     0.009 A 
HETATM   29  C   UNL     1      44.291 -20.430   3.502  1.00  0.00     0.031 A 
HETATM   30  N   UNL     1      44.380 -20.006   5.969  1.00  0.00    -0.359 N 
HETATM   31  H   UNL     1      44.530 -20.957   6.277  1.00  0.00     0.166 HD
HETATM   32  C   UNL     1      44.290 -18.913   6.787  1.00  0.00     0.013 A 
HETATM   33  C   UNL     1      44.414 -19.042   8.264  1.00  0.00     0.068 C 
ENDBRANCH  21  22
ENDBRANCH   1  21
TORSDOF 8
ENDMDL
MODEL 10
REMARK VINA RESULT:      -8.3      2.044      3.326
REMARK  8 active torsions:
REMARK  status: ('A' for Active; 'I' for Inactive)
REMARK    1  A    between atoms: C_10  and  C_11 
REMARK    2  A    between atoms: C_11  and  C_12 
REMARK       I    between atoms: C_12  and  N_13 
REMARK    3  A    between atoms: N_13  and  N_14 
REMARK       I    between atoms: N_14  and  C_15 
REMARK    4  A    between atoms: C_15  and  C_16 
REMARK    5  A    between atoms: C_16  and  C_17 
REMARK    6  A    between atoms: C_17  and  C_18 
REMARK       I    between atoms: C_18  and  N_19 
REMARK    7  A    between atoms: N_19  and  C_20 
REMARK    8  A    between atoms: C_20  and  C_21 
ROOT
HETATM    1  C   UNL     1      41.267 -15.436   5.929  1.00  0.00     0.240 C 
HETATM    2  N   UNL     1      40.248 -14.521   6.112  1.00  0.00    -0.267 N 
HETATM    3  O   UNL     1      42.443 -15.160   6.165  1.00  0.00    -0.272 OA
HETATM    4  H   UNL     1      39.259 -14.770   6.086  1.00  0.00     0.190 HD
ENDROOT
BRANCH   2   5
HETATM    5  N   UNL     1      40.578 -13.263   6.621  1.00  0.00    -0.268 N 
HETATM    6  C   UNL     1      39.740 -12.203   6.353  1.00  0.00     0.236 C 
HETATM    7  O   UNL     1      38.632 -12.335   5.836  1.00  0.00    -0.272 OA
HETATM    8  H   UNL     1      41.533 -13.153   6.963  1.00  0.00     0.190 HD
BRANCH   6   9
HETATM    9  C   UNL     1      40.315 -10.869   6.781  1.00  0.00     0.114 C 
BRANCH   9  10
HETATM   10  C   UNL     1      39.470 -10.193   7.851  1.00  0.00     0.112 C 
BRANCH  10  11
HETATM   11  C   UNL     1      40.173 -10.233   9.189  1.00  0.00     0.218 C 
HETATM   12  N   UNL     1      41.467  -9.781   9.163  1.00  0.00    -0.355 N 
HETATM   13  H   UNL     1      41.776  -9.246   8.350  1.00  0.00     0.162 HD
HETATM   14  O   UNL     1      39.606 -10.614  10.208  1.00  0.00    -0.274 OA
BRANCH  12  15
HETATM   15  C   UNL     1      42.215  -9.623  10.388  1.00  0.00     0.187 C 
BRANCH  15  16
HETATM   16  C   UNL     1      43.464 -10.411  10.287  1.00  0.00     0.070 A 
HETATM   17  O   UNL     1      43.825 -10.832   9.040  1.00  0.00    -0.325 OA
HETATM   18  C   UNL     1      44.981 -11.532   9.178  1.00  0.00     0.142 A 
HETATM   19  C   UNL     1      45.367 -11.570  10.497  1.00  0.00     0.027 A 
HETATM   20  C   UNL     1      44.387 -10.847  11.216  1.00  0.00     0.036 A 
ENDBRANCH  15  16
ENDBRANCH  12  15
ENDBRANCH  10  11
ENDBRANCH   9  10
ENDBRANCH   6   9
ENDBRANCH   2   5
BRANCH   1  21
HETATM   21  C   UNL     1      40.816 -16.763   5.367  1.00  0.00     0.146 C 
BRANCH  21  22
HETATM   22  C   UNL     1      41.424 -17.183   4.061  1.00  0.00    -0.015 A 
HETATM   23  C   UNL     1      42.474 -18.129   3.779  1.00  0.00    -0.000 A 
HETATM   24  C   UNL     1      43.313 -18.964   4.555  1.00  0.00     0.021 A 
HETATM   25  C   UNL     1      42.630 -18.176   2.394  1.00  0.00     0.043 A 
HETATM   26  C   UNL     1      44.260 -19.801   3.938  1.00  0.00    -0.061 A 
HETATM   27  C   UNL     1      45.125 -20.707   4.766  1.00  0.00     0.048 C 
HETATM   28  C   UNL     1      44.362 -19.823   2.546  1.00  0.00     0.009 A 
HETATM   29  C   UNL     1      43.556 -19.007   1.752  1.00  0.00     0.031 A 
HETATM   30  N   UNL     1      41.737 -17.288   1.849  1.00  0.00    -0.359 N 
HETATM   31  H   UNL     1      41.642 -17.116   0.859  1.00  0.00     0.166 HD
HETATM   32  C   UNL     1      40.999 -16.686   2.832  1.00  0.00     0.013 A 
HETATM   33  C   UNL     1      39.948 -15.685   2.504  1.00  0.00     0.068 C 
ENDBRANCH  21  22
ENDBRANCH   1  21
TORSDOF 8
ENDMDL
