MODEL 1
REMARK VINA RESULT:     -10.3      0.000      0.000
REMARK  7 active torsions:
REMARK  status: ('A' for Active; 'I' for Inactive)
REMARK    1  A    between atoms: C_4  and  N_5 
REMARK    2  A    between atoms: C_11  and  C_12 
REMARK    3  A    between atoms: C_12  and  C_13 
REMARK    4  A    between atoms: C_13  and  C_14 
REMARK       I    between atoms: C_14  and  N_15 
REMARK    5  A    between atoms: N_15  and  C_16 
REMARK    6  A    between atoms: N_19  and  C_21 
REMARK    7  A    between atoms: C_21  and  C_22 
ROOT
HETATM    1  C   UNL     1      40.002 -14.575   5.593  1.00  0.00     0.110 C 
ENDROOT
BRANCH   1   2
HETATM    2  C   UNL     1      40.986 -15.076   4.551  1.00  0.00     0.088 C 
BRANCH   2   3
HETATM    3  C   UNL     1      42.154 -15.790   5.183  1.00  0.00     0.109 A 
HETATM    4  N   UNL     1      42.668 -16.821   4.573  1.00  0.00    -0.215 NA
HETATM    5  C   UNL     1      43.705 -17.392   5.253  1.00  0.00     0.170 A 
HETATM    6  N   UNL     1      44.397 -18.569   4.953  1.00  0.00    -0.215 N 
HETATM    7  C   UNL     1      44.258 -16.923   6.425  1.00  0.00     0.099 A 
HETATM    8  N   UNL     1      45.435 -18.753   5.829  1.00  0.00    -0.177 NA
HETATM    9  C   UNL     1      45.311 -17.777   6.730  1.00  0.00     0.160 A 
HETATM   10  C   UNL     1      43.705 -15.763   7.055  1.00  0.00     0.262 A 
HETATM   11  N   UNL     1      42.618 -15.259   6.368  1.00  0.00    -0.311 N 
HETATM   12  O   UNL     1      44.129 -15.259   8.085  1.00  0.00    -0.267 OA
HETATM   13  H   UNL     1      42.185 -14.454   6.800  1.00  0.00     0.170 HD
BRANCH   6  14
HETATM   14  C   UNL     1      44.157 -19.538   3.931  1.00  0.00     0.060 A 
HETATM   15  C   UNL     1      43.454 -19.150   2.778  1.00  0.00     0.031 A 
HETATM   16  C   UNL     1      43.229 -20.060   1.742  1.00  0.00     0.002 A 
HETATM   17  C   UNL     1      43.705 -21.364   1.845  1.00  0.00     0.000 A 
HETATM   18  C   UNL     1      44.406 -21.759   2.983  1.00  0.00     0.002 A 
HETATM   19  C   UNL     1      44.635 -20.852   4.023  1.00  0.00     0.031 A 
ENDBRANCH   6  14
ENDBRANCH   2   3
ENDBRANCH   1   2
BRANCH   1  20
HETATM   20  C   UNL     1      39.820 -13.072   5.751  1.00  0.00     0.218 C 
HETATM   21  N   UNL     1      40.396 -12.473   6.851  1.00  0.00    -0.356 N 
HETATM   22  H   UNL     1      40.421 -13.064   7.681  1.00  0.00     0.162 HD
HETATM   23  O   UNL     1      39.318 -12.429   4.833  1.00  0.00    -0.274 OA
BRANCH  21  24
HETATM   24  C   UNL     1      40.316 -11.035   7.167  1.00  0.00     0.087 C 
HETATM   25  C   UNL     1      41.637 -10.268   7.285  1.00  0.00     0.053 C 
HETATM   26  C   UNL     1      42.513 -10.823   8.393  1.00  0.00     0.237 C 
HETATM   27  N   UNL     1      41.776 -10.765   9.719  1.00  0.00    -0.067 N 
HETATM   28  H   UNL     1      41.677  -9.770   9.958  1.00  0.00     0.280 HD
HETATM   29  C   UNL     1      40.397 -11.386   9.664  1.00  0.00     0.237 C 
HETATM   30  C   UNL     1      39.575 -10.854   8.495  1.00  0.00     0.053 C 
BRANCH  27  31
HETATM   31  C   UNL     1      42.575 -11.402  10.846  1.00  0.00     0.273 C 
BRANCH  31  32
HETATM   32  C   UNL     1      42.450 -10.721  12.182  1.00  0.00    -0.033 A 
HETATM   33  C   UNL     1      41.407 -11.045  13.062  1.00  0.00     0.010 A 
HETATM   34  C   UNL     1      41.303 -10.400  14.299  1.00  0.00     0.024 A 
HETATM   35  C   UNL     1      42.232  -9.426  14.661  1.00  0.00     0.034 A 
HETATM   36 CL   UNL     1      42.098  -8.636  16.181  1.00  0.00    -0.084 Cl
HETATM   37  C   UNL     1      43.269  -9.091  13.795  1.00  0.00     0.024 A 
HETATM   38  C   UNL     1      43.380  -9.737  12.562  1.00  0.00     0.010 A 
ENDBRANCH  31  32
ENDBRANCH  27  31
ENDBRANCH  21  24
ENDBRANCH   1  20
TORSDOF 7
ENDMDL
MODEL 2
REMARK VINA RESULT:     -10.1      4.049      9.546
REMARK  7 active torsions:
REMARK  status: ('A' for Active; 'I' for Inactive)
REMARK    1  A    between atoms: C_4  and  N_5 
REMARK    2  A    between atoms: C_11  and  C_12 
REMARK    3  A    between atoms: C_12  and  C_13 
REMARK    4  A    between atoms: C_13  and  C_14 
REMARK       I    between atoms: C_14  and  N_15 
REMARK    5  A    between atoms: N_15  and  C_16 
REMARK    6  A    between atoms: N_19  and  C_21 
REMARK    7  A    between atoms: C_21  and  C_22 
ROOT
HETATM    1  C   UNL     1      39.324 -12.245   8.058  1.00  0.00     0.110 C 
ENDROOT
BRANCH   1   2
HETATM    2  C   UNL     1      39.280 -10.867   8.691  1.00  0.00     0.088 C 
BRANCH   2   3
HETATM    3  C   UNL     1      40.343 -10.702   9.746  1.00  0.00     0.109 A 
HETATM    4  N   UNL     1      41.590 -10.899   9.422  1.00  0.00    -0.215 NA
HETATM    5  C   UNL     1      42.455 -10.738  10.466  1.00  0.00     0.170 A 
HETATM    6  N   UNL     1      43.829 -10.988  10.502  1.00  0.00    -0.215 N 
HETATM    7  C   UNL     1      42.117 -10.326  11.737  1.00  0.00     0.099 A 
HETATM    8  N   UNL     1      44.354 -10.612  11.711  1.00  0.00    -0.177 NA
HETATM    9  C   UNL     1      43.306 -10.255  12.454  1.00  0.00     0.160 A 
HETATM   10  C   UNL     1      40.746 -10.073  12.059  1.00  0.00     0.262 A 
HETATM   11  N   UNL     1      39.902 -10.311  10.993  1.00  0.00    -0.311 N 
HETATM   12  O   UNL     1      40.344  -9.690  13.149  1.00  0.00    -0.267 OA
HETATM   13  H   UNL     1      38.921 -10.168  11.194  1.00  0.00     0.170 HD
BRANCH   6  14
HETATM   14  C   UNL     1      44.683 -11.562   9.511  1.00  0.00     0.060 A 
HETATM   15  C   UNL     1      45.959 -11.008   9.310  1.00  0.00     0.031 A 
HETATM   16  C   UNL     1      46.835 -11.562   8.374  1.00  0.00     0.002 A 
HETATM   17  C   UNL     1      46.449 -12.673   7.631  1.00  0.00     0.000 A 
HETATM   18  C   UNL     1      45.187 -13.233   7.823  1.00  0.00     0.002 A 
HETATM   19  C   UNL     1      44.305 -12.683   8.760  1.00  0.00     0.031 A 
ENDBRANCH   6  14
ENDBRANCH   2   3
ENDBRANCH   1   2
BRANCH   1  20
HETATM   20  C   UNL     1      39.549 -12.344   6.556  1.00  0.00     0.218 C 
HETATM   21  N   UNL     1      40.683 -12.997   6.123  1.00  0.00    -0.356 N 
HETATM   22  H   UNL     1      41.486 -12.893   6.743  1.00  0.00     0.162 HD
HETATM   23  O   UNL     1      38.655 -11.992   5.790  1.00  0.00    -0.274 OA
BRANCH  21  24
HETATM   24  C   UNL     1      41.064 -13.181   4.711  1.00  0.00     0.087 C 
HETATM   25  C   UNL     1      40.490 -14.399   3.981  1.00  0.00     0.053 C 
HETATM   26  C   UNL     1      40.919 -15.701   4.634  1.00  0.00     0.237 C 
HETATM   27  N   UNL     1      42.434 -15.796   4.658  1.00  0.00    -0.067 N 
HETATM   28  H   UNL     1      42.739 -15.898   3.681  1.00  0.00     0.280 HD
HETATM   29  C   UNL     1      43.101 -14.571   5.245  1.00  0.00     0.237 C 
HETATM   30  C   UNL     1      42.590 -13.281   4.612  1.00  0.00     0.053 C 
BRANCH  27  31
HETATM   31  C   UNL     1      42.918 -17.039   5.392  1.00  0.00     0.273 C 
BRANCH  31  32
HETATM   32  C   UNL     1      43.342 -18.179   4.506  1.00  0.00    -0.033 A 
HETATM   33  C   UNL     1      42.893 -18.268   3.180  1.00  0.00     0.010 A 
HETATM   34  C   UNL     1      43.295 -19.335   2.370  1.00  0.00     0.024 A 
HETATM   35  C   UNL     1      44.137 -20.322   2.880  1.00  0.00     0.034 A 
HETATM   36 CL   UNL     1      44.626 -21.631   1.880  1.00  0.00    -0.084 Cl
HETATM   37  C   UNL     1      44.586 -20.249   4.195  1.00  0.00     0.024 A 
HETATM   38  C   UNL     1      44.193 -19.181   5.005  1.00  0.00     0.010 A 
ENDBRANCH  31  32
ENDBRANCH  27  31
ENDBRANCH  21  24
ENDBRANCH   1  20
TORSDOF 7
ENDMDL
MODEL 3
REMARK VINA RESULT:      -9.9      4.038     10.359
REMARK  7 active torsions:
REMARK  status: ('A' for Active; 'I' for Inactive)
REMARK    1  A    between atoms: C_4  and  N_5 
REMARK    2  A    between atoms: C_11  and  C_12 
REMARK    3  A    between atoms: C_12  and  C_13 
REMARK    4  A    between atoms: C_13  and  C_14 
REMARK       I    between atoms: C_14  and  N_15 
REMARK    5  A    between atoms: N_15  and  C_16 
REMARK    6  A    between atoms: N_19  and  C_21 
REMARK    7  A    between atoms: C_21  and  C_22 
ROOT
HETATM    1  C   UNL     1      39.789 -12.118   6.983  1.00  0.00     0.110 C 
ENDROOT
BRANCH   1   2
HETATM    2  C   UNL     1      39.152 -10.784   7.326  1.00  0.00     0.088 C 
BRANCH   2   3
HETATM    3  C   UNL     1      39.376 -10.413   8.769  1.00  0.00     0.109 A 
HETATM    4  N   UNL     1      40.581 -10.490   9.262  1.00  0.00    -0.215 NA
HETATM    5  C   UNL     1      40.652 -10.147  10.581  1.00  0.00     0.170 A 
HETATM    6  N   UNL     1      41.748 -10.233  11.443  1.00  0.00    -0.215 N 
HETATM    7  C   UNL     1      39.610  -9.673  11.348  1.00  0.00     0.099 A 
HETATM    8  N   UNL     1      41.439  -9.701  12.668  1.00  0.00    -0.177 NA
HETATM    9  C   UNL     1      40.140  -9.408  12.606  1.00  0.00     0.160 A 
HETATM   10  C   UNL     1      38.304  -9.554  10.776  1.00  0.00     0.262 A 
HETATM   11  N   UNL     1      38.266  -9.974   9.461  1.00  0.00    -0.311 N 
HETATM   12  O   UNL     1      37.319  -9.133  11.364  1.00  0.00    -0.267 OA
HETATM   13  H   UNL     1      37.351  -9.929   9.032  1.00  0.00     0.170 HD
BRANCH   6  14
HETATM   14  C   UNL     1      43.048 -10.783  11.221  1.00  0.00     0.060 A 
HETATM   15  C   UNL     1      43.368 -12.023  11.800  1.00  0.00     0.031 A 
HETATM   16  C   UNL     1      44.616 -12.610  11.579  1.00  0.00     0.002 A 
HETATM   17  C   UNL     1      45.555 -11.968  10.777  1.00  0.00     0.000 A 
HETATM   18  C   UNL     1      45.248 -10.740  10.196  1.00  0.00     0.002 A 
HETATM   19  C   UNL     1      43.999 -10.147  10.413  1.00  0.00     0.031 A 
ENDBRANCH   6  14
ENDBRANCH   2   3
ENDBRANCH   1   2
BRANCH   1  20
HETATM   20  C   UNL     1      41.067 -12.117   6.158  1.00  0.00     0.218 C 
HETATM   21  N   UNL     1      41.889 -13.220   6.256  1.00  0.00    -0.356 N 
HETATM   22  H   UNL     1      41.888 -13.660   7.176  1.00  0.00     0.162 HD
HETATM   23  O   UNL     1      41.244 -11.232   5.326  1.00  0.00    -0.274 OA
BRANCH  21  24
HETATM   24  C   UNL     1      43.166 -13.387   5.537  1.00  0.00     0.087 C 
HETATM   25  C   UNL     1      43.122 -14.110   4.187  1.00  0.00     0.053 C 
HETATM   26  C   UNL     1      42.607 -15.531   4.325  1.00  0.00     0.237 C 
HETATM   27  N   UNL     1      43.486 -16.312   5.286  1.00  0.00    -0.067 N 
HETATM   28  H   UNL     1      44.398 -16.424   4.827  1.00  0.00     0.280 HD
HETATM   29  C   UNL     1      43.696 -15.609   6.610  1.00  0.00     0.237 C 
HETATM   30  C   UNL     1      44.144 -14.163   6.425  1.00  0.00     0.053 C 
BRANCH  27  31
HETATM   31  C   UNL     1      42.953 -17.716   5.536  1.00  0.00     0.273 C 
BRANCH  31  32
HETATM   32  C   UNL     1      43.403 -18.754   4.544  1.00  0.00    -0.033 A 
HETATM   33  C   UNL     1      42.916 -18.755   3.229  1.00  0.00     0.010 A 
HETATM   34  C   UNL     1      43.341 -19.729   2.319  1.00  0.00     0.024 A 
HETATM   35  C   UNL     1      44.247 -20.710   2.719  1.00  0.00     0.034 A 
HETATM   36 CL   UNL     1      44.766 -21.905   1.598  1.00  0.00    -0.084 Cl
HETATM   37  C   UNL     1      44.735 -20.725   4.023  1.00  0.00     0.024 A 
HETATM   38  C   UNL     1      44.317 -19.750   4.931  1.00  0.00     0.010 A 
ENDBRANCH  31  32
ENDBRANCH  27  31
ENDBRANCH  21  24
ENDBRANCH   1  20
TORSDOF 7
ENDMDL
MODEL 4
REMARK VINA RESULT:      -9.8      6.242     10.234
REMARK  7 active torsions:
REMARK  status: ('A' for Active; 'I' for Inactive)
REMARK    1  A    between atoms: C_4  and  N_5 
REMARK    2  A    between atoms: C_11  and  C_12 
REMARK    3  A    between atoms: C_12  and  C_13 
REMARK    4  A    between atoms: C_13  and  C_14 
REMARK       I    between atoms: C_14  and  N_15 
REMARK    5  A    between atoms: N_15  and  C_16 
REMARK    6  A    between atoms: N_19  and  C_21 
REMARK    7  A    between atoms: C_21  and  C_22 
ROOT
HETATM    1  C   UNL     1      40.157 -15.910   1.627  1.00  0.00     0.110 C 
ENDROOT
BRANCH   1   2
HETATM    2  C   UNL     1      41.442 -15.950   0.820  1.00  0.00     0.088 C 
BRANCH   2   3
HETATM    3  C   UNL     1      41.305 -15.208  -0.485  1.00  0.00     0.109 A 
HETATM    4  N   UNL     1      41.731 -13.979  -0.560  1.00  0.00    -0.215 NA
HETATM    5  C   UNL     1      41.535 -13.410  -1.786  1.00  0.00     0.170 A 
HETATM    6  N   UNL     1      41.757 -12.086  -2.175  1.00  0.00    -0.215 N 
HETATM    7  C   UNL     1      41.024 -14.044  -2.897  1.00  0.00     0.099 A 
HETATM    8  N   UNL     1      41.525 -11.934  -3.517  1.00  0.00    -0.177 NA
HETATM    9  C   UNL     1      41.047 -13.110  -3.926  1.00  0.00     0.160 A 
HETATM   10  C   UNL     1      40.602 -15.408  -2.804  1.00  0.00     0.262 A 
HETATM   11  N   UNL     1      40.758 -15.922  -1.531  1.00  0.00    -0.311 N 
HETATM   12  O   UNL     1      40.151 -16.065  -3.731  1.00  0.00    -0.267 OA
HETATM   13  H   UNL     1      40.445 -16.877  -1.423  1.00  0.00     0.170 HD
BRANCH   6  14
HETATM   14  C   UNL     1      42.149 -10.955  -1.395  1.00  0.00     0.060 A 
HETATM   15  C   UNL     1      43.415 -10.385  -1.613  1.00  0.00     0.031 A 
HETATM   16  C   UNL     1      43.821  -9.258  -0.895  1.00  0.00     0.002 A 
HETATM   17  C   UNL     1      42.970  -8.689   0.047  1.00  0.00     0.000 A 
HETATM   18  C   UNL     1      41.712  -9.244   0.271  1.00  0.00     0.002 A 
HETATM   19  C   UNL     1      41.298 -10.372  -0.447  1.00  0.00     0.031 A 
ENDBRANCH   6  14
ENDBRANCH   2   3
ENDBRANCH   1   2
BRANCH   1  20
HETATM   20  C   UNL     1      40.194 -15.285   3.014  1.00  0.00     0.218 C 
HETATM   21  N   UNL     1      40.723 -16.041   4.039  1.00  0.00    -0.356 N 
HETATM   22  H   UNL     1      40.559 -17.043   3.946  1.00  0.00     0.162 HD
HETATM   23  O   UNL     1      39.910 -14.098   3.145  1.00  0.00    -0.274 OA
BRANCH  21  24
HETATM   24  C   UNL     1      40.833 -15.600   5.442  1.00  0.00     0.087 C 
HETATM   25  C   UNL     1      42.055 -14.758   5.820  1.00  0.00     0.053 C 
HETATM   26  C   UNL     1      43.352 -15.510   5.586  1.00  0.00     0.237 C 
HETATM   27  N   UNL     1      43.359 -16.798   6.389  1.00  0.00    -0.067 N 
HETATM   28  H   UNL     1      43.407 -16.528   7.380  1.00  0.00     0.280 HD
HETATM   29  C   UNL     1      42.120 -17.642   6.179  1.00  0.00     0.237 C 
HETATM   30  C   UNL     1      40.840 -16.831   6.354  1.00  0.00     0.053 C 
BRANCH  27  31
HETATM   31  C   UNL     1      44.598 -17.639   6.112  1.00  0.00     0.273 C 
BRANCH  31  32
HETATM   32  C   UNL     1      44.462 -18.622   4.981  1.00  0.00    -0.033 A 
HETATM   33  C   UNL     1      44.016 -18.211   3.716  1.00  0.00     0.010 A 
HETATM   34  C   UNL     1      43.892 -19.138   2.676  1.00  0.00     0.024 A 
HETATM   35  C   UNL     1      44.205 -20.479   2.894  1.00  0.00     0.034 A 
HETATM   36 CL   UNL     1      44.049 -21.614   1.613  1.00  0.00    -0.084 Cl
HETATM   37  C   UNL     1      44.644 -20.902   4.145  1.00  0.00     0.024 A 
HETATM   38  C   UNL     1      44.775 -19.978   5.184  1.00  0.00     0.010 A 
ENDBRANCH  31  32
ENDBRANCH  27  31
ENDBRANCH  21  24
ENDBRANCH   1  20
TORSDOF 7
ENDMDL
MODEL 5
REMARK VINA RESULT:      -9.5      7.381     11.128
REMARK  7 active torsions:
REMARK  status: ('A' for Active; 'I' for Inactive)
REMARK    1  A    between atoms: C_4  and  N_5 
REMARK    2  A    between atoms: C_11  and  C_12 
REMARK    3  A    between atoms: C_12  and  C_13 
REMARK    4  A    between atoms: C_13  and  C_14 
REMARK       I    between atoms: C_14  and  N_15 
REMARK    5  A    between atoms: N_15  and  C_16 
REMARK    6  A    between atoms: N_19  and  C_21 
REMARK    7  A    between atoms: C_21  and  C_22 
ROOT
HETATM    1  C   UNL     1      40.978 -17.038   1.282  1.00  0.00     0.110 C 
ENDROOT
BRANCH   1   2
HETATM    2  C   UNL     1      40.493 -16.742   2.689  1.00  0.00     0.088 C 
BRANCH   2   3
HETATM    3  C   UNL     1      41.609 -16.837   3.697  1.00  0.00     0.109 A 
HETATM    4  N   UNL     1      42.416 -17.859   3.651  1.00  0.00    -0.215 NA
HETATM    5  C   UNL     1      43.372 -17.841   4.625  1.00  0.00     0.170 A 
HETATM    6  N   UNL     1      44.311 -18.827   4.941  1.00  0.00    -0.215 N 
HETATM    7  C   UNL     1      43.573 -16.829   5.540  1.00  0.00     0.099 A 
HETATM    8  N   UNL     1      45.157 -18.388   5.926  1.00  0.00    -0.177 NA
HETATM    9  C   UNL     1      44.674 -17.204   6.301  1.00  0.00     0.160 A 
HETATM   10  C   UNL     1      42.702 -15.694   5.544  1.00  0.00     0.262 A 
HETATM   11  N   UNL     1      41.711 -15.787   4.586  1.00  0.00    -0.311 N 
HETATM   12  O   UNL     1      42.802 -14.740   6.301  1.00  0.00    -0.267 OA
HETATM   13  H   UNL     1      41.061 -15.013   4.579  1.00  0.00     0.170 HD
BRANCH   6  14
HETATM   14  C   UNL     1      44.468 -20.145   4.411  1.00  0.00     0.060 A 
HETATM   15  C   UNL     1      44.640 -21.219   5.301  1.00  0.00     0.031 A 
HETATM   16  C   UNL     1      44.764 -22.526   4.823  1.00  0.00     0.002 A 
HETATM   17  C   UNL     1      44.716 -22.774   3.455  1.00  0.00     0.000 A 
HETATM   18  C   UNL     1      44.543 -21.717   2.563  1.00  0.00     0.002 A 
HETATM   19  C   UNL     1      44.418 -20.406   3.036  1.00  0.00     0.031 A 
ENDBRANCH   6  14
ENDBRANCH   2   3
ENDBRANCH   1   2
BRANCH   1  20
HETATM   20  C   UNL     1      41.422 -15.872   0.410  1.00  0.00     0.218 C 
HETATM   21  N   UNL     1      40.855 -15.760  -0.841  1.00  0.00    -0.356 N 
HETATM   22  H   UNL     1      40.630 -16.654  -1.278  1.00  0.00     0.162 HD
HETATM   23  O   UNL     1      42.130 -14.995   0.897  1.00  0.00    -0.274 OA
BRANCH  21  24
HETATM   24  C   UNL     1      41.169 -14.702  -1.819  1.00  0.00     0.087 C 
HETATM   25  C   UNL     1      40.333 -13.420  -1.759  1.00  0.00     0.053 C 
HETATM   26  C   UNL     1      38.860 -13.696  -2.002  1.00  0.00     0.237 C 
HETATM   27  N   UNL     1      38.671 -14.359  -3.354  1.00  0.00    -0.067 N 
HETATM   28  H   UNL     1      38.910 -13.655  -4.064  1.00  0.00     0.280 HD
HETATM   29  C   UNL     1      39.559 -15.568  -3.558  1.00  0.00     0.237 C 
HETATM   30  C   UNL     1      41.019 -15.266  -3.235  1.00  0.00     0.053 C 
BRANCH  27  31
HETATM   31  C   UNL     1      37.220 -14.747  -3.603  1.00  0.00     0.273 C 
BRANCH  31  32
HETATM   32  C   UNL     1      36.419 -13.748  -4.393  1.00  0.00    -0.033 A 
HETATM   33  C   UNL     1      35.705 -14.138  -5.537  1.00  0.00     0.010 A 
HETATM   34  C   UNL     1      34.967 -13.197  -6.262  1.00  0.00     0.024 A 
HETATM   35  C   UNL     1      34.942 -11.864  -5.855  1.00  0.00     0.034 A 
HETATM   36 CL   UNL     1      34.035 -10.712  -6.751  1.00  0.00    -0.084 Cl
HETATM   37  C   UNL     1      35.649 -11.462  -4.725  1.00  0.00     0.024 A 
HETATM   38  C   UNL     1      36.383 -12.400  -3.995  1.00  0.00     0.010 A 
ENDBRANCH  31  32
ENDBRANCH  27  31
ENDBRANCH  21  24
ENDBRANCH   1  20
TORSDOF 7
ENDMDL
MODEL 6
REMARK VINA RESULT:      -9.4      3.707     10.337
REMARK  7 active torsions:
REMARK  status: ('A' for Active; 'I' for Inactive)
REMARK    1  A    between atoms: C_4  and  N_5 
REMARK    2  A    between atoms: C_11  and  C_12 
REMARK    3  A    between atoms: C_12  and  C_13 
REMARK    4  A    between atoms: C_13  and  C_14 
REMARK       I    between atoms: C_14  and  N_15 
REMARK    5  A    between atoms: N_15  and  C_16 
REMARK    6  A    between atoms: N_19  and  C_21 
REMARK    7  A    between atoms: C_21  and  C_22 
ROOT
HETATM    1  C   UNL     1      40.045 -11.403   7.189  1.00  0.00     0.110 C 
ENDROOT
BRANCH   1   2
HETATM    2  C   UNL     1      41.229 -10.463   7.326  1.00  0.00     0.088 C 
BRANCH   2   3
HETATM    3  C   UNL     1      42.297 -11.037   8.220  1.00  0.00     0.109 A 
HETATM    4  N   UNL     1      42.278 -10.749   9.492  1.00  0.00    -0.215 NA
HETATM    5  C   UNL     1      43.306 -11.312  10.192  1.00  0.00     0.170 A 
HETATM    6  N   UNL     1      43.655 -11.116  11.531  1.00  0.00    -0.215 N 
HETATM    7  C   UNL     1      44.251 -12.176   9.682  1.00  0.00     0.099 A 
HETATM    8  N   UNL     1      44.696 -11.936  11.880  1.00  0.00    -0.177 NA
HETATM    9  C   UNL     1      45.068 -12.535  10.749  1.00  0.00     0.160 A 
HETATM   10  C   UNL     1      44.228 -12.512   8.292  1.00  0.00     0.262 A 
HETATM   11  N   UNL     1      43.213 -11.870   7.611  1.00  0.00    -0.311 N 
HETATM   12  O   UNL     1      45.009 -13.278   7.746  1.00  0.00    -0.267 OA
HETATM   13  H   UNL     1      43.183 -12.064   6.620  1.00  0.00     0.170 HD
BRANCH   6  14
HETATM   14  C   UNL     1      43.109 -10.218  12.498  1.00  0.00     0.060 A 
HETATM   15  C   UNL     1      43.104  -8.841  12.221  1.00  0.00     0.031 A 
HETATM   16  C   UNL     1      42.548  -7.935  13.127  1.00  0.00     0.002 A 
HETATM   17  C   UNL     1      41.990  -8.393  14.317  1.00  0.00     0.000 A 
HETATM   18  C   UNL     1      41.987  -9.757  14.601  1.00  0.00     0.002 A 
HETATM   19  C   UNL     1      42.541 -10.670  13.697  1.00  0.00     0.031 A 
ENDBRANCH   6  14
ENDBRANCH   2   3
ENDBRANCH   1   2
BRANCH   1  20
HETATM   20  C   UNL     1      39.745 -11.992   5.818  1.00  0.00     0.218 C 
HETATM   21  N   UNL     1      40.807 -12.484   5.089  1.00  0.00    -0.356 N 
HETATM   22  H   UNL     1      41.682 -11.981   5.237  1.00  0.00     0.162 HD
HETATM   23  O   UNL     1      38.576 -12.157   5.478  1.00  0.00    -0.274 OA
BRANCH  21  24
HETATM   24  C   UNL     1      40.704 -13.081   3.745  1.00  0.00     0.087 C 
HETATM   25  C   UNL     1      40.111 -14.490   3.647  1.00  0.00     0.053 C 
HETATM   26  C   UNL     1      40.935 -15.504   4.420  1.00  0.00     0.237 C 
HETATM   27  N   UNL     1      42.361 -15.520   3.901  1.00  0.00    -0.067 N 
HETATM   28  H   UNL     1      42.324 -15.907   2.949  1.00  0.00     0.280 HD
HETATM   29  C   UNL     1      42.991 -14.145   3.837  1.00  0.00     0.237 C 
HETATM   30  C   UNL     1      42.099 -13.140   3.115  1.00  0.00     0.053 C 
BRANCH  27  31
HETATM   31  C   UNL     1      43.254 -16.450   4.710  1.00  0.00     0.273 C 
BRANCH  31  32
HETATM   32  C   UNL     1      43.577 -17.761   4.047  1.00  0.00    -0.033 A 
HETATM   33  C   UNL     1      44.180 -18.804   4.766  1.00  0.00     0.010 A 
HETATM   34  C   UNL     1      44.477 -20.017   4.134  1.00  0.00     0.024 A 
HETATM   35  C   UNL     1      44.181 -20.192   2.783  1.00  0.00     0.034 A 
HETATM   36 CL   UNL     1      44.549 -21.683   2.012  1.00  0.00    -0.084 Cl
HETATM   37  C   UNL     1      43.588 -19.164   2.057  1.00  0.00     0.024 A 
HETATM   38  C   UNL     1      43.284 -17.954   2.685  1.00  0.00     0.010 A 
ENDBRANCH  31  32
ENDBRANCH  27  31
ENDBRANCH  21  24
ENDBRANCH   1  20
TORSDOF 7
ENDMDL
MODEL 7
REMARK VINA RESULT:      -9.3      6.728     10.437
REMARK  7 active torsions:
REMARK  status: ('A' for Active; 'I' for Inactive)
REMARK    1  A    between atoms: C_4  and  N_5 
REMARK    2  A    between atoms: C_11  and  C_12 
REMARK    3  A    between atoms: C_12  and  C_13 
REMARK    4  A    between atoms: C_13  and  C_14 
REMARK       I    between atoms: C_14  and  N_15 
REMARK    5  A    between atoms: N_15  and  C_16 
REMARK    6  A    between atoms: N_19  and  C_21 
REMARK    7  A    between atoms: C_21  and  C_22 
ROOT
HETATM    1  C   UNL     1      43.480 -17.478   1.113  1.00  0.00     0.110 C 
ENDROOT
BRANCH   1   2
HETATM    2  C   UNL     1      43.546 -18.884   1.681  1.00  0.00     0.088 C 
BRANCH   2   3
HETATM    3  C   UNL     1      43.566 -18.878   3.187  1.00  0.00     0.109 A 
HETATM    4  N   UNL     1      42.988 -17.898   3.823  1.00  0.00    -0.215 NA
HETATM    5  C   UNL     1      43.090 -17.996   5.181  1.00  0.00     0.170 A 
HETATM    6  N   UNL     1      42.697 -17.070   6.150  1.00  0.00    -0.215 N 
HETATM    7  C   UNL     1      43.658 -19.043   5.874  1.00  0.00     0.099 A 
HETATM    8  N   UNL     1      42.885 -17.581   7.408  1.00  0.00    -0.177 NA
HETATM    9  C   UNL     1      43.500 -18.749   7.224  1.00  0.00     0.160 A 
HETATM   10  C   UNL     1      44.249 -20.130   5.156  1.00  0.00     0.262 A 
HETATM   11  N   UNL     1      44.181 -19.958   3.788  1.00  0.00    -0.311 N 
HETATM   12  O   UNL     1      44.764 -21.111   5.674  1.00  0.00    -0.267 OA
HETATM   13  H   UNL     1      44.614 -20.695   3.249  1.00  0.00     0.170 HD
BRANCH   6  14
HETATM   14  C   UNL     1      42.178 -15.747   5.998  1.00  0.00     0.060 A 
HETATM   15  C   UNL     1      40.786 -15.564   5.948  1.00  0.00     0.031 A 
HETATM   16  C   UNL     1      40.240 -14.284   5.834  1.00  0.00     0.002 A 
HETATM   17  C   UNL     1      41.076 -13.174   5.769  1.00  0.00     0.000 A 
HETATM   18  C   UNL     1      42.458 -13.342   5.819  1.00  0.00     0.002 A 
HETATM   19  C   UNL     1      43.011 -14.623   5.935  1.00  0.00     0.031 A 
ENDBRANCH   6  14
ENDBRANCH   2   3
ENDBRANCH   1   2
BRANCH   1  20
HETATM   20  C   UNL     1      42.119 -16.918   0.727  1.00  0.00     0.218 C 
HETATM   21  N   UNL     1      42.097 -15.775  -0.045  1.00  0.00    -0.356 N 
HETATM   22  H   UNL     1      42.868 -15.134   0.137  1.00  0.00     0.162 HD
HETATM   23  O   UNL     1      41.109 -17.573   0.970  1.00  0.00    -0.274 OA
BRANCH  21  24
HETATM   24  C   UNL     1      40.874 -15.092  -0.505  1.00  0.00     0.087 C 
HETATM   25  C   UNL     1      40.772 -14.763  -1.998  1.00  0.00     0.053 C 
HETATM   26  C   UNL     1      41.885 -13.832  -2.446  1.00  0.00     0.237 C 
HETATM   27  N   UNL     1      41.843 -12.545  -1.642  1.00  0.00    -0.067 N 
HETATM   28  H   UNL     1      40.984 -12.053  -1.917  1.00  0.00     0.280 HD
HETATM   29  C   UNL     1      41.807 -12.775  -0.146  1.00  0.00     0.237 C 
HETATM   30  C   UNL     1      40.722 -13.770   0.254  1.00  0.00     0.053 C 
BRANCH  27  31
HETATM   31  C   UNL     1      43.000 -11.618  -1.985  1.00  0.00     0.273 C 
BRANCH  31  32
HETATM   32  C   UNL     1      42.683 -10.548  -2.994  1.00  0.00    -0.033 A 
HETATM   33  C   UNL     1      42.539  -9.209  -2.605  1.00  0.00     0.010 A 
HETATM   34  C   UNL     1      42.241  -8.226  -3.555  1.00  0.00     0.024 A 
HETATM   35  C   UNL     1      42.079  -8.575  -4.895  1.00  0.00     0.034 A 
HETATM   36 CL   UNL     1      41.712  -7.364  -6.057  1.00  0.00    -0.084 Cl
HETATM   37  C   UNL     1      42.215  -9.901  -5.295  1.00  0.00     0.024 A 
HETATM   38  C   UNL     1      42.518 -10.884  -4.350  1.00  0.00     0.010 A 
ENDBRANCH  31  32
ENDBRANCH  27  31
ENDBRANCH  21  24
ENDBRANCH   1  20
TORSDOF 7
ENDMDL
MODEL 8
REMARK VINA RESULT:      -9.2      6.264      9.846
REMARK  7 active torsions:
REMARK  status: ('A' for Active; 'I' for Inactive)
REMARK    1  A    between atoms: C_4  and  N_5 
REMARK    2  A    between atoms: C_11  and  C_12 
REMARK    3  A    between atoms: C_12  and  C_13 
REMARK    4  A    between atoms: C_13  and  C_14 
REMARK       I    between atoms: C_14  and  N_15 
REMARK    5  A    between atoms: N_15  and  C_16 
REMARK    6  A    between atoms: N_19  and  C_21 
REMARK    7  A    between atoms: C_21  and  C_22 
ROOT
HETATM    1  C   UNL     1      40.328 -10.694   3.028  1.00  0.00     0.110 C 
ENDROOT
BRANCH   1   2
HETATM    2  C   UNL     1      39.734 -11.588   1.954  1.00  0.00     0.088 C 
BRANCH   2   3
HETATM    3  C   UNL     1      40.576 -11.594   0.704  1.00  0.00     0.109 A 
HETATM    4  N   UNL     1      40.159 -12.260  -0.335  1.00  0.00    -0.215 NA
HETATM    5  C   UNL     1      41.016 -12.205  -1.396  1.00  0.00     0.170 A 
HETATM    6  N   UNL     1      40.942 -12.894  -2.610  1.00  0.00    -0.215 N 
HETATM    7  C   UNL     1      42.178 -11.466  -1.457  1.00  0.00     0.099 A 
HETATM    8  N   UNL     1      41.946 -12.494  -3.452  1.00  0.00    -0.177 NA
HETATM    9  C   UNL     1      42.702 -11.667  -2.729  1.00  0.00     0.160 A 
HETATM   10  C   UNL     1      42.595 -10.707  -0.319  1.00  0.00     0.262 A 
HETATM   11  N   UNL     1      41.734 -10.845   0.751  1.00  0.00    -0.311 N 
HETATM   12  O   UNL     1      43.598 -10.009  -0.275  1.00  0.00    -0.267 OA
HETATM   13  H   UNL     1      42.013 -10.342   1.583  1.00  0.00     0.170 HD
BRANCH   6  14
HETATM   14  C   UNL     1      40.024 -13.903  -3.037  1.00  0.00     0.060 A 
HETATM   15  C   UNL     1      38.686 -13.547  -3.275  1.00  0.00     0.031 A 
HETATM   16  C   UNL     1      37.766 -14.497  -3.725  1.00  0.00     0.002 A 
HETATM   17  C   UNL     1      38.173 -15.810  -3.944  1.00  0.00     0.000 A 
HETATM   18  C   UNL     1      39.498 -16.174  -3.714  1.00  0.00     0.002 A 
HETATM   19  C   UNL     1      40.424 -15.226  -3.264  1.00  0.00     0.031 A 
ENDBRANCH   6  14
ENDBRANCH   2   3
ENDBRANCH   1   2
BRANCH   1  20
HETATM   20  C   UNL     1      40.944 -11.351   4.255  1.00  0.00     0.218 C 
HETATM   21  N   UNL     1      41.154 -12.713   4.210  1.00  0.00    -0.356 N 
HETATM   22  H   UNL     1      40.460 -13.224   3.665  1.00  0.00     0.162 HD
HETATM   23  O   UNL     1      41.377 -10.643   5.161  1.00  0.00    -0.274 OA
BRANCH  21  24
HETATM   24  C   UNL     1      41.732 -13.513   5.305  1.00  0.00     0.087 C 
HETATM   25  C   UNL     1      43.247 -13.740   5.284  1.00  0.00     0.053 C 
HETATM   26  C   UNL     1      43.688 -14.482   4.035  1.00  0.00     0.237 C 
HETATM   27  N   UNL     1      42.977 -15.820   3.945  1.00  0.00    -0.067 N 
HETATM   28  H   UNL     1      43.337 -16.398   4.714  1.00  0.00     0.280 HD
HETATM   29  C   UNL     1      41.474 -15.709   4.088  1.00  0.00     0.237 C 
HETATM   30  C   UNL     1      41.075 -14.897   5.316  1.00  0.00     0.053 C 
BRANCH  27  31
HETATM   31  C   UNL     1      43.310 -16.560   2.657  1.00  0.00     0.273 C 
BRANCH  31  32
HETATM   32  C   UNL     1      43.623 -18.022   2.824  1.00  0.00    -0.033 A 
HETATM   33  C   UNL     1      44.175 -18.511   4.017  1.00  0.00     0.010 A 
HETATM   34  C   UNL     1      44.462 -19.873   4.155  1.00  0.00     0.024 A 
HETATM   35  C   UNL     1      44.207 -20.751   3.104  1.00  0.00     0.034 A 
HETATM   36 CL   UNL     1      44.563 -22.423   3.279  1.00  0.00    -0.084 Cl
HETATM   37  C   UNL     1      43.663 -20.280   1.913  1.00  0.00     0.024 A 
HETATM   38  C   UNL     1      43.369 -18.921   1.773  1.00  0.00     0.010 A 
ENDBRANCH  31  32
ENDBRANCH  27  31
ENDBRANCH  21  24
ENDBRANCH   1  20
TORSDOF 7
ENDMDL
MODEL 9
REMARK VINA RESULT:      -9.2      6.417     10.054
REMARK  7 active torsions:
REMARK  status: ('A' for Active; 'I' for Inactive)
REMARK    1  A    between atoms: C_4  and  N_5 
REMARK    2  A    between atoms: C_11  and  C_12 
REMARK    3  A    between atoms: C_12  and  C_13 
REMARK    4  A    between atoms: C_13  and  C_14 
REMARK       I    between atoms: C_14  and  N_15 
REMARK    5  A    between atoms: N_15  and  C_16 
REMARK    6  A    between atoms: N_19  and  C_21 
REMARK    7  A    between atoms: C_21  and  C_22 
ROOT
HETATM    1  C   UNL     1      40.110 -16.109   1.618  1.00  0.00     0.110 C 
ENDROOT
BRANCH   1   2
HETATM    2  C   UNL     1      41.217 -15.815   0.622  1.00  0.00     0.088 C 
BRANCH   2   3
HETATM    3  C   UNL     1      41.064 -14.451   0.002  1.00  0.00     0.109 A 
HETATM    4  N   UNL     1      40.047 -14.223  -0.781  1.00  0.00    -0.215 NA
HETATM    5  C   UNL     1      40.029 -12.959  -1.295  1.00  0.00     0.170 A 
HETATM    6  N   UNL     1      39.163 -12.423  -2.252  1.00  0.00    -0.215 N 
HETATM    7  C   UNL     1      40.916 -11.950  -0.988  1.00  0.00     0.099 A 
HETATM    8  N   UNL     1      39.414 -11.087  -2.433  1.00  0.00    -0.177 NA
HETATM    9  C   UNL     1      40.496 -10.831  -1.697  1.00  0.00     0.160 A 
HETATM   10  C   UNL     1      42.001 -12.209  -0.092  1.00  0.00     0.262 A 
HETATM   11  N   UNL     1      42.018 -13.517   0.351  1.00  0.00    -0.311 N 
HETATM   12  O   UNL     1      42.832 -11.383   0.256  1.00  0.00    -0.267 OA
HETATM   13  H   UNL     1      42.788 -13.742   0.966  1.00  0.00     0.170 HD
BRANCH   6  14
HETATM   14  C   UNL     1      38.138 -13.057  -3.019  1.00  0.00     0.060 A 
HETATM   15  C   UNL     1      37.095 -12.272  -3.541  1.00  0.00     0.031 A 
HETATM   16  C   UNL     1      36.094 -12.850  -4.324  1.00  0.00     0.002 A 
HETATM   17  C   UNL     1      36.122 -14.215  -4.595  1.00  0.00     0.000 A 
HETATM   18  C   UNL     1      37.153 -15.002  -4.085  1.00  0.00     0.002 A 
HETATM   19  C   UNL     1      38.160 -14.429  -3.301  1.00  0.00     0.031 A 
ENDBRANCH   6  14
ENDBRANCH   2   3
ENDBRANCH   1   2
BRANCH   1  20
HETATM   20  C   UNL     1      40.147 -15.407   2.968  1.00  0.00     0.218 C 
HETATM   21  N   UNL     1      40.700 -16.094   4.028  1.00  0.00    -0.356 N 
HETATM   22  H   UNL     1      40.555 -17.102   3.992  1.00  0.00     0.162 HD
HETATM   23  O   UNL     1      39.841 -14.220   3.035  1.00  0.00    -0.274 OA
BRANCH  21  24
HETATM   24  C   UNL     1      40.813 -15.574   5.403  1.00  0.00     0.087 C 
HETATM   25  C   UNL     1      42.040 -14.717   5.731  1.00  0.00     0.053 C 
HETATM   26  C   UNL     1      43.333 -15.488   5.539  1.00  0.00     0.237 C 
HETATM   27  N   UNL     1      43.335 -16.727   6.415  1.00  0.00    -0.067 N 
HETATM   28  H   UNL     1      43.386 -16.401   7.389  1.00  0.00     0.280 HD
HETATM   29  C   UNL     1      42.092 -17.575   6.256  1.00  0.00     0.237 C 
HETATM   30  C   UNL     1      40.816 -16.749   6.385  1.00  0.00     0.053 C 
BRANCH  27  31
HETATM   31  C   UNL     1      44.570 -17.588   6.186  1.00  0.00     0.273 C 
BRANCH  31  32
HETATM   32  C   UNL     1      44.449 -18.592   5.072  1.00  0.00    -0.033 A 
HETATM   33  C   UNL     1      44.746 -19.947   5.285  1.00  0.00     0.010 A 
HETATM   34  C   UNL     1      44.632 -20.867   4.239  1.00  0.00     0.024 A 
HETATM   35  C   UNL     1      44.228 -20.442   2.974  1.00  0.00     0.034 A 
HETATM   36 CL   UNL     1      44.091 -21.578   1.692  1.00  0.00    -0.084 Cl
HETATM   37  C   UNL     1      43.935 -19.101   2.747  1.00  0.00     0.024 A 
HETATM   38  C   UNL     1      44.042 -18.179   3.791  1.00  0.00     0.010 A 
ENDBRANCH  31  32
ENDBRANCH  27  31
ENDBRANCH  21  24
ENDBRANCH   1  20
TORSDOF 7
ENDMDL
MODEL 10
REMARK VINA RESULT:      -9.1      6.340      9.238
REMARK  7 active torsions:
REMARK  status: ('A' for Active; 'I' for Inactive)
REMARK    1  A    between atoms: C_4  and  N_5 
REMARK    2  A    between atoms: C_11  and  C_12 
REMARK    3  A    between atoms: C_12  and  C_13 
REMARK    4  A    between atoms: C_13  and  C_14 
REMARK       I    between atoms: C_14  and  N_15 
REMARK    5  A    between atoms: N_15  and  C_16 
REMARK    6  A    between atoms: N_19  and  C_21 
REMARK    7  A    between atoms: C_21  and  C_22 
ROOT
HETATM    1  C   UNL     1      40.622 -15.689   3.247  1.00  0.00     0.110 C 
ENDROOT
BRANCH   1   2
HETATM    2  C   UNL     1      40.775 -15.405   4.730  1.00  0.00     0.088 C 
BRANCH   2   3
HETATM    3  C   UNL     1      42.015 -16.047   5.298  1.00  0.00     0.109 A 
HETATM    4  N   UNL     1      42.566 -17.035   4.651  1.00  0.00    -0.215 NA
HETATM    5  C   UNL     1      43.669 -17.544   5.274  1.00  0.00     0.170 A 
HETATM    6  N   UNL     1      44.422 -18.669   4.927  1.00  0.00    -0.215 N 
HETATM    7  C   UNL     1      44.244 -17.051   6.426  1.00  0.00     0.099 A 
HETATM    8  N   UNL     1      45.509 -18.793   5.752  1.00  0.00    -0.177 NA
HETATM    9  C   UNL     1      45.364 -17.837   6.671  1.00  0.00     0.160 A 
HETATM   10  C   UNL     1      43.647 -15.937   7.096  1.00  0.00     0.262 A 
HETATM   11  N   UNL     1      42.498 -15.498   6.468  1.00  0.00    -0.311 N 
HETATM   12  O   UNL     1      44.084 -15.417   8.112  1.00  0.00    -0.267 OA
HETATM   13  H   UNL     1      42.034 -14.728   6.930  1.00  0.00     0.170 HD
BRANCH   6  14
HETATM   14  C   UNL     1      44.199 -19.641   3.904  1.00  0.00     0.060 A 
HETATM   15  C   UNL     1      43.496 -19.261   2.748  1.00  0.00     0.031 A 
HETATM   16  C   UNL     1      43.287 -20.174   1.711  1.00  0.00     0.002 A 
HETATM   17  C   UNL     1      43.778 -21.472   1.816  1.00  0.00     0.000 A 
HETATM   18  C   UNL     1      44.479 -21.858   2.957  1.00  0.00     0.002 A 
HETATM   19  C   UNL     1      44.692 -20.949   3.998  1.00  0.00     0.031 A 
ENDBRANCH   6  14
ENDBRANCH   2   3
ENDBRANCH   1   2
BRANCH   1  20
HETATM   20  C   UNL     1      39.642 -14.843   2.447  1.00  0.00     0.218 C 
HETATM   21  N   UNL     1      39.985 -13.530   2.204  1.00  0.00    -0.356 N 
HETATM   22  H   UNL     1      40.526 -13.096   2.951  1.00  0.00     0.162 HD
HETATM   23  O   UNL     1      38.677 -15.385   1.914  1.00  0.00    -0.274 OA
BRANCH  21  24
HETATM   24  C   UNL     1      39.157 -12.567   1.456  1.00  0.00     0.087 C 
HETATM   25  C   UNL     1      38.940 -12.838  -0.037  1.00  0.00     0.053 C 
HETATM   26  C   UNL     1      40.250 -12.847  -0.804  1.00  0.00     0.237 C 
HETATM   27  N   UNL     1      40.963 -11.518  -0.632  1.00  0.00    -0.067 N 
HETATM   28  H   UNL     1      40.396 -10.814  -1.120  1.00  0.00     0.280 HD
HETATM   29  C   UNL     1      41.108 -11.100   0.816  1.00  0.00     0.237 C 
HETATM   30  C   UNL     1      39.783 -11.173   1.568  1.00  0.00     0.053 C 
BRANCH  27  31
HETATM   31  C   UNL     1      42.330 -11.512  -1.301  1.00  0.00     0.273 C 
BRANCH  31  32
HETATM   32  C   UNL     1      42.382 -10.823  -2.638  1.00  0.00    -0.033 A 
HETATM   33  C   UNL     1      42.339 -11.558  -3.831  1.00  0.00     0.010 A 
HETATM   34  C   UNL     1      42.392 -10.903  -5.066  1.00  0.00     0.024 A 
HETATM   35  C   UNL     1      42.495  -9.514  -5.117  1.00  0.00     0.034 A 
HETATM   36 CL   UNL     1      42.561  -8.715  -6.636  1.00  0.00    -0.084 Cl
HETATM   37  C   UNL     1      42.545  -8.772  -3.940  1.00  0.00     0.024 A 
HETATM   38  C   UNL     1      42.486  -9.422  -2.706  1.00  0.00     0.010 A 
ENDBRANCH  31  32
ENDBRANCH  27  31
ENDBRANCH  21  24
ENDBRANCH   1  20
TORSDOF 7
ENDMDL
