MODEL 1
REMARK VINA RESULT:      -9.4      0.000      0.000
REMARK  5 active torsions:
REMARK  status: ('A' for Active; 'I' for Inactive)
REMARK    1  A    between atoms: C_8  and  N_9 
REMARK    2  A    between atoms: C_12  and  N_13 
REMARK    3  A    between atoms: N_13  and  C_15 
REMARK    4  A    between atoms: C_15  and  C_16 
REMARK    5  A    between atoms: C_20  and  C_21 
ROOT
HETATM    1  N   UNL     1      41.695 -14.823   0.313  1.00  0.00    -0.065 N 
HETATM    2  H   UNL     1      42.713 -14.760   0.395  1.00  0.00     0.280 HD
HETATM    3  C   UNL     1      41.337 -14.449  -1.112  1.00  0.00     0.270 C 
ENDROOT
BRANCH   1   4
HETATM    4  C   UNL     1      41.052 -13.873   1.347  1.00  0.00     0.191 C 
HETATM    5  C   UNL     1      40.292 -14.612   2.458  1.00  0.00     0.053 C 
HETATM    6  C   UNL     1      41.219 -15.305   3.452  1.00  0.00     0.126 C 
HETATM    7  N   UNL     1      42.148 -14.312   4.003  1.00  0.00    -0.366 N 
HETATM    8  C   UNL     1      42.995 -13.643   3.011  1.00  0.00     0.126 C 
HETATM    9  C   UNL     1      42.104 -12.943   1.986  1.00  0.00     0.053 C 
BRANCH   7  10
HETATM   10  C   UNL     1      42.799 -14.706   5.179  1.00  0.00     0.129 A 
HETATM   11  N   UNL     1      42.503 -15.892   5.741  1.00  0.00    -0.218 NA
HETATM   12  C   UNL     1      43.090 -16.203   6.925  1.00  0.00     0.102 A 
HETATM   13  N   UNL     1      43.937 -15.383   7.561  1.00  0.00    -0.348 N 
HETATM   14  C   UNL     1      42.735 -17.505   7.568  1.00  0.00     0.091 C 
HETATM   15  C   UNL     1      44.257 -14.196   7.023  1.00  0.00     0.010 A 
HETATM   16  H   UNL     1      44.326 -15.664   8.459  1.00  0.00     0.167 HD
HETATM   17  C   UNL     1      45.182 -13.286   7.764  1.00  0.00     0.068 C 
HETATM   18  C   UNL     1      43.685 -13.834   5.803  1.00  0.00     0.075 A 
ENDBRANCH   7  10
ENDBRANCH   1   4
BRANCH   1  19
HETATM   19  C   UNL     1      41.377 -16.321   0.511  1.00  0.00     0.295 C 
BRANCH  19  20
HETATM   20  C   UNL     1      42.430 -17.180   1.143  1.00  0.00     0.082 A 
HETATM   21  N   UNL     1      43.716 -16.810   1.147  1.00  0.00    -0.177 NA
HETATM   22  N   UNL     1      44.351 -17.832   1.758  1.00  0.00    -0.277 N 
HETATM   23  H   UNL     1      45.358 -17.780   1.887  1.00  0.00     0.189 HD
HETATM   24  C   UNL     1      43.516 -18.843   2.157  1.00  0.00     0.062 A 
HETATM   25  C   UNL     1      42.253 -18.432   1.780  1.00  0.00     0.062 A 
BRANCH  24  26
HETATM   26  C   UNL     1      43.981 -20.048   2.840  1.00  0.00    -0.008 A 
HETATM   27  C   UNL     1      44.028 -21.274   2.162  1.00  0.00     0.014 A 
HETATM   28  C   UNL     1      44.465 -22.430   2.812  1.00  0.00     0.001 A 
HETATM   29  C   UNL     1      44.865 -22.375   4.145  1.00  0.00     0.000 A 
HETATM   30  C   UNL     1      44.831 -21.162   4.829  1.00  0.00     0.001 A 
HETATM   31  C   UNL     1      44.391 -20.005   4.181  1.00  0.00     0.014 A 
ENDBRANCH  24  26
ENDBRANCH  19  20
ENDBRANCH   1  19
TORSDOF 5
ENDMDL
MODEL 2
REMARK VINA RESULT:      -9.3      0.540      1.589
REMARK  5 active torsions:
REMARK  status: ('A' for Active; 'I' for Inactive)
REMARK    1  A    between atoms: C_8  and  N_9 
REMARK    2  A    between atoms: C_12  and  N_13 
REMARK    3  A    between atoms: N_13  and  C_15 
REMARK    4  A    between atoms: C_15  and  C_16 
REMARK    5  A    between atoms: C_20  and  C_21 
ROOT
HETATM    1  N   UNL     1      41.671 -14.938   0.390  1.00  0.00    -0.065 N 
HETATM    2  H   UNL     1      42.690 -14.893   0.470  1.00  0.00     0.280 HD
HETATM    3  C   UNL     1      41.321 -14.643  -1.056  1.00  0.00     0.270 C 
ENDROOT
BRANCH   1   4
HETATM    4  C   UNL     1      41.050 -13.912   1.364  1.00  0.00     0.191 C 
HETATM    5  C   UNL     1      40.223 -14.563   2.482  1.00  0.00     0.053 C 
HETATM    6  C   UNL     1      41.087 -15.257   3.532  1.00  0.00     0.126 C 
HETATM    7  N   UNL     1      42.050 -14.289   4.067  1.00  0.00    -0.366 N 
HETATM    8  C   UNL     1      42.957 -13.706   3.072  1.00  0.00     0.126 C 
HETATM    9  C   UNL     1      42.131 -13.009   1.993  1.00  0.00     0.053 C 
BRANCH   7  10
HETATM   10  C   UNL     1      42.649 -14.663   5.277  1.00  0.00     0.129 A 
HETATM   11  N   UNL     1      43.522 -13.832   5.874  1.00  0.00    -0.218 NA
HETATM   12  C   UNL     1      44.147 -14.263   6.999  1.00  0.00     0.102 A 
HETATM   13  N   UNL     1      43.943 -15.475   7.533  1.00  0.00    -0.348 N 
HETATM   14  C   UNL     1      45.144 -13.354   7.646  1.00  0.00     0.091 C 
HETATM   15  C   UNL     1      43.074 -16.324   6.964  1.00  0.00     0.010 A 
HETATM   16  H   UNL     1      44.462 -15.748   8.366  1.00  0.00     0.167 HD
HETATM   17  C   UNL     1      42.884 -17.681   7.560  1.00  0.00     0.068 C 
HETATM   18  C   UNL     1      42.401 -15.924   5.809  1.00  0.00     0.075 A 
ENDBRANCH   7  10
ENDBRANCH   1   4
BRANCH   1  19
HETATM   19  C   UNL     1      41.319 -16.413   0.678  1.00  0.00     0.295 C 
BRANCH  19  20
HETATM   20  C   UNL     1      42.393 -17.289   1.250  1.00  0.00     0.082 A 
HETATM   21  N   UNL     1      43.687 -17.038   1.017  1.00  0.00    -0.177 NA
HETATM   22  N   UNL     1      44.335 -18.039   1.650  1.00  0.00    -0.277 N 
HETATM   23  H   UNL     1      45.350 -18.064   1.621  1.00  0.00     0.189 HD
HETATM   24  C   UNL     1      43.503 -18.919   2.291  1.00  0.00     0.062 A 
HETATM   25  C   UNL     1      42.229 -18.440   2.056  1.00  0.00     0.062 A 
BRANCH  24  26
HETATM   26  C   UNL     1      43.981 -20.078   3.042  1.00  0.00    -0.008 A 
HETATM   27  C   UNL     1      44.097 -21.327   2.419  1.00  0.00     0.014 A 
HETATM   28  C   UNL     1      44.547 -22.439   3.134  1.00  0.00     0.001 A 
HETATM   29  C   UNL     1      44.891 -22.314   4.478  1.00  0.00     0.000 A 
HETATM   30  C   UNL     1      44.789 -21.077   5.108  1.00  0.00     0.001 A 
HETATM   31  C   UNL     1      44.335 -19.963   4.394  1.00  0.00     0.014 A 
ENDBRANCH  24  26
ENDBRANCH  19  20
ENDBRANCH   1  19
TORSDOF 5
ENDMDL
MODEL 3
REMARK VINA RESULT:      -9.0      2.002      5.622
REMARK  5 active torsions:
REMARK  status: ('A' for Active; 'I' for Inactive)
REMARK    1  A    between atoms: C_8  and  N_9 
REMARK    2  A    between atoms: C_12  and  N_13 
REMARK    3  A    between atoms: N_13  and  C_15 
REMARK    4  A    between atoms: C_15  and  C_16 
REMARK    5  A    between atoms: C_20  and  C_21 
ROOT
HETATM    1  N   UNL     1      41.683 -15.229   5.452  1.00  0.00    -0.065 N 
HETATM    2  H   UNL     1      41.707 -15.722   4.555  1.00  0.00     0.280 HD
HETATM    3  C   UNL     1      40.488 -15.756   6.222  1.00  0.00     0.270 C 
ENDROOT
BRANCH   1   4
HETATM    4  C   UNL     1      41.582 -13.711   5.182  1.00  0.00     0.191 C 
HETATM    5  C   UNL     1      42.849 -13.126   4.538  1.00  0.00     0.053 C 
HETATM    6  C   UNL     1      43.009 -13.525   3.074  1.00  0.00     0.126 C 
HETATM    7  N   UNL     1      41.800 -13.132   2.342  1.00  0.00    -0.366 N 
HETATM    8  C   UNL     1      40.559 -13.743   2.826  1.00  0.00     0.126 C 
HETATM    9  C   UNL     1      40.364 -13.377   4.297  1.00  0.00     0.053 C 
BRANCH   7  10
HETATM   10  C   UNL     1      41.945 -13.092   0.949  1.00  0.00     0.129 A 
HETATM   11  N   UNL     1      42.484 -12.007   0.364  1.00  0.00    -0.218 NA
HETATM   12  C   UNL     1      42.529 -11.967  -0.991  1.00  0.00     0.102 A 
HETATM   13  N   UNL     1      42.055 -12.948  -1.770  1.00  0.00    -0.348 N 
HETATM   14  C   UNL     1      43.096 -10.746  -1.643  1.00  0.00     0.091 C 
HETATM   15  C   UNL     1      41.517 -14.046  -1.217  1.00  0.00     0.010 A 
HETATM   16  H   UNL     1      42.096 -12.848  -2.783  1.00  0.00     0.167 HD
HETATM   17  C   UNL     1      40.968 -15.115  -2.106  1.00  0.00     0.068 C 
HETATM   18  C   UNL     1      41.454 -14.137   0.173  1.00  0.00     0.075 A 
ENDBRANCH   7  10
ENDBRANCH   1   4
BRANCH   1  19
HETATM   19  C   UNL     1      42.964 -15.682   6.184  1.00  0.00     0.295 C 
BRANCH  19  20
HETATM   20  C   UNL     1      43.589 -16.977   5.761  1.00  0.00     0.082 A 
HETATM   21  N   UNL     1      44.670 -17.461   6.386  1.00  0.00    -0.177 NA
HETATM   22  N   UNL     1      44.957 -18.596   5.715  1.00  0.00    -0.277 N 
HETATM   23  H   UNL     1      45.751 -19.156   6.013  1.00  0.00     0.189 HD
HETATM   24  C   UNL     1      44.092 -18.865   4.687  1.00  0.00     0.062 A 
HETATM   25  C   UNL     1      43.180 -17.828   4.708  1.00  0.00     0.062 A 
BRANCH  24  26
HETATM   26  C   UNL     1      44.206 -20.040   3.826  1.00  0.00    -0.008 A 
HETATM   27  C   UNL     1      44.700 -21.248   4.337  1.00  0.00     0.014 A 
HETATM   28  C   UNL     1      44.818 -22.372   3.517  1.00  0.00     0.001 A 
HETATM   29  C   UNL     1      44.438 -22.305   2.179  1.00  0.00     0.000 A 
HETATM   30  C   UNL     1      43.937 -21.114   1.659  1.00  0.00     0.001 A 
HETATM   31  C   UNL     1      43.822 -19.987   2.478  1.00  0.00     0.014 A 
ENDBRANCH  24  26
ENDBRANCH  19  20
ENDBRANCH   1  19
TORSDOF 5
ENDMDL
MODEL 4
REMARK VINA RESULT:      -8.8      2.186      5.791
REMARK  5 active torsions:
REMARK  status: ('A' for Active; 'I' for Inactive)
REMARK    1  A    between atoms: C_8  and  N_9 
REMARK    2  A    between atoms: C_12  and  N_13 
REMARK    3  A    between atoms: N_13  and  C_15 
REMARK    4  A    between atoms: C_15  and  C_16 
REMARK    5  A    between atoms: C_20  and  C_21 
ROOT
HETATM    1  N   UNL     1      41.103 -14.713   3.923  1.00  0.00    -0.065 N 
HETATM    2  H   UNL     1      40.780 -15.429   3.266  1.00  0.00     0.280 HD
HETATM    3  C   UNL     1      40.492 -15.036   5.273  1.00  0.00     0.270 C 
ENDROOT
BRANCH   1   4
HETATM    4  C   UNL     1      40.667 -13.327   3.400  1.00  0.00     0.191 C 
HETATM    5  C   UNL     1      41.756 -12.620   2.580  1.00  0.00     0.053 C 
HETATM    6  C   UNL     1      41.958 -13.240   1.200  1.00  0.00     0.126 C 
HETATM    7  N   UNL     1      40.671 -13.250   0.494  1.00  0.00    -0.366 N 
HETATM    8  C   UNL     1      39.607 -14.006   1.161  1.00  0.00     0.126 C 
HETATM    9  C   UNL     1      39.380 -13.423   2.555  1.00  0.00     0.053 C 
BRANCH   7  10
HETATM   10  C   UNL     1      40.763 -13.439  -0.891  1.00  0.00     0.129 A 
HETATM   11  N   UNL     1      40.308 -14.579  -1.441  1.00  0.00    -0.218 NA
HETATM   12  C   UNL     1      40.491 -14.764  -2.773  1.00  0.00     0.102 A 
HETATM   13  N   UNL     1      41.110 -13.872  -3.558  1.00  0.00    -0.348 N 
HETATM   14  C   UNL     1      40.017 -16.046  -3.379  1.00  0.00     0.091 C 
HETATM   15  C   UNL     1      41.569 -12.723  -3.041  1.00  0.00     0.010 A 
HETATM   16  H   UNL     1      41.238 -14.081  -4.548  1.00  0.00     0.167 HD
HETATM   17  C   UNL     1      42.282 -11.757  -3.931  1.00  0.00     0.068 C 
HETATM   18  C   UNL     1      41.399 -12.484  -1.677  1.00  0.00     0.075 A 
ENDBRANCH   7  10
ENDBRANCH   1   4
BRANCH   1  19
HETATM   19  C   UNL     1      42.628 -14.928   4.022  1.00  0.00     0.295 C 
BRANCH  19  20
HETATM   20  C   UNL     1      43.194 -16.191   3.447  1.00  0.00     0.082 A 
HETATM   21  N   UNL     1      43.770 -16.205   2.238  1.00  0.00    -0.177 NA
HETATM   22  N   UNL     1      44.116 -17.496   2.053  1.00  0.00    -0.277 N 
HETATM   23  H   UNL     1      44.584 -17.762   1.191  1.00  0.00     0.189 HD
HETATM   24  C   UNL     1      43.791 -18.313   3.105  1.00  0.00     0.062 A 
HETATM   25  C   UNL     1      43.202 -17.478   4.035  1.00  0.00     0.062 A 
BRANCH  24  26
HETATM   26  C   UNL     1      44.072 -19.746   3.128  1.00  0.00    -0.008 A 
HETATM   27  C   UNL     1      43.869 -20.526   1.981  1.00  0.00     0.014 A 
HETATM   28  C   UNL     1      44.129 -21.898   1.999  1.00  0.00     0.001 A 
HETATM   29  C   UNL     1      44.600 -22.506   3.161  1.00  0.00     0.000 A 
HETATM   30  C   UNL     1      44.814 -21.742   4.305  1.00  0.00     0.001 A 
HETATM   31  C   UNL     1      44.551 -20.369   4.290  1.00  0.00     0.014 A 
ENDBRANCH  24  26
ENDBRANCH  19  20
ENDBRANCH   1  19
TORSDOF 5
ENDMDL
MODEL 5
REMARK VINA RESULT:      -8.8      4.178      9.035
REMARK  5 active torsions:
REMARK  status: ('A' for Active; 'I' for Inactive)
REMARK    1  A    between atoms: C_8  and  N_9 
REMARK    2  A    between atoms: C_12  and  N_13 
REMARK    3  A    between atoms: N_13  and  C_15 
REMARK    4  A    between atoms: C_15  and  C_16 
REMARK    5  A    between atoms: C_20  and  C_21 
ROOT
HETATM    1  N   UNL     1      40.853 -12.320   6.397  1.00  0.00    -0.065 N 
HETATM    2  H   UNL     1      41.386 -13.035   6.899  1.00  0.00     0.280 HD
HETATM    3  C   UNL     1      39.441 -12.342   6.951  1.00  0.00     0.270 C 
ENDROOT
BRANCH   1   4
HETATM    4  C   UNL     1      40.893 -12.638   4.886  1.00  0.00     0.191 C 
HETATM    5  C   UNL     1      42.321 -12.766   4.333  1.00  0.00     0.053 C 
HETATM    6  C   UNL     1      43.015 -14.053   4.772  1.00  0.00     0.126 C 
HETATM    7  N   UNL     1      42.181 -15.196   4.385  1.00  0.00    -0.366 N 
HETATM    8  C   UNL     1      40.836 -15.205   4.968  1.00  0.00     0.126 C 
HETATM    9  C   UNL     1      40.107 -13.925   4.561  1.00  0.00     0.053 C 
BRANCH   7  10
HETATM   10  C   UNL     1      42.842 -16.431   4.383  1.00  0.00     0.129 A 
HETATM   11  N   UNL     1      43.609 -16.779   5.432  1.00  0.00    -0.218 NA
HETATM   12  C   UNL     1      44.302 -17.943   5.358  1.00  0.00     0.102 A 
HETATM   13  N   UNL     1      44.265 -18.752   4.291  1.00  0.00    -0.348 N 
HETATM   14  C   UNL     1      45.183 -18.315   6.508  1.00  0.00     0.091 C 
HETATM   15  C   UNL     1      43.505 -18.436   3.232  1.00  0.00     0.010 A 
HETATM   16  H   UNL     1      44.828 -19.602   4.287  1.00  0.00     0.167 HD
HETATM   17  C   UNL     1      43.502 -19.339   2.041  1.00  0.00     0.068 C 
HETATM   18  C   UNL     1      42.768 -17.252   3.263  1.00  0.00     0.075 A 
ENDBRANCH   7  10
ENDBRANCH   1   4
BRANCH   1  19
HETATM   19  C   UNL     1      41.508 -10.983   6.804  1.00  0.00     0.295 C 
BRANCH  19  20
HETATM   20  C   UNL     1      42.143 -10.901   8.159  1.00  0.00     0.082 A 
HETATM   21  N   UNL     1      43.418 -11.263   8.350  1.00  0.00    -0.177 NA
HETATM   22  N   UNL     1      43.615 -11.089   9.674  1.00  0.00    -0.277 N 
HETATM   23  H   UNL     1      44.528 -11.298  10.067  1.00  0.00     0.189 HD
HETATM   24  C   UNL     1      42.514 -10.617  10.340  1.00  0.00     0.062 A 
HETATM   25  C   UNL     1      41.544 -10.472   9.367  1.00  0.00     0.062 A 
BRANCH  24  26
HETATM   26  C   UNL     1      42.496 -10.351  11.777  1.00  0.00    -0.008 A 
HETATM   27  C   UNL     1      41.474 -10.873  12.581  1.00  0.00     0.014 A 
HETATM   28  C   UNL     1      41.447 -10.616  13.953  1.00  0.00     0.001 A 
HETATM   29  C   UNL     1      42.444  -9.841  14.539  1.00  0.00     0.000 A 
HETATM   30  C   UNL     1      43.471  -9.322  13.754  1.00  0.00     0.001 A 
HETATM   31  C   UNL     1      43.497  -9.576  12.379  1.00  0.00     0.014 A 
ENDBRANCH  24  26
ENDBRANCH  19  20
ENDBRANCH   1  19
TORSDOF 5
ENDMDL
MODEL 6
REMARK VINA RESULT:      -8.5      2.679      6.579
REMARK  5 active torsions:
REMARK  status: ('A' for Active; 'I' for Inactive)
REMARK    1  A    between atoms: C_8  and  N_9 
REMARK    2  A    between atoms: C_12  and  N_13 
REMARK    3  A    between atoms: N_13  and  C_15 
REMARK    4  A    between atoms: C_15  and  C_16 
REMARK    5  A    between atoms: C_20  and  C_21 
ROOT
HETATM    1  N   UNL     1      41.259 -14.069   2.751  1.00  0.00    -0.065 N 
HETATM    2  H   UNL     1      40.802 -14.796   2.194  1.00  0.00     0.280 HD
HETATM    3  C   UNL     1      40.501 -13.965   4.061  1.00  0.00     0.270 C 
ENDROOT
BRANCH   1   4
HETATM    4  C   UNL     1      41.234 -12.745   1.954  1.00  0.00     0.191 C 
HETATM    5  C   UNL     1      41.922 -12.851   0.585  1.00  0.00     0.053 C 
HETATM    6  C   UNL     1      41.106 -13.647  -0.429  1.00  0.00     0.126 C 
HETATM    7  N   UNL     1      39.773 -13.046  -0.540  1.00  0.00    -0.366 N 
HETATM    8  C   UNL     1      39.005 -13.014   0.709  1.00  0.00     0.126 C 
HETATM    9  C   UNL     1      39.792 -12.233   1.759  1.00  0.00     0.053 C 
BRANCH   7  10
HETATM   10  C   UNL     1      39.050 -13.425  -1.679  1.00  0.00     0.129 A 
HETATM   11  N   UNL     1      39.362 -14.567  -2.318  1.00  0.00    -0.218 NA
HETATM   12  C   UNL     1      38.699 -14.858  -3.465  1.00  0.00     0.102 A 
HETATM   13  N   UNL     1      37.760 -14.061  -3.993  1.00  0.00    -0.348 N 
HETATM   14  C   UNL     1      39.069 -16.110  -4.196  1.00  0.00     0.091 C 
HETATM   15  C   UNL     1      37.422 -12.919  -3.375  1.00  0.00     0.010 A 
HETATM   16  H   UNL     1      37.315 -14.325  -4.871  1.00  0.00     0.167 HD
HETATM   17  C   UNL     1      36.393 -12.032  -3.997  1.00  0.00     0.068 C 
HETATM   18  C   UNL     1      38.071 -12.579  -2.189  1.00  0.00     0.075 A 
ENDBRANCH   7  10
ENDBRANCH   1   4
BRANCH   1  19
HETATM   19  C   UNL     1      42.665 -14.628   3.053  1.00  0.00     0.295 C 
BRANCH  19  20
HETATM   20  C   UNL     1      42.972 -16.025   2.604  1.00  0.00     0.082 A 
HETATM   21  N   UNL     1      42.866 -16.378   1.317  1.00  0.00    -0.177 NA
HETATM   22  N   UNL     1      43.180 -17.691   1.310  1.00  0.00    -0.277 N 
HETATM   23  H   UNL     1      43.175 -18.193   0.426  1.00  0.00     0.189 HD
HETATM   24  C   UNL     1      43.495 -18.192   2.546  1.00  0.00     0.062 A 
HETATM   25  C   UNL     1      43.381 -17.117   3.405  1.00  0.00     0.062 A 
BRANCH  24  26
HETATM   26  C   UNL     1      43.868 -19.585   2.778  1.00  0.00    -0.008 A 
HETATM   27  C   UNL     1      43.627 -20.557   1.797  1.00  0.00     0.014 A 
HETATM   28  C   UNL     1      43.976 -21.891   2.017  1.00  0.00     0.001 A 
HETATM   29  C   UNL     1      44.575 -22.269   3.216  1.00  0.00     0.000 A 
HETATM   30  C   UNL     1      44.829 -21.314   4.196  1.00  0.00     0.001 A 
HETATM   31  C   UNL     1      44.477 -19.978   3.979  1.00  0.00     0.014 A 
ENDBRANCH  24  26
ENDBRANCH  19  20
ENDBRANCH   1  19
TORSDOF 5
ENDMDL
MODEL 7
REMARK VINA RESULT:      -8.5      4.778      5.621
REMARK  5 active torsions:
REMARK  status: ('A' for Active; 'I' for Inactive)
REMARK    1  A    between atoms: C_8  and  N_9 
REMARK    2  A    between atoms: C_12  and  N_13 
REMARK    3  A    between atoms: N_13  and  C_15 
REMARK    4  A    between atoms: C_15  and  C_16 
REMARK    5  A    between atoms: C_20  and  C_21 
ROOT
HETATM    1  N   UNL     1      41.455 -13.755   6.109  1.00  0.00    -0.065 N 
HETATM    2  H   UNL     1      41.654 -13.790   7.113  1.00  0.00     0.280 HD
HETATM    3  C   UNL     1      42.787 -13.814   5.386  1.00  0.00     0.270 C 
ENDROOT
BRANCH   1   4
HETATM    4  C   UNL     1      40.679 -12.456   5.801  1.00  0.00     0.191 C 
HETATM    5  C   UNL     1      39.268 -12.436   6.408  1.00  0.00     0.053 C 
HETATM    6  C   UNL     1      39.275 -12.247   7.922  1.00  0.00     0.126 C 
HETATM    7  N   UNL     1      40.018 -11.023   8.242  1.00  0.00    -0.366 N 
HETATM    8  C   UNL     1      41.414 -11.013   7.795  1.00  0.00     0.126 C 
HETATM    9  C   UNL     1      41.454 -11.211   6.281  1.00  0.00     0.053 C 
BRANCH   7  10
HETATM   10  C   UNL     1      39.798 -10.524   9.533  1.00  0.00     0.129 A 
HETATM   11  N   UNL     1      40.382 -11.120  10.588  1.00  0.00    -0.218 NA
HETATM   12  C   UNL     1      40.079 -10.663  11.829  1.00  0.00     0.102 A 
HETATM   13  N   UNL     1      39.221  -9.657  12.051  1.00  0.00    -0.348 N 
HETATM   14  C   UNL     1      40.699 -11.347  13.005  1.00  0.00     0.091 C 
HETATM   15  C   UNL     1      38.628  -9.038  11.019  1.00  0.00     0.010 A 
HETATM   16  H   UNL     1      39.017  -9.376  13.009  1.00  0.00     0.167 HD
HETATM   17  C   UNL     1      37.654  -7.938  11.292  1.00  0.00     0.068 C 
HETATM   18  C   UNL     1      38.913  -9.468   9.723  1.00  0.00     0.075 A 
ENDBRANCH   7  10
ENDBRANCH   1   4
BRANCH   1  19
HETATM   19  C   UNL     1      40.691 -15.063   5.814  1.00  0.00     0.295 C 
BRANCH  19  20
HETATM   20  C   UNL     1      41.279 -16.003   4.806  1.00  0.00     0.082 A 
HETATM   21  N   UNL     1      41.018 -15.870   3.500  1.00  0.00    -0.177 NA
HETATM   22  N   UNL     1      41.678 -16.898   2.926  1.00  0.00    -0.277 N 
HETATM   23  H   UNL     1      41.635 -17.008   1.917  1.00  0.00     0.189 HD
HETATM   24  C   UNL     1      42.363 -17.682   3.817  1.00  0.00     0.062 A 
HETATM   25  C   UNL     1      42.129 -17.107   5.050  1.00  0.00     0.062 A 
BRANCH  24  26
HETATM   26  C   UNL     1      43.150 -18.849   3.423  1.00  0.00    -0.008 A 
HETATM   27  C   UNL     1      42.924 -19.472   2.188  1.00  0.00     0.014 A 
HETATM   28  C   UNL     1      43.668 -20.592   1.810  1.00  0.00     0.001 A 
HETATM   29  C   UNL     1      44.651 -21.097   2.657  1.00  0.00     0.000 A 
HETATM   30  C   UNL     1      44.893 -20.482   3.883  1.00  0.00     0.001 A 
HETATM   31  C   UNL     1      44.146 -19.364   4.265  1.00  0.00     0.014 A 
ENDBRANCH  24  26
ENDBRANCH  19  20
ENDBRANCH   1  19
TORSDOF 5
ENDMDL
MODEL 8
REMARK VINA RESULT:      -8.3      3.634      4.650
REMARK  5 active torsions:
REMARK  status: ('A' for Active; 'I' for Inactive)
REMARK    1  A    between atoms: C_8  and  N_9 
REMARK    2  A    between atoms: C_12  and  N_13 
REMARK    3  A    between atoms: N_13  and  C_15 
REMARK    4  A    between atoms: C_15  and  C_16 
REMARK    5  A    between atoms: C_20  and  C_21 
ROOT
HETATM    1  N   UNL     1      41.662 -14.617   3.478  1.00  0.00    -0.065 N 
HETATM    2  H   UNL     1      41.466 -13.636   3.267  1.00  0.00     0.280 HD
HETATM    3  C   UNL     1      40.588 -15.445   2.798  1.00  0.00     0.270 C 
ENDROOT
BRANCH   1   4
HETATM    4  C   UNL     1      41.662 -14.805   5.012  1.00  0.00     0.191 C 
HETATM    5  C   UNL     1      42.480 -13.736   5.752  1.00  0.00     0.053 C 
HETATM    6  C   UNL     1      41.796 -12.372   5.770  1.00  0.00     0.126 C 
HETATM    7  N   UNL     1      40.456 -12.523   6.349  1.00  0.00    -0.366 N 
HETATM    8  C   UNL     1      39.573 -13.445   5.628  1.00  0.00     0.126 C 
HETATM    9  C   UNL     1      40.226 -14.824   5.576  1.00  0.00     0.053 C 
BRANCH   7  10
HETATM   10  C   UNL     1      39.860 -11.328   6.771  1.00  0.00     0.129 A 
HETATM   11  N   UNL     1      39.664 -10.332   5.888  1.00  0.00    -0.218 NA
HETATM   12  C   UNL     1      39.163  -9.158   6.349  1.00  0.00     0.102 A 
HETATM   13  N   UNL     1      38.868  -8.943   7.638  1.00  0.00    -0.348 N 
HETATM   14  C   UNL     1      38.977  -8.039   5.375  1.00  0.00     0.091 C 
HETATM   15  C   UNL     1      39.047  -9.918   8.542  1.00  0.00     0.010 A 
HETATM   16  H   UNL     1      38.517  -8.030   7.926  1.00  0.00     0.167 HD
HETATM   17  C   UNL     1      38.738  -9.646   9.978  1.00  0.00     0.068 C 
HETATM   18  C   UNL     1      39.553 -11.146   8.115  1.00  0.00     0.075 A 
ENDBRANCH   7  10
ENDBRANCH   1   4
BRANCH   1  19
HETATM   19  C   UNL     1      43.007 -14.910   2.781  1.00  0.00     0.295 C 
BRANCH  19  20
HETATM   20  C   UNL     1      43.337 -16.339   2.471  1.00  0.00     0.082 A 
HETATM   21  N   UNL     1      43.387 -16.780   1.208  1.00  0.00    -0.177 NA
HETATM   22  N   UNL     1      43.670 -18.094   1.330  1.00  0.00    -0.277 N 
HETATM   23  H   UNL     1      43.766 -18.657   0.490  1.00  0.00     0.189 HD
HETATM   24  C   UNL     1      43.815 -18.512   2.628  1.00  0.00     0.062 A 
HETATM   25  C   UNL     1      43.617 -17.378   3.390  1.00  0.00     0.062 A 
BRANCH  24  26
HETATM   26  C   UNL     1      44.125 -19.890   3.000  1.00  0.00    -0.008 A 
HETATM   27  C   UNL     1      44.572 -20.191   4.293  1.00  0.00     0.014 A 
HETATM   28  C   UNL     1      44.877 -21.506   4.652  1.00  0.00     0.001 A 
HETATM   29  C   UNL     1      44.733 -22.536   3.726  1.00  0.00     0.000 A 
HETATM   30  C   UNL     1      44.282 -22.252   2.439  1.00  0.00     0.001 A 
HETATM   31  C   UNL     1      43.980 -20.936   2.077  1.00  0.00     0.014 A 
ENDBRANCH  24  26
ENDBRANCH  19  20
ENDBRANCH   1  19
TORSDOF 5
ENDMDL
MODEL 9
REMARK VINA RESULT:      -8.3      4.654      5.621
REMARK  5 active torsions:
REMARK  status: ('A' for Active; 'I' for Inactive)
REMARK    1  A    between atoms: C_8  and  N_9 
REMARK    2  A    between atoms: C_12  and  N_13 
REMARK    3  A    between atoms: N_13  and  C_15 
REMARK    4  A    between atoms: C_15  and  C_16 
REMARK    5  A    between atoms: C_20  and  C_21 
ROOT
HETATM    1  N   UNL     1      41.325 -13.950   6.221  1.00  0.00    -0.065 N 
HETATM    2  H   UNL     1      41.346 -13.999   7.243  1.00  0.00     0.280 HD
HETATM    3  C   UNL     1      42.761 -14.027   5.739  1.00  0.00     0.270 C 
ENDROOT
BRANCH   1   4
HETATM    4  C   UNL     1      40.636 -12.633   5.800  1.00  0.00     0.191 C 
HETATM    5  C   UNL     1      39.277 -12.417   6.483  1.00  0.00     0.053 C 
HETATM    6  C   UNL     1      39.405 -12.050   7.959  1.00  0.00     0.126 C 
HETATM    7  N   UNL     1      40.265 -10.867   8.079  1.00  0.00    -0.366 N 
HETATM    8  C   UNL     1      41.622 -11.034   7.552  1.00  0.00     0.126 C 
HETATM    9  C   UNL     1      41.541 -11.413   6.074  1.00  0.00     0.053 C 
BRANCH   7  10
HETATM   10  C   UNL     1      40.177 -10.200   9.308  1.00  0.00     0.129 A 
HETATM   11  N   UNL     1      38.971  -9.977   9.862  1.00  0.00    -0.218 NA
HETATM   12  C   UNL     1      38.918  -9.254  11.008  1.00  0.00     0.102 A 
HETATM   13  N   UNL     1      40.005  -8.745  11.605  1.00  0.00    -0.348 N 
HETATM   14  C   UNL     1      37.576  -8.975  11.606  1.00  0.00     0.091 C 
HETATM   15  C   UNL     1      41.221  -8.955  11.081  1.00  0.00     0.010 A 
HETATM   16  H   UNL     1      39.896  -8.189  12.452  1.00  0.00     0.167 HD
HETATM   17  C   UNL     1      42.416  -8.354  11.747  1.00  0.00     0.068 C 
HETATM   18  C   UNL     1      41.328  -9.699   9.905  1.00  0.00     0.075 A 
ENDBRANCH   7  10
ENDBRANCH   1   4
BRANCH   1  19
HETATM   19  C   UNL     1      40.601 -15.240   5.780  1.00  0.00     0.295 C 
BRANCH  19  20
HETATM   20  C   UNL     1      41.283 -16.115   4.773  1.00  0.00     0.082 A 
HETATM   21  N   UNL     1      41.243 -15.828   3.466  1.00  0.00    -0.177 NA
HETATM   22  N   UNL     1      41.922 -16.840   2.886  1.00  0.00    -0.277 N 
HETATM   23  H   UNL     1      42.034 -16.842   1.876  1.00  0.00     0.189 HD
HETATM   24  C   UNL     1      42.407 -17.763   3.775  1.00  0.00     0.062 A 
HETATM   25  C   UNL     1      42.015 -17.301   5.017  1.00  0.00     0.062 A 
BRANCH  24  26
HETATM   26  C   UNL     1      43.173 -18.941   3.375  1.00  0.00    -0.008 A 
HETATM   27  C   UNL     1      44.157 -19.468   4.223  1.00  0.00     0.014 A 
HETATM   28  C   UNL     1      44.897 -20.589   3.843  1.00  0.00     0.001 A 
HETATM   29  C   UNL     1      44.660 -21.200   2.614  1.00  0.00     0.000 A 
HETATM   30  C   UNL     1      43.680 -20.693   1.765  1.00  0.00     0.001 A 
HETATM   31  C   UNL     1      42.941 -19.568   2.143  1.00  0.00     0.014 A 
ENDBRANCH  24  26
ENDBRANCH  19  20
ENDBRANCH   1  19
TORSDOF 5
ENDMDL
MODEL 10
REMARK VINA RESULT:      -8.1      2.335      6.317
REMARK  5 active torsions:
REMARK  status: ('A' for Active; 'I' for Inactive)
REMARK    1  A    between atoms: C_8  and  N_9 
REMARK    2  A    between atoms: C_12  and  N_13 
REMARK    3  A    between atoms: N_13  and  C_15 
REMARK    4  A    between atoms: C_15  and  C_16 
REMARK    5  A    between atoms: C_20  and  C_21 
ROOT
HETATM    1  N   UNL     1      41.501 -14.970   3.126  1.00  0.00    -0.065 N 
HETATM    2  H   UNL     1      41.059 -14.055   3.246  1.00  0.00     0.280 HD
HETATM    3  C   UNL     1      42.835 -14.737   2.443  1.00  0.00     0.270 C 
ENDROOT
BRANCH   1   4
HETATM    4  C   UNL     1      40.564 -15.870   2.290  1.00  0.00     0.191 C 
HETATM    5  C   UNL     1      39.214 -15.209   1.975  1.00  0.00     0.053 C 
HETATM    6  C   UNL     1      39.324 -14.101   0.931  1.00  0.00     0.126 C 
HETATM    7  N   UNL     1      39.951 -14.649  -0.276  1.00  0.00    -0.366 N 
HETATM    8  C   UNL     1      41.297 -15.197  -0.078  1.00  0.00     0.126 C 
HETATM    9  C   UNL     1      41.234 -16.306   0.971  1.00  0.00     0.053 C 
BRANCH   7  10
HETATM   10  C   UNL     1      39.784 -13.872  -1.430  1.00  0.00     0.129 A 
HETATM   11  N   UNL     1      38.565 -13.758  -1.987  1.00  0.00    -0.218 NA
HETATM   12  C   UNL     1      38.457 -13.068  -3.151  1.00  0.00     0.102 A 
HETATM   13  N   UNL     1      39.503 -12.508  -3.772  1.00  0.00    -0.348 N 
HETATM   14  C   UNL     1      37.108 -12.970  -3.790  1.00  0.00     0.091 C 
HETATM   15  C   UNL     1      40.731 -12.599  -3.238  1.00  0.00     0.010 A 
HETATM   16  H   UNL     1      39.360 -12.024  -4.657  1.00  0.00     0.167 HD
HETATM   17  C   UNL     1      41.887 -11.992  -3.963  1.00  0.00     0.068 C 
HETATM   18  C   UNL     1      40.892 -13.293  -2.038  1.00  0.00     0.075 A 
ENDBRANCH   7  10
ENDBRANCH   1   4
BRANCH   1  19
HETATM   19  C   UNL     1      41.777 -15.465   4.562  1.00  0.00     0.295 C 
BRANCH  19  20
HETATM   20  C   UNL     1      42.671 -16.656   4.730  1.00  0.00     0.082 A 
HETATM   21  N   UNL     1      43.731 -16.617   5.548  1.00  0.00    -0.177 NA
HETATM   22  N   UNL     1      44.299 -17.833   5.409  1.00  0.00    -0.277 N 
HETATM   23  H   UNL     1      45.134 -18.050   5.945  1.00  0.00     0.189 HD
HETATM   24  C   UNL     1      43.636 -18.658   4.538  1.00  0.00     0.062 A 
HETATM   25  C   UNL     1      42.560 -17.915   4.094  1.00  0.00     0.062 A 
BRANCH  24  26
HETATM   26  C   UNL     1      44.067 -20.020   4.234  1.00  0.00    -0.008 A 
HETATM   27  C   UNL     1      44.040 -20.494   2.915  1.00  0.00     0.014 A 
HETATM   28  C   UNL     1      44.444 -21.798   2.619  1.00  0.00     0.001 A 
HETATM   29  C   UNL     1      44.885 -22.641   3.636  1.00  0.00     0.000 A 
HETATM   30  C   UNL     1      44.925 -22.181   4.950  1.00  0.00     0.001 A 
HETATM   31  C   UNL     1      44.517 -20.878   5.248  1.00  0.00     0.014 A 
ENDBRANCH  24  26
ENDBRANCH  19  20
ENDBRANCH   1  19
TORSDOF 5
ENDMDL
