MODEL 1
REMARK VINA RESULT:     -10.4      0.000      0.000
REMARK  5 active torsions:
REMARK  status: ('A' for Active; 'I' for Inactive)
REMARK    1  A    between atoms: C_6  and  N_7 
REMARK       I    between atoms: N_7  and  C_8 
REMARK    2  A    between atoms: C_8  and  C_9 
REMARK    3  A    between atoms: C_10  and  N_11 
REMARK    4  A    between atoms: N_12  and  N_13 
REMARK    5  A    between atoms: C_14  and  C_15 
ROOT
HETATM    1  C   UNL     1      41.687 -15.342   2.900  1.00  0.00     0.099 C 
HETATM    2  C   UNL     1      40.453 -15.273   2.184  1.00  0.00     0.101 C 
HETATM    3  N   UNL     1      40.417 -13.945   1.939  1.00  0.00    -0.107 NA
HETATM    4  C   UNL     1      40.657 -13.671   3.269  1.00  0.00     0.162 C 
HETATM    5  C   UNL     1      42.035 -13.959   3.459  1.00  0.00     0.118 C 
HETATM    6  N   UNL     1      42.327 -12.679   3.965  1.00  0.00    -0.242 NA
HETATM    7  C   UNL     1      41.351 -12.106   4.875  1.00  0.00     0.086 C 
HETATM    8  C   UNL     1      40.455 -13.022   5.340  1.00  0.00     0.087 C 
HETATM    9  N   UNL     1      39.873 -13.752   4.390  1.00  0.00    -0.230 NA
HETATM   10  C   UNL     1      40.859 -10.800   5.232  1.00  0.00     0.034 C 
HETATM   11  C   UNL     1      39.882 -10.608   6.250  1.00  0.00     0.002 C 
HETATM   12  C   UNL     1      39.533 -11.686   7.049  1.00  0.00     0.002 C 
HETATM   13  C   UNL     1      39.897 -12.936   6.602  1.00  0.00     0.034 C 
ENDROOT
BRANCH   1  14
HETATM   14  C   UNL     1      42.117 -16.752   3.134  1.00  0.00     0.261 C 
HETATM   15  N   UNL     1      43.268 -17.357   2.615  1.00  0.00    -0.323 N 
HETATM   16  H   UNL     1      43.595 -17.075   1.703  1.00  0.00     0.169 HD
HETATM   17  O   UNL     1      41.379 -17.428   3.866  1.00  0.00    -0.267 OA
BRANCH  15  18
HETATM   18  C   UNL     1      43.776 -18.582   3.207  1.00  0.00     0.035 C 
HETATM   19  C   UNL     1      43.632 -19.808   2.539  1.00  0.00     0.037 C 
HETATM   20  C   UNL     1      44.245 -20.996   2.957  1.00  0.00    -0.054 C 
HETATM   21  C   UNL     1      44.678 -21.085   4.276  1.00  0.00    -0.056 C 
HETATM   22  C   UNL     1      44.626 -21.987   1.887  1.00  0.00     0.049 C 
HETATM   23  C   UNL     1      44.839 -22.427   4.941  1.00  0.00     0.049 C 
HETATM   24  C   UNL     1      44.799 -19.883   5.001  1.00  0.00     0.009 C 
HETATM   25  C   UNL     1      44.425 -18.630   4.443  1.00  0.00     0.030 C 
ENDBRANCH  15  18
ENDBRANCH   1  14
BRANCH   2  26
HETATM   26  N   UNL     1      39.435 -16.094   1.812  1.00  0.00    -0.291 NA
HETATM   27  H   UNL     1      39.712 -16.800   1.121  1.00  0.00     0.125 HD
HETATM   28  H   UNL     1      38.992 -16.574   2.602  1.00  0.00     0.125 HD
ENDBRANCH   2  26
BRANCH   3  29
HETATM   29  N   UNL     1      41.004 -13.368   0.793  1.00  0.00    -0.198 NA
HETATM   30  C   UNL     1      40.450 -13.786  -0.311  1.00  0.00     0.147 C 
BRANCH  30  31
HETATM   31  C   UNL     1      40.998 -13.522  -1.634  1.00  0.00     0.010 A 
HETATM   32  C   UNL     1      41.415 -12.240  -2.153  1.00  0.00     0.004 A 
HETATM   33  C   UNL     1      41.892 -12.445  -3.449  1.00  0.00     0.043 A 
HETATM   34  C   UNL     1      41.440 -10.918  -1.647  1.00  0.00     0.014 A 
HETATM   35  C   UNL     1      42.426 -11.417  -4.241  1.00  0.00     0.030 A 
HETATM   36  N   UNL     1      41.718 -13.780  -3.733  1.00  0.00    -0.364 N 
HETATM   37  C   UNL     1      42.458 -10.127  -3.705  1.00  0.00     0.002 A 
HETATM   38  C   UNL     1      41.960  -9.875  -2.429  1.00  0.00     0.001 A 
HETATM   39  H   UNL     1      41.955 -14.209  -4.617  1.00  0.00     0.165 HD
HETATM   40  C   UNL     1      41.168 -14.431  -2.659  1.00  0.00     0.102 A 
ENDBRANCH  30  31
ENDBRANCH   3  29
TORSDOF 5
ENDMDL
MODEL 2
REMARK VINA RESULT:     -10.2      2.955      9.013
REMARK  5 active torsions:
REMARK  status: ('A' for Active; 'I' for Inactive)
REMARK    1  A    between atoms: C_6  and  N_7 
REMARK       I    between atoms: N_7  and  C_8 
REMARK    2  A    between atoms: C_8  and  C_9 
REMARK    3  A    between atoms: C_10  and  N_11 
REMARK    4  A    between atoms: N_12  and  N_13 
REMARK    5  A    between atoms: C_14  and  C_15 
ROOT
HETATM    1  C   UNL     1      41.653 -12.657   5.422  1.00  0.00     0.099 C 
HETATM    2  C   UNL     1      40.842 -13.788   5.740  1.00  0.00     0.101 C 
HETATM    3  N   UNL     1      41.345 -14.674   4.853  1.00  0.00    -0.107 NA
HETATM    4  C   UNL     1      41.192 -13.767   3.826  1.00  0.00     0.162 C 
HETATM    5  C   UNL     1      42.236 -12.822   4.015  1.00  0.00     0.118 C 
HETATM    6  N   UNL     1      42.752 -12.997   2.718  1.00  0.00    -0.242 NA
HETATM    7  C   UNL     1      41.780 -13.124   1.647  1.00  0.00     0.086 C 
HETATM    8  C   UNL     1      40.524 -12.746   2.020  1.00  0.00     0.087 C 
HETATM    9  N   UNL     1      40.093 -13.311   3.146  1.00  0.00    -0.230 NA
HETATM   10  C   UNL     1      41.670 -13.793   0.376  1.00  0.00     0.034 C 
HETATM   11  C   UNL     1      40.530 -13.645  -0.465  1.00  0.00     0.002 C 
HETATM   12  C   UNL     1      39.584 -12.685  -0.140  1.00  0.00     0.002 C 
HETATM   13  C   UNL     1      39.632 -12.170   1.135  1.00  0.00     0.034 C 
ENDROOT
BRANCH   1  14
HETATM   14  C   UNL     1      41.470 -11.547   6.403  1.00  0.00     0.261 C 
HETATM   15  N   UNL     1      40.881 -11.658   7.667  1.00  0.00    -0.323 N 
HETATM   16  H   UNL     1      40.130 -12.320   7.797  1.00  0.00     0.169 HD
HETATM   17  O   UNL     1      41.896 -10.437   6.050  1.00  0.00    -0.267 OA
BRANCH  15  18
HETATM   18  C   UNL     1      41.100 -10.626   8.666  1.00  0.00     0.035 C 
HETATM   19  C   UNL     1      42.021 -10.826   9.706  1.00  0.00     0.037 C 
HETATM   20  C   UNL     1      42.414  -9.821  10.599  1.00  0.00    -0.054 C 
HETATM   21  C   UNL     1      41.594  -8.706  10.737  1.00  0.00    -0.056 C 
HETATM   22  C   UNL     1      43.818  -9.896  11.144  1.00  0.00     0.049 C 
HETATM   23  C   UNL     1      41.634  -7.877  11.994  1.00  0.00     0.049 C 
HETATM   24  C   UNL     1      40.626  -8.485   9.738  1.00  0.00     0.009 C 
HETATM   25  C   UNL     1      40.432  -9.399   8.666  1.00  0.00     0.030 C 
ENDBRANCH  15  18
ENDBRANCH   1  14
BRANCH   2  26
HETATM   26  N   UNL     1      39.800 -14.108   6.553  1.00  0.00    -0.291 NA
HETATM   27  H   UNL     1      40.057 -14.167   7.543  1.00  0.00     0.125 HD
HETATM   28  H   UNL     1      39.006 -13.465   6.465  1.00  0.00     0.125 HD
ENDBRANCH   2  26
BRANCH   3  29
HETATM   29  N   UNL     1      42.448 -15.502   5.150  1.00  0.00    -0.198 NA
HETATM   30  C   UNL     1      42.493 -16.559   4.389  1.00  0.00     0.147 C 
BRANCH  30  31
HETATM   31  C   UNL     1      43.393 -17.680   4.622  1.00  0.00     0.010 A 
HETATM   32  C   UNL     1      43.600 -18.814   3.751  1.00  0.00     0.004 A 
HETATM   33  C   UNL     1      44.558 -19.636   4.350  1.00  0.00     0.043 A 
HETATM   34  C   UNL     1      43.071 -19.225   2.504  1.00  0.00     0.014 A 
HETATM   35  C   UNL     1      45.039 -20.812   3.753  1.00  0.00     0.030 A 
HETATM   36  N   UNL     1      44.876 -19.064   5.559  1.00  0.00    -0.364 N 
HETATM   37  C   UNL     1      44.513 -21.178   2.511  1.00  0.00     0.002 A 
HETATM   38  C   UNL     1      43.533 -20.403   1.898  1.00  0.00     0.001 A 
HETATM   39  H   UNL     1      45.530 -19.459   6.221  1.00  0.00     0.165 HD
HETATM   40  C   UNL     1      44.173 -17.901   5.741  1.00  0.00     0.102 A 
ENDBRANCH  30  31
ENDBRANCH   3  29
TORSDOF 5
ENDMDL
MODEL 3
REMARK VINA RESULT:     -10.0      1.162      1.669
REMARK  5 active torsions:
REMARK  status: ('A' for Active; 'I' for Inactive)
REMARK    1  A    between atoms: C_6  and  N_7 
REMARK       I    between atoms: N_7  and  C_8 
REMARK    2  A    between atoms: C_8  and  C_9 
REMARK    3  A    between atoms: C_10  and  N_11 
REMARK    4  A    between atoms: N_12  and  N_13 
REMARK    5  A    between atoms: C_14  and  C_15 
ROOT
HETATM    1  C   UNL     1      42.147 -15.304   2.730  1.00  0.00     0.099 C 
HETATM    2  C   UNL     1      41.057 -15.109   1.828  1.00  0.00     0.101 C 
HETATM    3  N   UNL     1      41.124 -13.767   1.691  1.00  0.00    -0.107 NA
HETATM    4  C   UNL     1      41.146 -13.607   3.061  1.00  0.00     0.162 C 
HETATM    5  C   UNL     1      42.457 -13.989   3.453  1.00  0.00     0.118 C 
HETATM    6  N   UNL     1      42.716 -12.770   4.105  1.00  0.00    -0.242 NA
HETATM    7  C   UNL     1      41.627 -12.209   4.885  1.00  0.00     0.086 C 
HETATM    8  C   UNL     1      40.623 -13.103   5.116  1.00  0.00     0.087 C 
HETATM    9  N   UNL     1      40.179 -13.725   4.025  1.00  0.00    -0.230 NA
HETATM   10  C   UNL     1      41.141 -10.907   5.262  1.00  0.00     0.034 C 
HETATM   11  C   UNL     1      40.014 -10.734   6.116  1.00  0.00     0.002 C 
HETATM   12  C   UNL     1      39.485 -11.846   6.753  1.00  0.00     0.002 C 
HETATM   13  C   UNL     1      39.863 -13.079   6.271  1.00  0.00     0.034 C 
ENDROOT
BRANCH   1  14
HETATM   14  C   UNL     1      42.466 -16.751   2.915  1.00  0.00     0.261 C 
HETATM   15  N   UNL     1      43.615 -17.403   2.454  1.00  0.00    -0.323 N 
HETATM   16  H   UNL     1      44.034 -17.096   1.589  1.00  0.00     0.169 HD
HETATM   17  O   UNL     1      41.628 -17.413   3.545  1.00  0.00    -0.267 OA
BRANCH  15  18
HETATM   18  C   UNL     1      43.994 -18.689   3.011  1.00  0.00     0.035 C 
HETATM   19  C   UNL     1      43.750 -19.874   2.297  1.00  0.00     0.037 C 
HETATM   20  C   UNL     1      44.240 -21.128   2.684  1.00  0.00    -0.054 C 
HETATM   21  C   UNL     1      44.635 -21.301   4.006  1.00  0.00    -0.056 C 
HETATM   22  C   UNL     1      44.549 -22.113   1.586  1.00  0.00     0.049 C 
HETATM   23  C   UNL     1      44.656 -22.674   4.626  1.00  0.00     0.049 C 
HETATM   24  C   UNL     1      44.853 -20.141   4.776  1.00  0.00     0.009 C 
HETATM   25  C   UNL     1      44.609 -18.840   4.256  1.00  0.00     0.030 C 
ENDBRANCH  15  18
ENDBRANCH   1  14
BRANCH   2  26
HETATM   26  N   UNL     1      40.081 -15.839   1.224  1.00  0.00    -0.291 NA
HETATM   27  H   UNL     1      40.072 -16.823   1.510  1.00  0.00     0.125 HD
HETATM   28  H   UNL     1      39.142 -15.454   1.366  1.00  0.00     0.125 HD
ENDBRANCH   2  26
BRANCH   3  29
HETATM   29  N   UNL     1      41.923 -13.142   0.712  1.00  0.00    -0.198 NA
HETATM   30  C   UNL     1      41.697 -11.861   0.631  1.00  0.00     0.147 C 
BRANCH  30  31
HETATM   31  C   UNL     1      42.220 -11.018  -0.435  1.00  0.00     0.010 A 
HETATM   32  C   UNL     1      42.082 -11.242  -1.856  1.00  0.00     0.004 A 
HETATM   33  C   UNL     1      42.716 -10.185  -2.513  1.00  0.00     0.043 A 
HETATM   34  C   UNL     1      41.473 -12.240  -2.655  1.00  0.00     0.014 A 
HETATM   35  C   UNL     1      42.736 -10.052  -3.910  1.00  0.00     0.030 A 
HETATM   36  N   UNL     1      43.270  -9.385  -1.541  1.00  0.00    -0.364 N 
HETATM   37  C   UNL     1      42.107 -11.042  -4.670  1.00  0.00     0.002 A 
HETATM   38  C   UNL     1      41.493 -12.129  -4.054  1.00  0.00     0.001 A 
HETATM   39  H   UNL     1      43.812  -8.553  -1.730  1.00  0.00     0.165 HD
HETATM   40  C   UNL     1      42.993  -9.883  -0.294  1.00  0.00     0.102 A 
ENDBRANCH  30  31
ENDBRANCH   3  29
TORSDOF 5
ENDMDL
MODEL 4
REMARK VINA RESULT:     -10.0      3.159      7.251
REMARK  5 active torsions:
REMARK  status: ('A' for Active; 'I' for Inactive)
REMARK    1  A    between atoms: C_6  and  N_7 
REMARK       I    between atoms: N_7  and  C_8 
REMARK    2  A    between atoms: C_8  and  C_9 
REMARK    3  A    between atoms: C_10  and  N_11 
REMARK    4  A    between atoms: N_12  and  N_13 
REMARK    5  A    between atoms: C_14  and  C_15 
ROOT
HETATM    1  C   UNL     1      41.406 -14.352   4.232  1.00  0.00     0.099 C 
HETATM    2  C   UNL     1      42.594 -13.559   4.249  1.00  0.00     0.101 C 
HETATM    3  N   UNL     1      42.123 -12.476   4.905  1.00  0.00    -0.107 NA
HETATM    4  C   UNL     1      41.048 -12.395   4.046  1.00  0.00     0.162 C 
HETATM    5  C   UNL     1      40.184 -13.452   4.441  1.00  0.00     0.118 C 
HETATM    6  N   UNL     1      39.080 -12.601   4.630  1.00  0.00    -0.242 NA
HETATM    7  C   UNL     1      38.894 -11.554   3.641  1.00  0.00     0.086 C 
HETATM    8  C   UNL     1      39.638 -11.748   2.515  1.00  0.00     0.087 C 
HETATM    9  N   UNL     1      40.928 -11.986   2.744  1.00  0.00    -0.230 NA
HETATM   10  C   UNL     1      38.371 -10.213   3.589  1.00  0.00     0.034 C 
HETATM   11  C   UNL     1      38.306  -9.470   2.376  1.00  0.00     0.002 C 
HETATM   12  C   UNL     1      38.576 -10.120   1.181  1.00  0.00     0.002 C 
HETATM   13  C   UNL     1      39.208 -11.340   1.266  1.00  0.00     0.034 C 
ENDROOT
BRANCH   1  14
HETATM   14  C   UNL     1      41.668 -15.738   3.741  1.00  0.00     0.261 C 
HETATM   15  N   UNL     1      42.720 -16.126   2.904  1.00  0.00    -0.323 N 
HETATM   16  H   UNL     1      43.051 -15.477   2.206  1.00  0.00     0.169 HD
HETATM   17  O   UNL     1      40.876 -16.608   4.131  1.00  0.00    -0.267 OA
BRANCH  15  18
HETATM   18  C   UNL     1      43.094 -17.526   2.808  1.00  0.00     0.035 C 
HETATM   19  C   UNL     1      43.976 -18.094   3.742  1.00  0.00     0.037 C 
HETATM   20  C   UNL     1      44.245 -19.466   3.821  1.00  0.00    -0.054 C 
HETATM   21  C   UNL     1      43.966 -20.256   2.711  1.00  0.00    -0.056 C 
HETATM   22  C   UNL     1      44.570 -20.026   5.182  1.00  0.00     0.049 C 
HETATM   23  C   UNL     1      44.685 -21.563   2.501  1.00  0.00     0.049 C 
HETATM   24  C   UNL     1      43.118 -19.714   1.725  1.00  0.00     0.009 C 
HETATM   25  C   UNL     1      42.622 -18.384   1.812  1.00  0.00     0.030 C 
ENDBRANCH  15  18
ENDBRANCH   1  14
BRANCH   2  26
HETATM   26  N   UNL     1      43.867 -13.607   3.774  1.00  0.00    -0.291 NA
HETATM   27  H   UNL     1      43.951 -14.106   2.882  1.00  0.00     0.125 HD
HETATM   28  H   UNL     1      44.294 -12.682   3.667  1.00  0.00     0.125 HD
ENDBRANCH   2  26
BRANCH   3  29
HETATM   29  N   UNL     1      42.146 -12.370   6.311  1.00  0.00    -0.198 NA
HETATM   30  C   UNL     1      41.966 -11.146   6.719  1.00  0.00     0.147 C 
BRANCH  30  31
HETATM   31  C   UNL     1      42.159 -10.722   8.099  1.00  0.00     0.010 A 
HETATM   32  C   UNL     1      43.270 -11.064   8.958  1.00  0.00     0.004 A 
HETATM   33  C   UNL     1      43.063 -10.432  10.186  1.00  0.00     0.043 A 
HETATM   34  C   UNL     1      44.439 -11.849   8.812  1.00  0.00     0.014 A 
HETATM   35  C   UNL     1      43.976 -10.508  11.249  1.00  0.00     0.030 A 
HETATM   36  N   UNL     1      41.853  -9.784  10.104  1.00  0.00    -0.364 N 
HETATM   37  C   UNL     1      45.132 -11.272  11.067  1.00  0.00     0.002 A 
HETATM   38  C   UNL     1      45.358 -11.944   9.869  1.00  0.00     0.001 A 
HETATM   39  H   UNL     1      41.436  -9.260  10.861  1.00  0.00     0.165 HD
HETATM   40  C   UNL     1      41.295  -9.964   8.865  1.00  0.00     0.102 A 
ENDBRANCH  30  31
ENDBRANCH   3  29
TORSDOF 5
ENDMDL
MODEL 5
REMARK VINA RESULT:     -10.0      3.936      8.803
REMARK  5 active torsions:
REMARK  status: ('A' for Active; 'I' for Inactive)
REMARK    1  A    between atoms: C_6  and  N_7 
REMARK       I    between atoms: N_7  and  C_8 
REMARK    2  A    between atoms: C_8  and  C_9 
REMARK    3  A    between atoms: C_10  and  N_11 
REMARK    4  A    between atoms: N_12  and  N_13 
REMARK    5  A    between atoms: C_14  and  C_15 
ROOT
HETATM    1  C   UNL     1      40.712 -11.495   6.292  1.00  0.00     0.099 C 
HETATM    2  C   UNL     1      39.844 -12.574   6.641  1.00  0.00     0.101 C 
HETATM    3  N   UNL     1      39.776 -13.196   5.444  1.00  0.00    -0.107 NA
HETATM    4  C   UNL     1      39.462 -12.008   4.820  1.00  0.00     0.162 C 
HETATM    5  C   UNL     1      40.684 -11.284   4.775  1.00  0.00     0.118 C 
HETATM    6  N   UNL     1      40.635 -11.109   3.380  1.00  0.00    -0.242 NA
HETATM    7  C   UNL     1      39.336 -10.797   2.812  1.00  0.00     0.086 C 
HETATM    8  C   UNL     1      38.423 -10.417   3.752  1.00  0.00     0.087 C 
HETATM    9  N   UNL     1      38.321 -11.249   4.786  1.00  0.00    -0.230 NA
HETATM   10  C   UNL     1      38.620 -11.029   1.584  1.00  0.00     0.034 C 
HETATM   11  C   UNL     1      37.315 -10.509   1.354  1.00  0.00     0.002 C 
HETATM   12  C   UNL     1      36.793  -9.597   2.259  1.00  0.00     0.002 C 
HETATM   13  C   UNL     1      37.420  -9.505   3.481  1.00  0.00     0.034 C 
ENDROOT
BRANCH   1  14
HETATM   14  C   UNL     1      41.154 -10.725   7.492  1.00  0.00     0.261 C 
HETATM   15  N   UNL     1      40.666 -10.883   8.794  1.00  0.00    -0.323 N 
HETATM   16  H   UNL     1      39.698 -11.139   8.922  1.00  0.00     0.169 HD
HETATM   17  O   UNL     1      42.041  -9.881   7.297  1.00  0.00    -0.267 OA
BRANCH  15  18
HETATM   18  C   UNL     1      41.421 -10.367   9.922  1.00  0.00     0.035 C 
HETATM   19  C   UNL     1      42.574 -11.031  10.370  1.00  0.00     0.037 C 
HETATM   20  C   UNL     1      43.448 -10.506  11.331  1.00  0.00    -0.054 C 
HETATM   21  C   UNL     1      42.978  -9.500  12.168  1.00  0.00    -0.056 C 
HETATM   22  C   UNL     1      44.903 -10.882  11.214  1.00  0.00     0.049 C 
HETATM   23  C   UNL     1      43.613  -9.264  13.513  1.00  0.00     0.049 C 
HETATM   24  C   UNL     1      41.800  -8.831  11.781  1.00  0.00     0.009 C 
HETATM   25  C   UNL     1      41.068  -9.211  10.622  1.00  0.00     0.030 C 
ENDBRANCH  15  18
ENDBRANCH   1  14
BRANCH   2  26
HETATM   26  N   UNL     1      39.131 -13.012   7.713  1.00  0.00    -0.291 NA
HETATM   27  H   UNL     1      38.874 -12.264   8.365  1.00  0.00     0.125 HD
HETATM   28  H   UNL     1      38.278 -13.518   7.452  1.00  0.00     0.125 HD
ENDBRANCH   2  26
BRANCH   3  29
HETATM   29  N   UNL     1      40.697 -14.189   5.051  1.00  0.00    -0.198 NA
HETATM   30  C   UNL     1      40.497 -15.322   5.665  1.00  0.00     0.147 C 
BRANCH  30  31
HETATM   31  C   UNL     1      41.428 -16.440   5.611  1.00  0.00     0.010 A 
HETATM   32  C   UNL     1      41.851 -17.152   4.427  1.00  0.00     0.004 A 
HETATM   33  C   UNL     1      42.759 -18.135   4.828  1.00  0.00     0.043 A 
HETATM   34  C   UNL     1      41.555 -17.057   3.045  1.00  0.00     0.014 A 
HETATM   35  C   UNL     1      43.412 -18.989   3.925  1.00  0.00     0.030 A 
HETATM   36  N   UNL     1      42.841 -18.068   6.199  1.00  0.00    -0.364 N 
HETATM   37  C   UNL     1      43.116 -18.855   2.566  1.00  0.00     0.002 A 
HETATM   38  C   UNL     1      42.191 -17.910   2.130  1.00  0.00     0.001 A 
HETATM   39  H   UNL     1      43.410 -18.682   6.765  1.00  0.00     0.165 HD
HETATM   40  C   UNL     1      42.036 -17.068   6.680  1.00  0.00     0.102 A 
ENDBRANCH  30  31
ENDBRANCH   3  29
TORSDOF 5
ENDMDL
MODEL 6
REMARK VINA RESULT:      -9.8      1.604      6.758
REMARK  5 active torsions:
REMARK  status: ('A' for Active; 'I' for Inactive)
REMARK    1  A    between atoms: C_6  and  N_7 
REMARK       I    between atoms: N_7  and  C_8 
REMARK    2  A    between atoms: C_8  and  C_9 
REMARK    3  A    between atoms: C_10  and  N_11 
REMARK    4  A    between atoms: N_12  and  N_13 
REMARK    5  A    between atoms: C_14  and  C_15 
ROOT
HETATM    1  C   UNL     1      41.809 -14.568   2.168  1.00  0.00     0.099 C 
HETATM    2  C   UNL     1      42.699 -13.671   2.834  1.00  0.00     0.101 C 
HETATM    3  N   UNL     1      41.976 -12.533   2.735  1.00  0.00    -0.107 NA
HETATM    4  C   UNL     1      41.808 -12.732   1.381  1.00  0.00     0.162 C 
HETATM    5  C   UNL     1      40.846 -13.773   1.280  1.00  0.00     0.118 C 
HETATM    6  N   UNL     1      39.979 -13.018   0.470  1.00  0.00    -0.242 NA
HETATM    7  C   UNL     1      40.601 -12.209  -0.563  1.00  0.00     0.086 C 
HETATM    8  C   UNL     1      41.903 -12.543  -0.789  1.00  0.00     0.087 C 
HETATM    9  N   UNL     1      42.653 -12.599   0.310  1.00  0.00    -0.230 NA
HETATM   10  C   UNL     1      40.350 -10.964  -1.243  1.00  0.00     0.034 C 
HETATM   11  C   UNL     1      41.193 -10.483  -2.284  1.00  0.00     0.002 C 
HETATM   12  C   UNL     1      42.175 -11.323  -2.787  1.00  0.00     0.002 C 
HETATM   13  C   UNL     1      42.490 -12.432  -2.036  1.00  0.00     0.034 C 
ENDROOT
BRANCH   1  14
HETATM   14  C   UNL     1      42.248 -15.989   2.301  1.00  0.00     0.261 C 
HETATM   15  N   UNL     1      43.572 -16.432   2.400  1.00  0.00    -0.323 N 
HETATM   16  H   UNL     1      44.293 -15.924   1.910  1.00  0.00     0.169 HD
HETATM   17  O   UNL     1      41.342 -16.834   2.336  1.00  0.00    -0.267 OA
BRANCH  15  18
HETATM   18  C   UNL     1      43.857 -17.765   2.903  1.00  0.00     0.035 C 
HETATM   19  C   UNL     1      44.002 -17.990   4.281  1.00  0.00     0.037 C 
HETATM   20  C   UNL     1      44.103 -19.264   4.853  1.00  0.00    -0.054 C 
HETATM   21  C   UNL     1      44.477 -20.325   4.035  1.00  0.00    -0.056 C 
HETATM   22  C   UNL     1      43.548 -19.439   6.244  1.00  0.00     0.049 C 
HETATM   23  C   UNL     1      45.113 -21.558   4.623  1.00  0.00     0.049 C 
HETATM   24  C   UNL     1      44.387 -20.133   2.642  1.00  0.00     0.009 C 
HETATM   25  C   UNL     1      44.004 -18.884   2.081  1.00  0.00     0.030 C 
ENDBRANCH  15  18
ENDBRANCH   1  14
BRANCH   2  26
HETATM   26  N   UNL     1      43.938 -13.681   3.394  1.00  0.00    -0.291 NA
HETATM   27  H   UNL     1      44.380 -12.757   3.423  1.00  0.00     0.125 HD
HETATM   28  H   UNL     1      43.951 -14.073   4.340  1.00  0.00     0.125 HD
ENDBRANCH   2  26
BRANCH   3  29
HETATM   29  N   UNL     1      41.023 -12.154   3.702  1.00  0.00    -0.198 NA
HETATM   30  C   UNL     1      41.490 -12.232   4.916  1.00  0.00     0.147 C 
BRANCH  30  31
HETATM   31  C   UNL     1      40.660 -12.110   6.106  1.00  0.00     0.010 A 
HETATM   32  C   UNL     1      40.705 -11.044   7.082  1.00  0.00     0.004 A 
HETATM   33  C   UNL     1      39.729 -11.313   8.044  1.00  0.00     0.043 A 
HETATM   34  C   UNL     1      41.478  -9.869   7.241  1.00  0.00     0.014 A 
HETATM   35  C   UNL     1      39.460 -10.455   9.122  1.00  0.00     0.030 A 
HETATM   36  N   UNL     1      39.155 -12.517   7.707  1.00  0.00    -0.364 N 
HETATM   37  C   UNL     1      40.225  -9.292   9.240  1.00  0.00     0.002 A 
HETATM   38  C   UNL     1      41.230  -9.006   8.320  1.00  0.00     0.001 A 
HETATM   39  H   UNL     1      38.430 -12.971   8.245  1.00  0.00     0.165 HD
HETATM   40  C   UNL     1      39.716 -13.011   6.558  1.00  0.00     0.102 A 
ENDBRANCH  30  31
ENDBRANCH   3  29
TORSDOF 5
ENDMDL
MODEL 7
REMARK VINA RESULT:      -9.6      2.150      7.888
REMARK  5 active torsions:
REMARK  status: ('A' for Active; 'I' for Inactive)
REMARK    1  A    between atoms: C_6  and  N_7 
REMARK       I    between atoms: N_7  and  C_8 
REMARK    2  A    between atoms: C_8  and  C_9 
REMARK    3  A    between atoms: C_10  and  N_11 
REMARK    4  A    between atoms: N_12  and  N_13 
REMARK    5  A    between atoms: C_14  and  C_15 
ROOT
HETATM    1  C   UNL     1      41.162 -13.600   3.975  1.00  0.00     0.099 C 
HETATM    2  C   UNL     1      42.527 -13.636   4.393  1.00  0.00     0.101 C 
HETATM    3  N   UNL     1      42.344 -13.836   5.717  1.00  0.00    -0.107 NA
HETATM    4  C   UNL     1      41.453 -12.786   5.775  1.00  0.00     0.162 C 
HETATM    5  C   UNL     1      40.264 -13.280   5.174  1.00  0.00     0.118 C 
HETATM    6  N   UNL     1      39.465 -12.980   6.292  1.00  0.00    -0.242 NA
HETATM    7  C   UNL     1      39.729 -11.714   6.954  1.00  0.00     0.086 C 
HETATM    8  C   UNL     1      40.500 -10.874   6.207  1.00  0.00     0.087 C 
HETATM    9  N   UNL     1      41.617 -11.426   5.737  1.00  0.00    -0.230 NA
HETATM   10  C   UNL     1      39.659 -11.168   8.285  1.00  0.00     0.034 C 
HETATM   11  C   UNL     1      39.967  -9.806   8.565  1.00  0.00     0.002 C 
HETATM   12  C   UNL     1      40.158  -8.935   7.503  1.00  0.00     0.002 C 
HETATM   13  C   UNL     1      40.364  -9.499   6.265  1.00  0.00     0.034 C 
ENDROOT
BRANCH   1  14
HETATM   14  C   UNL     1      41.035 -13.598   2.487  1.00  0.00     0.261 C 
HETATM   15  N   UNL     1      42.034 -13.964   1.578  1.00  0.00    -0.323 N 
HETATM   16  H   UNL     1      42.997 -13.776   1.813  1.00  0.00     0.169 HD
HETATM   17  O   UNL     1      39.934 -13.246   2.038  1.00  0.00    -0.267 OA
BRANCH  15  18
HETATM   18  C   UNL     1      41.686 -14.287   0.205  1.00  0.00     0.035 C 
HETATM   19  C   UNL     1      41.696 -13.291  -0.785  1.00  0.00     0.037 C 
HETATM   20  C   UNL     1      41.545 -13.554  -2.152  1.00  0.00    -0.054 C 
HETATM   21  C   UNL     1      40.968 -14.762  -2.529  1.00  0.00    -0.056 C 
HETATM   22  C   UNL     1      42.252 -12.632  -3.112  1.00  0.00     0.049 C 
HETATM   23  C   UNL     1      40.294 -14.903  -3.869  1.00  0.00     0.049 C 
HETATM   24  C   UNL     1      40.898 -15.780  -1.558  1.00  0.00     0.009 C 
HETATM   25  C   UNL     1      41.327 -15.568  -0.219  1.00  0.00     0.030 C 
ENDBRANCH  15  18
ENDBRANCH   1  14
BRANCH   2  26
HETATM   26  N   UNL     1      43.768 -13.472   3.862  1.00  0.00    -0.291 NA
HETATM   27  H   UNL     1      44.418 -14.227   4.103  1.00  0.00     0.125 HD
HETATM   28  H   UNL     1      43.761 -13.366   2.842  1.00  0.00     0.125 HD
ENDBRANCH   2  26
BRANCH   3  29
HETATM   29  N   UNL     1      42.237 -15.124   6.281  1.00  0.00    -0.198 NA
HETATM   30  C   UNL     1      43.402 -15.671   6.493  1.00  0.00     0.147 C 
BRANCH  30  31
HETATM   31  C   UNL     1      43.578 -17.068   6.861  1.00  0.00     0.010 A 
HETATM   32  C   UNL     1      43.860 -18.166   5.965  1.00  0.00     0.004 A 
HETATM   33  C   UNL     1      43.969 -19.324   6.738  1.00  0.00     0.043 A 
HETATM   34  C   UNL     1      44.040 -18.292   4.566  1.00  0.00     0.014 A 
HETATM   35  C   UNL     1      44.287 -20.580   6.197  1.00  0.00     0.030 A 
HETATM   36  N   UNL     1      43.705 -18.963   8.038  1.00  0.00    -0.364 N 
HETATM   37  C   UNL     1      44.481 -20.667   4.815  1.00  0.00     0.002 A 
HETATM   38  C   UNL     1      44.348 -19.542   4.007  1.00  0.00     0.001 A 
HETATM   39  H   UNL     1      43.689 -19.609   8.816  1.00  0.00     0.165 HD
HETATM   40  C   UNL     1      43.453 -17.618   8.122  1.00  0.00     0.102 A 
ENDBRANCH  30  31
ENDBRANCH   3  29
TORSDOF 5
ENDMDL
MODEL 8
REMARK VINA RESULT:      -9.5      1.958      6.319
REMARK  5 active torsions:
REMARK  status: ('A' for Active; 'I' for Inactive)
REMARK    1  A    between atoms: C_6  and  N_7 
REMARK       I    between atoms: N_7  and  C_8 
REMARK    2  A    between atoms: C_8  and  C_9 
REMARK    3  A    between atoms: C_10  and  N_11 
REMARK    4  A    between atoms: N_12  and  N_13 
REMARK    5  A    between atoms: C_14  and  C_15 
ROOT
HETATM    1  C   UNL     1      41.239 -15.463   2.947  1.00  0.00     0.099 C 
HETATM    2  C   UNL     1      42.255 -14.458   2.931  1.00  0.00     0.101 C 
HETATM    3  N   UNL     1      41.472 -13.358   2.892  1.00  0.00    -0.107 NA
HETATM    4  C   UNL     1      40.758 -13.876   1.832  1.00  0.00     0.162 C 
HETATM    5  C   UNL     1      39.930 -14.880   2.405  1.00  0.00     0.118 C 
HETATM    6  N   UNL     1      38.744 -14.319   1.898  1.00  0.00    -0.242 NA
HETATM    7  C   UNL     1      38.799 -13.807   0.540  1.00  0.00     0.086 C 
HETATM    8  C   UNL     1      39.903 -14.227  -0.142  1.00  0.00     0.087 C 
HETATM    9  N   UNL     1      41.052 -14.036   0.503  1.00  0.00    -0.230 NA
HETATM   10  C   UNL     1      38.185 -12.759  -0.234  1.00  0.00     0.034 C 
HETATM   11  C   UNL     1      38.463 -12.574  -1.618  1.00  0.00     0.002 C 
HETATM   12  C   UNL     1      39.199 -13.542  -2.285  1.00  0.00     0.002 C 
HETATM   13  C   UNL     1      39.890 -14.443  -1.507  1.00  0.00     0.034 C 
ENDROOT
BRANCH   1  14
HETATM   14  C   UNL     1      41.804 -16.821   3.205  1.00  0.00     0.261 C 
HETATM   15  N   UNL     1      42.959 -17.353   2.622  1.00  0.00    -0.323 N 
HETATM   16  H   UNL     1      43.192 -17.090   1.676  1.00  0.00     0.169 HD
HETATM   17  O   UNL     1      41.183 -17.519   4.020  1.00  0.00    -0.267 OA
BRANCH  15  18
HETATM   18  C   UNL     1      43.613 -18.503   3.221  1.00  0.00     0.035 C 
HETATM   19  C   UNL     1      43.529 -19.767   2.615  1.00  0.00     0.037 C 
HETATM   20  C   UNL     1      44.271 -20.879   3.032  1.00  0.00    -0.054 C 
HETATM   21  C   UNL     1      44.802 -20.871   4.317  1.00  0.00    -0.056 C 
HETATM   22  C   UNL     1      44.659 -21.882   1.975  1.00  0.00     0.049 C 
HETATM   23  C   UNL     1      45.126 -22.163   5.020  1.00  0.00     0.049 C 
HETATM   24  C   UNL     1      44.870 -19.631   4.983  1.00  0.00     0.009 C 
HETATM   25  C   UNL     1      44.349 -18.441   4.406  1.00  0.00     0.030 C 
ENDBRANCH  15  18
ENDBRANCH   1  14
BRANCH   2  26
HETATM   26  N   UNL     1      43.611 -14.370   2.885  1.00  0.00    -0.291 NA
HETATM   27  H   UNL     1      43.949 -13.507   2.447  1.00  0.00     0.125 HD
HETATM   28  H   UNL     1      44.054 -14.459   3.805  1.00  0.00     0.125 HD
ENDBRANCH   2  26
BRANCH   3  29
HETATM   29  N   UNL     1      40.996 -12.723   4.058  1.00  0.00    -0.198 NA
HETATM   30  C   UNL     1      40.628 -11.492   3.837  1.00  0.00     0.147 C 
BRANCH  30  31
HETATM   31  C   UNL     1      40.305 -10.548   4.897  1.00  0.00     0.010 A 
HETATM   32  C   UNL     1      39.848 -10.871   6.229  1.00  0.00     0.004 A 
HETATM   33  C   UNL     1      39.678  -9.669   6.920  1.00  0.00     0.043 A 
HETATM   34  C   UNL     1      39.564 -12.072   6.923  1.00  0.00     0.014 A 
HETATM   35  C   UNL     1      39.285  -9.608   8.266  1.00  0.00     0.030 A 
HETATM   36  N   UNL     1      39.958  -8.656   6.034  1.00  0.00    -0.364 N 
HETATM   37  C   UNL     1      39.034 -10.812   8.930  1.00  0.00     0.002 A 
HETATM   38  C   UNL     1      39.160 -12.029   8.266  1.00  0.00     0.001 A 
HETATM   39  H   UNL     1      39.894  -7.672   6.256  1.00  0.00     0.165 HD
HETATM   40  C   UNL     1      40.319  -9.169   4.815  1.00  0.00     0.102 A 
ENDBRANCH  30  31
ENDBRANCH   3  29
TORSDOF 5
ENDMDL
MODEL 9
REMARK VINA RESULT:      -9.3      2.882      7.257
REMARK  5 active torsions:
REMARK  status: ('A' for Active; 'I' for Inactive)
REMARK    1  A    between atoms: C_6  and  N_7 
REMARK       I    between atoms: N_7  and  C_8 
REMARK    2  A    between atoms: C_8  and  C_9 
REMARK    3  A    between atoms: C_10  and  N_11 
REMARK    4  A    between atoms: N_12  and  N_13 
REMARK    5  A    between atoms: C_14  and  C_15 
ROOT
HETATM    1  C   UNL     1      41.438 -14.312   4.137  1.00  0.00     0.099 C 
HETATM    2  C   UNL     1      42.645 -13.570   4.317  1.00  0.00     0.101 C 
HETATM    3  N   UNL     1      42.142 -12.482   4.941  1.00  0.00    -0.107 NA
HETATM    4  C   UNL     1      41.182 -12.338   3.962  1.00  0.00     0.162 C 
HETATM    5  C   UNL     1      40.236 -13.366   4.223  1.00  0.00     0.118 C 
HETATM    6  N   UNL     1      39.151 -12.474   4.301  1.00  0.00    -0.242 NA
HETATM    7  C   UNL     1      39.127 -11.399   3.326  1.00  0.00     0.086 C 
HETATM    8  C   UNL     1      39.992 -11.599   2.292  1.00  0.00     0.087 C 
HETATM    9  N   UNL     1      41.235 -11.896   2.666  1.00  0.00    -0.230 NA
HETATM   10  C   UNL     1      38.667 -10.036   3.247  1.00  0.00     0.034 C 
HETATM   11  C   UNL     1      38.777  -9.265   2.055  1.00  0.00     0.002 C 
HETATM   12  C   UNL     1      39.164  -9.899   0.885  1.00  0.00     0.002 C 
HETATM   13  C   UNL     1      39.732 -11.146   1.012  1.00  0.00     0.034 C 
ENDROOT
BRANCH   1  14
HETATM   14  C   UNL     1      41.704 -15.696   3.644  1.00  0.00     0.261 C 
HETATM   15  N   UNL     1      42.815 -16.102   2.897  1.00  0.00    -0.323 N 
HETATM   16  H   UNL     1      43.226 -15.451   2.245  1.00  0.00     0.169 HD
HETATM   17  O   UNL     1      40.855 -16.549   3.944  1.00  0.00    -0.267 OA
BRANCH  15  18
HETATM   18  C   UNL     1      43.156 -17.511   2.807  1.00  0.00     0.035 C 
HETATM   19  C   UNL     1      43.981 -18.107   3.774  1.00  0.00     0.037 C 
HETATM   20  C   UNL     1      44.211 -19.487   3.854  1.00  0.00    -0.054 C 
HETATM   21  C   UNL     1      43.959 -20.262   2.727  1.00  0.00    -0.056 C 
HETATM   22  C   UNL     1      44.462 -20.063   5.224  1.00  0.00     0.049 C 
HETATM   23  C   UNL     1      44.652 -21.587   2.539  1.00  0.00     0.049 C 
HETATM   24  C   UNL     1      43.168 -19.692   1.710  1.00  0.00     0.009 C 
HETATM   25  C   UNL     1      42.704 -18.350   1.786  1.00  0.00     0.030 C 
ENDBRANCH  15  18
ENDBRANCH   1  14
BRANCH   2  26
HETATM   26  N   UNL     1      43.964 -13.661   3.996  1.00  0.00    -0.291 NA
HETATM   27  H   UNL     1      44.135 -14.143   3.108  1.00  0.00     0.125 HD
HETATM   28  H   UNL     1      44.436 -12.752   3.966  1.00  0.00     0.125 HD
ENDBRANCH   2  26
BRANCH   3  29
HETATM   29  N   UNL     1      42.000 -12.409   6.342  1.00  0.00    -0.198 NA
HETATM   30  C   UNL     1      41.747 -11.197   6.752  1.00  0.00     0.147 C 
BRANCH  30  31
HETATM   31  C   UNL     1      41.770 -10.802   8.153  1.00  0.00     0.010 A 
HETATM   32  C   UNL     1      40.648 -10.335   8.935  1.00  0.00     0.004 A 
HETATM   33  C   UNL     1      41.110 -10.086  10.229  1.00  0.00     0.043 A 
HETATM   34  C   UNL     1      39.276 -10.104   8.672  1.00  0.00     0.014 A 
HETATM   35  C   UNL     1      40.273  -9.662  11.273  1.00  0.00     0.030 A 
HETATM   36  N   UNL     1      42.464 -10.328  10.223  1.00  0.00    -0.364 N 
HETATM   37  C   UNL     1      38.919  -9.464  10.987  1.00  0.00     0.002 A 
HETATM   38  C   UNL     1      38.427  -9.670   9.702  1.00  0.00     0.001 A 
HETATM   39  H   UNL     1      43.067 -10.206  11.025  1.00  0.00     0.165 HD
HETATM   40  C   UNL     1      42.873 -10.742   8.982  1.00  0.00     0.102 A 
ENDBRANCH  30  31
ENDBRANCH   3  29
TORSDOF 5
ENDMDL
MODEL 10
REMARK VINA RESULT:      -9.3      2.238      3.115
REMARK  5 active torsions:
REMARK  status: ('A' for Active; 'I' for Inactive)
REMARK    1  A    between atoms: C_6  and  N_7 
REMARK       I    between atoms: N_7  and  C_8 
REMARK    2  A    between atoms: C_8  and  C_9 
REMARK    3  A    between atoms: C_10  and  N_11 
REMARK    4  A    between atoms: N_12  and  N_13 
REMARK    5  A    between atoms: C_14  and  C_15 
ROOT
HETATM    1  C   UNL     1      41.618 -13.598   4.689  1.00  0.00     0.099 C 
HETATM    2  C   UNL     1      40.281 -13.991   5.000  1.00  0.00     0.101 C 
HETATM    3  N   UNL     1      39.629 -12.874   4.609  1.00  0.00    -0.107 NA
HETATM    4  C   UNL     1      40.488 -12.088   5.347  1.00  0.00     0.162 C 
HETATM    5  C   UNL     1      41.698 -12.071   4.603  1.00  0.00     0.118 C 
HETATM    6  N   UNL     1      41.744 -10.666   4.535  1.00  0.00    -0.242 NA
HETATM    7  C   UNL     1      41.370  -9.949   5.741  1.00  0.00     0.086 C 
HETATM    8  C   UNL     1      41.331 -10.748   6.845  1.00  0.00     0.087 C 
HETATM    9  N   UNL     1      40.614 -11.860   6.692  1.00  0.00    -0.230 NA
HETATM   10  C   UNL     1      40.753  -8.695   6.092  1.00  0.00     0.034 C 
HETATM   11  C   UNL     1      40.581  -8.286   7.445  1.00  0.00     0.002 C 
HETATM   12  C   UNL     1      41.191  -9.024   8.447  1.00  0.00     0.002 C 
HETATM   13  C   UNL     1      41.643 -10.280   8.108  1.00  0.00     0.034 C 
ENDROOT
BRANCH   1  14
HETATM   14  C   UNL     1      42.577 -14.735   4.822  1.00  0.00     0.261 C 
HETATM   15  N   UNL     1      42.398 -15.871   5.618  1.00  0.00    -0.323 N 
HETATM   16  H   UNL     1      41.895 -15.780   6.489  1.00  0.00     0.169 HD
HETATM   17  O   UNL     1      43.615 -14.648   4.148  1.00  0.00    -0.267 OA
BRANCH  15  18
HETATM   18  C   UNL     1      43.195 -17.061   5.378  1.00  0.00     0.035 C 
HETATM   19  C   UNL     1      42.874 -17.932   4.324  1.00  0.00     0.037 C 
HETATM   20  C   UNL     1      43.690 -18.997   3.922  1.00  0.00    -0.054 C 
HETATM   21  C   UNL     1      44.639 -19.474   4.820  1.00  0.00    -0.056 C 
HETATM   22  C   UNL     1      43.660 -19.373   2.463  1.00  0.00     0.049 C 
HETATM   23  C   UNL     1      45.159 -20.883   4.707  1.00  0.00     0.049 C 
HETATM   24  C   UNL     1      44.965 -18.653   5.917  1.00  0.00     0.009 C 
HETATM   25  C   UNL     1      44.302 -17.417   6.152  1.00  0.00     0.030 C 
ENDBRANCH  15  18
ENDBRANCH   1  14
BRANCH   2  26
HETATM   26  N   UNL     1      39.624 -15.036   5.570  1.00  0.00    -0.291 NA
HETATM   27  H   UNL     1      38.630 -14.851   5.738  1.00  0.00     0.125 HD
HETATM   28  H   UNL     1      39.703 -15.906   5.033  1.00  0.00     0.125 HD
ENDBRANCH   2  26
BRANCH   3  29
HETATM   29  N   UNL     1      39.166 -12.688   3.289  1.00  0.00    -0.198 NA
HETATM   30  C   UNL     1      39.078 -13.810   2.632  1.00  0.00     0.147 C 
BRANCH  30  31
HETATM   31  C   UNL     1      38.838 -13.885   1.198  1.00  0.00     0.010 A 
HETATM   32  C   UNL     1      39.820 -13.716   0.151  1.00  0.00     0.004 A 
HETATM   33  C   UNL     1      39.166 -13.885  -1.071  1.00  0.00     0.043 A 
HETATM   34  C   UNL     1      41.208 -13.439   0.119  1.00  0.00     0.014 A 
HETATM   35  C   UNL     1      39.828 -13.835  -2.308  1.00  0.00     0.030 A 
HETATM   36  N   UNL     1      37.835 -14.087  -0.788  1.00  0.00    -0.364 N 
HETATM   37  C   UNL     1      41.203 -13.583  -2.305  1.00  0.00     0.002 A 
HETATM   38  C   UNL     1      41.884 -13.374  -1.109  1.00  0.00     0.001 A 
HETATM   39  H   UNL     1      37.118 -14.217  -1.489  1.00  0.00     0.165 HD
HETATM   40  C   UNL     1      37.624 -14.073   0.566  1.00  0.00     0.102 A 
ENDBRANCH  30  31
ENDBRANCH   3  29
TORSDOF 5
ENDMDL
