MODEL 1
REMARK VINA RESULT:      -9.3      0.000      0.000
REMARK  7 active torsions:
REMARK  status: ('A' for Active; 'I' for Inactive)
REMARK       I    between atoms: C_2  and  N_3 
REMARK    1  A    between atoms: C_2  and  C_11 
REMARK    2  A    between atoms: N_3  and  C_4 
REMARK    3  A    between atoms: C_4  and  C_5 
REMARK    4  A    between atoms: C_15  and  N_16 
REMARK    5  A    between atoms: N_16  and  C_17 
REMARK    6  A    between atoms: C_17  and  C_18 
REMARK    7  A    between atoms: C_20  and  C_24 
ROOT
HETATM    1  C   UNL     1      43.540 -15.168   6.893  1.00  0.00     0.033 A 
HETATM    2  C   UNL     1      43.585 -16.349   7.641  1.00  0.00     0.017 A 
HETATM    3  C   UNL     1      42.737 -17.402   7.313  1.00  0.00     0.003 A 
HETATM    4  C   UNL     1      41.840 -17.268   6.250  1.00  0.00     0.023 A 
HETATM    5  C   UNL     1      41.751 -16.080   5.508  1.00  0.00     0.009 A 
HETATM    6  C   UNL     1      42.647 -15.050   5.816  1.00  0.00     0.040 A 
ENDROOT
BRANCH   5   7
HETATM    7  N   UNL     1      40.876 -16.045   4.415  1.00  0.00    -0.286 NA
HETATM    8  H   UNL     1      40.073 -15.445   4.607  1.00  0.00     0.128 HD
BRANCH   7   9
HETATM    9  C   UNL     1      41.414 -15.733   3.090  1.00  0.00     0.171 C 
BRANCH   9  10
HETATM   10  C   UNL     1      42.337 -16.805   2.598  1.00  0.00     0.117 A 
HETATM   11  N   UNL     1      42.425 -18.041   3.048  1.00  0.00    -0.232 NA
HETATM   12  C   UNL     1      43.452 -18.632   2.345  1.00  0.00     0.084 A 
HETATM   13  C   UNL     1      43.994 -17.731   1.454  1.00  0.00     0.122 A 
HETATM   14  N   UNL     1      43.286 -16.573   1.634  1.00  0.00    -0.351 N 
HETATM   15  H   UNL     1      43.445 -15.690   1.167  1.00  0.00     0.166 HD
BRANCH  12  16
HETATM   16  C   UNL     1      43.872 -20.007   2.571  1.00  0.00    -0.003 A 
HETATM   17  C   UNL     1      44.420 -20.359   3.807  1.00  0.00     0.033 A 
HETATM   18  C   UNL     1      44.827 -21.667   4.010  1.00  0.00     0.117 A 
HETATM   19  N   UNL     1      44.726 -22.636   3.078  1.00  0.00    -0.273 NA
HETATM   20  C   UNL     1      44.192 -22.278   1.891  1.00  0.00     0.117 A 
HETATM   21  C   UNL     1      43.756 -20.996   1.592  1.00  0.00     0.033 A 
ENDBRANCH  12  16
ENDBRANCH   9  10
ENDBRANCH   7   9
ENDBRANCH   5   7
BRANCH   1  22
HETATM   22  C   UNL     1      44.459 -14.034   7.179  1.00  0.00     0.251 C 
HETATM   23  O   UNL     1      45.260 -13.663   6.329  1.00  0.00    -0.268 OA
HETATM   24  N   UNL     1      44.321 -13.446   8.418  1.00  0.00    -0.353 N 
HETATM   25  H   UNL     1      43.491 -13.641   8.960  1.00  0.00     0.163 HD
BRANCH  24  26
HETATM   26  C   UNL     1      45.099 -12.290   8.799  1.00  0.00     0.161 C 
BRANCH  26  27
HETATM   27  C   UNL     1      44.312 -11.370   9.696  1.00  0.00    -0.041 A 
HETATM   28  C   UNL     1      43.092 -10.822   9.275  1.00  0.00     0.009 A 
HETATM   29  C   UNL     1      42.375  -9.966  10.115  1.00  0.00     0.001 A 
HETATM   30  C   UNL     1      42.872  -9.647  11.377  1.00  0.00     0.000 A 
HETATM   31  C   UNL     1      44.089 -10.175  11.800  1.00  0.00     0.001 A 
HETATM   32  C   UNL     1      44.808 -11.029  10.964  1.00  0.00     0.009 A 
ENDBRANCH  26  27
ENDBRANCH  24  26
ENDBRANCH   1  22
TORSDOF 7
ENDMDL
MODEL 2
REMARK VINA RESULT:      -9.2      2.550     11.110
REMARK  7 active torsions:
REMARK  status: ('A' for Active; 'I' for Inactive)
REMARK       I    between atoms: C_2  and  N_3 
REMARK    1  A    between atoms: C_2  and  C_11 
REMARK    2  A    between atoms: N_3  and  C_4 
REMARK    3  A    between atoms: C_4  and  C_5 
REMARK    4  A    between atoms: C_15  and  N_16 
REMARK    5  A    between atoms: N_16  and  C_17 
REMARK    6  A    between atoms: C_17  and  C_18 
REMARK    7  A    between atoms: C_20  and  C_24 
ROOT
HETATM    1  C   UNL     1      43.655 -16.250   6.417  1.00  0.00     0.033 A 
HETATM    2  C   UNL     1      42.972 -15.589   5.391  1.00  0.00     0.017 A 
HETATM    3  C   UNL     1      42.952 -14.198   5.366  1.00  0.00     0.003 A 
HETATM    4  C   UNL     1      43.599 -13.473   6.371  1.00  0.00     0.023 A 
HETATM    5  C   UNL     1      44.259 -14.115   7.431  1.00  0.00     0.009 A 
HETATM    6  C   UNL     1      44.317 -15.514   7.412  1.00  0.00     0.040 A 
ENDROOT
BRANCH   5   7
HETATM    7  N   UNL     1      44.943 -13.324   8.362  1.00  0.00    -0.286 NA
HETATM    8  H   UNL     1      45.946 -13.317   8.171  1.00  0.00     0.128 HD
BRANCH   7   9
HETATM    9  C   UNL     1      44.481 -11.956   8.601  1.00  0.00     0.171 C 
BRANCH   9  10
HETATM   10  C   UNL     1      43.994 -11.770  10.005  1.00  0.00     0.117 A 
HETATM   11  N   UNL     1      43.595 -10.644  10.561  1.00  0.00    -0.232 NA
HETATM   12  C   UNL     1      43.310 -10.945  11.875  1.00  0.00     0.084 A 
HETATM   13  C   UNL     1      43.544 -12.282  12.113  1.00  0.00     0.122 A 
HETATM   14  N   UNL     1      43.989 -12.790  10.923  1.00  0.00    -0.351 N 
HETATM   15  H   UNL     1      44.292 -13.739  10.748  1.00  0.00     0.166 HD
BRANCH  12  16
HETATM   16  C   UNL     1      42.852  -9.948  12.830  1.00  0.00    -0.003 A 
HETATM   17  C   UNL     1      42.756  -8.612  12.430  1.00  0.00     0.033 A 
HETATM   18  C   UNL     1      42.329  -7.668  13.349  1.00  0.00     0.117 A 
HETATM   19  N   UNL     1      41.995  -7.959  14.622  1.00  0.00    -0.273 NA
HETATM   20  C   UNL     1      42.092  -9.254  14.990  1.00  0.00     0.117 A 
HETATM   21  C   UNL     1      42.509 -10.271  14.144  1.00  0.00     0.033 A 
ENDBRANCH  12  16
ENDBRANCH   9  10
ENDBRANCH   7   9
ENDBRANCH   5   7
BRANCH   1  22
HETATM   22  C   UNL     1      43.741 -17.735   6.458  1.00  0.00     0.251 C 
HETATM   23  O   UNL     1      42.981 -18.375   7.176  1.00  0.00    -0.268 OA
HETATM   24  N   UNL     1      44.689 -18.304   5.635  1.00  0.00    -0.353 N 
HETATM   25  H   UNL     1      45.100 -17.742   4.904  1.00  0.00     0.163 HD
BRANCH  24  26
HETATM   26  C   UNL     1      44.830 -19.738   5.521  1.00  0.00     0.161 C 
BRANCH  26  27
HETATM   27  C   UNL     1      44.403 -20.225   4.161  1.00  0.00    -0.041 A 
HETATM   28  C   UNL     1      44.709 -21.525   3.732  1.00  0.00     0.009 A 
HETATM   29  C   UNL     1      44.311 -21.963   2.466  1.00  0.00     0.001 A 
HETATM   30  C   UNL     1      43.613 -21.107   1.618  1.00  0.00     0.000 A 
HETATM   31  C   UNL     1      43.315 -19.809   2.029  1.00  0.00     0.001 A 
HETATM   32  C   UNL     1      43.712 -19.369   3.291  1.00  0.00     0.009 A 
ENDBRANCH  26  27
ENDBRANCH  24  26
ENDBRANCH   1  22
TORSDOF 7
ENDMDL
MODEL 3
REMARK VINA RESULT:      -9.2      3.486      7.613
REMARK  7 active torsions:
REMARK  status: ('A' for Active; 'I' for Inactive)
REMARK       I    between atoms: C_2  and  N_3 
REMARK    1  A    between atoms: C_2  and  C_11 
REMARK    2  A    between atoms: N_3  and  C_4 
REMARK    3  A    between atoms: C_4  and  C_5 
REMARK    4  A    between atoms: C_15  and  N_16 
REMARK    5  A    between atoms: N_16  and  C_17 
REMARK    6  A    between atoms: C_17  and  C_18 
REMARK    7  A    between atoms: C_20  and  C_24 
ROOT
HETATM    1  C   UNL     1      44.094 -19.521   2.469  1.00  0.00     0.033 A 
HETATM    2  C   UNL     1      43.937 -20.635   1.638  1.00  0.00     0.017 A 
HETATM    3  C   UNL     1      44.089 -21.913   2.168  1.00  0.00     0.003 A 
HETATM    4  C   UNL     1      44.409 -22.073   3.519  1.00  0.00     0.023 A 
HETATM    5  C   UNL     1      44.607 -20.969   4.363  1.00  0.00     0.009 A 
HETATM    6  C   UNL     1      44.399 -19.693   3.828  1.00  0.00     0.040 A 
ENDROOT
BRANCH   5   7
HETATM    7  N   UNL     1      44.858 -21.209   5.720  1.00  0.00    -0.286 NA
HETATM    8  H   UNL     1      45.660 -20.667   6.046  1.00  0.00     0.128 HD
BRANCH   7   9
HETATM    9  C   UNL     1      43.757 -21.078   6.675  1.00  0.00     0.171 C 
BRANCH   9  10
HETATM   10  C   UNL     1      43.487 -19.645   7.019  1.00  0.00     0.117 A 
HETATM   11  N   UNL     1      42.846 -18.762   6.279  1.00  0.00    -0.232 NA
HETATM   12  C   UNL     1      42.905 -17.570   6.968  1.00  0.00     0.084 A 
HETATM   13  C   UNL     1      43.597 -17.742   8.148  1.00  0.00     0.122 A 
HETATM   14  N   UNL     1      43.971 -19.059   8.161  1.00  0.00    -0.351 N 
HETATM   15  H   UNL     1      44.530 -19.520   8.866  1.00  0.00     0.166 HD
BRANCH  12  16
HETATM   16  C   UNL     1      42.321 -16.338   6.462  1.00  0.00    -0.003 A 
HETATM   17  C   UNL     1      43.144 -15.230   6.246  1.00  0.00     0.033 A 
HETATM   18  C   UNL     1      42.578 -14.058   5.774  1.00  0.00     0.117 A 
HETATM   19  N   UNL     1      41.264 -13.916   5.506  1.00  0.00    -0.273 NA
HETATM   20  C   UNL     1      40.484 -14.996   5.720  1.00  0.00     0.117 A 
HETATM   21  C   UNL     1      40.957 -16.212   6.189  1.00  0.00     0.033 A 
ENDBRANCH  12  16
ENDBRANCH   9  10
ENDBRANCH   7   9
ENDBRANCH   5   7
BRANCH   1  22
HETATM   22  C   UNL     1      43.896 -18.139   1.955  1.00  0.00     0.251 C 
HETATM   23  O   UNL     1      43.880 -17.929   0.747  1.00  0.00    -0.268 OA
HETATM   24  N   UNL     1      43.713 -17.163   2.911  1.00  0.00    -0.353 N 
HETATM   25  H   UNL     1      43.496 -17.442   3.856  1.00  0.00     0.163 HD
BRANCH  24  26
HETATM   26  C   UNL     1      43.437 -15.791   2.549  1.00  0.00     0.161 C 
BRANCH  26  27
HETATM   27  C   UNL     1      41.963 -15.566   2.333  1.00  0.00    -0.041 A 
HETATM   28  C   UNL     1      41.048 -16.623   2.447  1.00  0.00     0.009 A 
HETATM   29  C   UNL     1      39.685 -16.402   2.240  1.00  0.00     0.001 A 
HETATM   30  C   UNL     1      39.225 -15.129   1.910  1.00  0.00     0.000 A 
HETATM   31  C   UNL     1      40.127 -14.075   1.781  1.00  0.00     0.001 A 
HETATM   32  C   UNL     1      41.489 -14.293   1.986  1.00  0.00     0.009 A 
ENDBRANCH  26  27
ENDBRANCH  24  26
ENDBRANCH   1  22
TORSDOF 7
ENDMDL
MODEL 4
REMARK VINA RESULT:      -9.1      1.704      2.283
REMARK  7 active torsions:
REMARK  status: ('A' for Active; 'I' for Inactive)
REMARK       I    between atoms: C_2  and  N_3 
REMARK    1  A    between atoms: C_2  and  C_11 
REMARK    2  A    between atoms: N_3  and  C_4 
REMARK    3  A    between atoms: C_4  and  C_5 
REMARK    4  A    between atoms: C_15  and  N_16 
REMARK    5  A    between atoms: N_16  and  C_17 
REMARK    6  A    between atoms: C_17  and  C_18 
REMARK    7  A    between atoms: C_20  and  C_24 
ROOT
HETATM    1  C   UNL     1      42.277 -13.969   4.963  1.00  0.00     0.033 A 
HETATM    2  C   UNL     1      41.094 -13.935   5.708  1.00  0.00     0.017 A 
HETATM    3  C   UNL     1      39.876 -14.156   5.072  1.00  0.00     0.003 A 
HETATM    4  C   UNL     1      39.843 -14.396   3.695  1.00  0.00     0.023 A 
HETATM    5  C   UNL     1      41.014 -14.398   2.921  1.00  0.00     0.009 A 
HETATM    6  C   UNL     1      42.235 -14.227   3.585  1.00  0.00     0.040 A 
ENDROOT
BRANCH   5   7
HETATM    7  N   UNL     1      40.908 -14.713   1.561  1.00  0.00    -0.286 NA
HETATM    8  H   UNL     1      41.736 -14.406   1.048  1.00  0.00     0.128 HD
BRANCH   7   9
HETATM    9  C   UNL     1      40.578 -16.086   1.178  1.00  0.00     0.171 C 
BRANCH   9  10
HETATM   10  C   UNL     1      41.769 -16.990   1.266  1.00  0.00     0.117 A 
HETATM   11  N   UNL     1      41.911 -18.038   2.053  1.00  0.00    -0.232 NA
HETATM   12  C   UNL     1      43.187 -18.510   1.838  1.00  0.00     0.084 A 
HETATM   13  C   UNL     1      43.826 -17.728   0.900  1.00  0.00     0.122 A 
HETATM   14  N   UNL     1      42.920 -16.761   0.555  1.00  0.00    -0.351 N 
HETATM   15  H   UNL     1      43.072 -15.992  -0.084  1.00  0.00     0.166 HD
BRANCH  12  16
HETATM   16  C   UNL     1      43.732 -19.659   2.544  1.00  0.00    -0.003 A 
HETATM   17  C   UNL     1      43.786 -20.896   1.895  1.00  0.00     0.033 A 
HETATM   18  C   UNL     1      44.297 -21.987   2.578  1.00  0.00     0.117 A 
HETATM   19  N   UNL     1      44.751 -21.931   3.847  1.00  0.00    -0.273 NA
HETATM   20  C   UNL     1      44.692 -20.728   4.456  1.00  0.00     0.117 A 
HETATM   21  C   UNL     1      44.199 -19.579   3.857  1.00  0.00     0.033 A 
ENDBRANCH  12  16
ENDBRANCH   9  10
ENDBRANCH   7   9
ENDBRANCH   5   7
BRANCH   1  22
HETATM   22  C   UNL     1      43.604 -13.784   5.610  1.00  0.00     0.251 C 
HETATM   23  O   UNL     1      44.610 -13.659   4.922  1.00  0.00    -0.268 OA
HETATM   24  N   UNL     1      43.600 -13.739   6.988  1.00  0.00    -0.353 N 
HETATM   25  H   UNL     1      42.723 -13.603   7.468  1.00  0.00     0.163 HD
BRANCH  24  26
HETATM   26  C   UNL     1      44.809 -13.491   7.741  1.00  0.00     0.161 C 
BRANCH  26  27
HETATM   27  C   UNL     1      44.610 -12.391   8.751  1.00  0.00    -0.041 A 
HETATM   28  C   UNL     1      43.447 -11.607   8.744  1.00  0.00     0.009 A 
HETATM   29  C   UNL     1      43.277 -10.588   9.684  1.00  0.00     0.001 A 
HETATM   30  C   UNL     1      44.267 -10.339  10.632  1.00  0.00     0.000 A 
HETATM   31  C   UNL     1      45.431 -11.103  10.640  1.00  0.00     0.001 A 
HETATM   32  C   UNL     1      45.604 -12.121   9.703  1.00  0.00     0.009 A 
ENDBRANCH  26  27
ENDBRANCH  24  26
ENDBRANCH   1  22
TORSDOF 7
ENDMDL
MODEL 5
REMARK VINA RESULT:      -9.1      2.242      3.950
REMARK  7 active torsions:
REMARK  status: ('A' for Active; 'I' for Inactive)
REMARK       I    between atoms: C_2  and  N_3 
REMARK    1  A    between atoms: C_2  and  C_11 
REMARK    2  A    between atoms: N_3  and  C_4 
REMARK    3  A    between atoms: C_4  and  C_5 
REMARK    4  A    between atoms: C_15  and  N_16 
REMARK    5  A    between atoms: N_16  and  C_17 
REMARK    6  A    between atoms: C_17  and  C_18 
REMARK    7  A    between atoms: C_20  and  C_24 
ROOT
HETATM    1  C   UNL     1      44.353 -11.686   8.974  1.00  0.00     0.033 A 
HETATM    2  C   UNL     1      45.646 -11.172   9.119  1.00  0.00     0.017 A 
HETATM    3  C   UNL     1      46.705 -11.783   8.455  1.00  0.00     0.003 A 
HETATM    4  C   UNL     1      46.473 -12.910   7.661  1.00  0.00     0.023 A 
HETATM    5  C   UNL     1      45.190 -13.465   7.530  1.00  0.00     0.009 A 
HETATM    6  C   UNL     1      44.127 -12.807   8.161  1.00  0.00     0.040 A 
ENDROOT
BRANCH   5   7
HETATM    7  N   UNL     1      45.023 -14.552   6.663  1.00  0.00    -0.286 NA
HETATM    8  H   UNL     1      45.866 -15.127   6.631  1.00  0.00     0.128 HD
BRANCH   7   9
HETATM    9  C   UNL     1      43.850 -15.411   6.827  1.00  0.00     0.171 C 
BRANCH   9  10
HETATM   10  C   UNL     1      43.752 -16.433   5.736  1.00  0.00     0.117 A 
HETATM   11  N   UNL     1      44.102 -17.702   5.807  1.00  0.00    -0.232 NA
HETATM   12  C   UNL     1      43.899 -18.226   4.549  1.00  0.00     0.084 A 
HETATM   13  C   UNL     1      43.418 -17.250   3.703  1.00  0.00     0.122 A 
HETATM   14  N   UNL     1      43.342 -16.115   4.466  1.00  0.00    -0.351 N 
HETATM   15  H   UNL     1      43.063 -15.195   4.151  1.00  0.00     0.166 HD
BRANCH  12  16
HETATM   16  C   UNL     1      44.190 -19.612   4.217  1.00  0.00    -0.003 A 
HETATM   17  C   UNL     1      44.570 -20.493   5.234  1.00  0.00     0.033 A 
HETATM   18  C   UNL     1      44.856 -21.808   4.907  1.00  0.00     0.117 A 
HETATM   19  N   UNL     1      44.789 -22.300   3.653  1.00  0.00    -0.273 NA
HETATM   20  C   UNL     1      44.419 -21.436   2.685  1.00  0.00     0.117 A 
HETATM   21  C   UNL     1      44.114 -20.102   2.912  1.00  0.00     0.033 A 
ENDBRANCH  12  16
ENDBRANCH   9  10
ENDBRANCH   7   9
ENDBRANCH   5   7
BRANCH   1  22
HETATM   22  C   UNL     1      43.185 -11.037   9.629  1.00  0.00     0.251 C 
HETATM   23  O   UNL     1      42.662 -10.053   9.117  1.00  0.00    -0.268 OA
HETATM   24  N   UNL     1      42.744 -11.628  10.793  1.00  0.00    -0.353 N 
HETATM   25  H   UNL     1      43.061 -12.560  11.017  1.00  0.00     0.163 HD
BRANCH  24  26
HETATM   26  C   UNL     1      41.575 -11.145  11.492  1.00  0.00     0.161 C 
BRANCH  26  27
HETATM   27  C   UNL     1      41.950 -10.449  12.774  1.00  0.00    -0.041 A 
HETATM   28  C   UNL     1      43.128  -9.695  12.867  1.00  0.00     0.009 A 
HETATM   29  C   UNL     1      43.467  -9.057  14.063  1.00  0.00     0.001 A 
HETATM   30  C   UNL     1      42.637  -9.174  15.176  1.00  0.00     0.000 A 
HETATM   31  C   UNL     1      41.471  -9.931  15.099  1.00  0.00     0.001 A 
HETATM   32  C   UNL     1      41.131 -10.569  13.907  1.00  0.00     0.009 A 
ENDBRANCH  26  27
ENDBRANCH  24  26
ENDBRANCH   1  22
TORSDOF 7
ENDMDL
MODEL 6
REMARK VINA RESULT:      -9.0      3.083      7.821
REMARK  7 active torsions:
REMARK  status: ('A' for Active; 'I' for Inactive)
REMARK       I    between atoms: C_2  and  N_3 
REMARK    1  A    between atoms: C_2  and  C_11 
REMARK    2  A    between atoms: N_3  and  C_4 
REMARK    3  A    between atoms: C_4  and  C_5 
REMARK    4  A    between atoms: C_15  and  N_16 
REMARK    5  A    between atoms: N_16  and  C_17 
REMARK    6  A    between atoms: C_17  and  C_18 
REMARK    7  A    between atoms: C_20  and  C_24 
ROOT
HETATM    1  C   UNL     1      43.879 -16.093   6.361  1.00  0.00     0.033 A 
HETATM    2  C   UNL     1      44.578 -15.077   7.020  1.00  0.00     0.017 A 
HETATM    3  C   UNL     1      44.176 -13.754   6.860  1.00  0.00     0.003 A 
HETATM    4  C   UNL     1      43.090 -13.450   6.035  1.00  0.00     0.023 A 
HETATM    5  C   UNL     1      42.396 -14.450   5.336  1.00  0.00     0.009 A 
HETATM    6  C   UNL     1      42.778 -15.780   5.549  1.00  0.00     0.040 A 
ENDROOT
BRANCH   5   7
HETATM    7  N   UNL     1      41.276 -14.077   4.583  1.00  0.00    -0.286 NA
HETATM    8  H   UNL     1      41.538 -13.445   3.825  1.00  0.00     0.128 HD
BRANCH   7   9
HETATM    9  C   UNL     1      40.393 -15.123   4.065  1.00  0.00     0.171 C 
BRANCH   9  10
HETATM   10  C   UNL     1      40.745 -15.504   2.660  1.00  0.00     0.117 A 
HETATM   11  N   UNL     1      40.830 -14.698   1.620  1.00  0.00    -0.232 NA
HETATM   12  C   UNL     1      41.110 -15.500   0.536  1.00  0.00     0.084 A 
HETATM   13  C   UNL     1      41.193 -16.817   0.932  1.00  0.00     0.122 A 
HETATM   14  N   UNL     1      40.947 -16.806   2.279  1.00  0.00    -0.351 N 
HETATM   15  H   UNL     1      40.891 -17.611   2.889  1.00  0.00     0.166 HD
BRANCH  12  16
HETATM   16  C   UNL     1      41.263 -14.976  -0.813  1.00  0.00    -0.003 A 
HETATM   17  C   UNL     1      41.739 -13.674  -0.990  1.00  0.00     0.033 A 
HETATM   18  C   UNL     1      41.871 -13.180  -2.277  1.00  0.00     0.117 A 
HETATM   19  N   UNL     1      41.566 -13.885  -3.385  1.00  0.00    -0.273 NA
HETATM   20  C   UNL     1      41.109 -15.140  -3.195  1.00  0.00     0.117 A 
HETATM   21  C   UNL     1      40.943 -15.724  -1.948  1.00  0.00     0.033 A 
ENDBRANCH  12  16
ENDBRANCH   9  10
ENDBRANCH   7   9
ENDBRANCH   5   7
BRANCH   1  22
HETATM   22  C   UNL     1      44.244 -17.525   6.539  1.00  0.00     0.251 C 
HETATM   23  O   UNL     1      44.268 -18.017   7.662  1.00  0.00    -0.268 OA
HETATM   24  N   UNL     1      44.516 -18.224   5.383  1.00  0.00    -0.353 N 
HETATM   25  H   UNL     1      44.242 -17.826   4.497  1.00  0.00     0.163 HD
BRANCH  24  26
HETATM   26  C   UNL     1      44.813 -19.638   5.405  1.00  0.00     0.161 C 
BRANCH  26  27
HETATM   27  C   UNL     1      44.449 -20.296   4.100  1.00  0.00    -0.041 A 
HETATM   28  C   UNL     1      44.754 -21.643   3.861  1.00  0.00     0.009 A 
HETATM   29  C   UNL     1      44.416 -22.240   2.645  1.00  0.00     0.001 A 
HETATM   30  C   UNL     1      43.776 -21.496   1.655  1.00  0.00     0.000 A 
HETATM   31  C   UNL     1      43.480 -20.153   1.876  1.00  0.00     0.001 A 
HETATM   32  C   UNL     1      43.818 -19.555   3.090  1.00  0.00     0.009 A 
ENDBRANCH  26  27
ENDBRANCH  24  26
ENDBRANCH   1  22
TORSDOF 7
ENDMDL
MODEL 7
REMARK VINA RESULT:      -8.9      2.211      2.838
REMARK  7 active torsions:
REMARK  status: ('A' for Active; 'I' for Inactive)
REMARK       I    between atoms: C_2  and  N_3 
REMARK    1  A    between atoms: C_2  and  C_11 
REMARK    2  A    between atoms: N_3  and  C_4 
REMARK    3  A    between atoms: C_4  and  C_5 
REMARK    4  A    between atoms: C_15  and  N_16 
REMARK    5  A    between atoms: N_16  and  C_17 
REMARK    6  A    between atoms: C_17  and  C_18 
REMARK    7  A    between atoms: C_20  and  C_24 
ROOT
HETATM    1  C   UNL     1      41.269 -11.696   6.905  1.00  0.00     0.033 A 
HETATM    2  C   UNL     1      39.873 -11.708   6.987  1.00  0.00     0.017 A 
HETATM    3  C   UNL     1      39.148 -12.604   6.206  1.00  0.00     0.003 A 
HETATM    4  C   UNL     1      39.817 -13.472   5.339  1.00  0.00     0.023 A 
HETATM    5  C   UNL     1      41.215 -13.452   5.213  1.00  0.00     0.009 A 
HETATM    6  C   UNL     1      41.933 -12.583   6.043  1.00  0.00     0.040 A 
ENDROOT
BRANCH   5   7
HETATM    7  N   UNL     1      41.818 -14.397   4.374  1.00  0.00    -0.286 NA
HETATM    8  H   UNL     1      42.148 -13.964   3.511  1.00  0.00     0.128 HD
BRANCH   7   9
HETATM    9  C   UNL     1      42.868 -15.258   4.921  1.00  0.00     0.171 C 
BRANCH   9  10
HETATM   10  C   UNL     1      43.242 -16.353   3.970  1.00  0.00     0.117 A 
HETATM   11  N   UNL     1      43.295 -17.644   4.231  1.00  0.00    -0.232 NA
HETATM   12  C   UNL     1      43.752 -18.249   3.081  1.00  0.00     0.084 A 
HETATM   13  C   UNL     1      43.978 -17.300   2.108  1.00  0.00     0.122 A 
HETATM   14  N   UNL     1      43.663 -16.102   2.689  1.00  0.00    -0.351 N 
HETATM   15  H   UNL     1      43.750 -15.186   2.268  1.00  0.00     0.166 HD
BRANCH  12  16
HETATM   16  C   UNL     1      43.964 -19.684   2.977  1.00  0.00    -0.003 A 
HETATM   17  C   UNL     1      44.597 -20.359   4.025  1.00  0.00     0.033 A 
HETATM   18  C   UNL     1      44.805 -21.723   3.914  1.00  0.00     0.117 A 
HETATM   19  N   UNL     1      44.430 -22.453   2.843  1.00  0.00    -0.273 NA
HETATM   20  C   UNL     1      43.819 -21.786   1.842  1.00  0.00     0.117 A 
HETATM   21  C   UNL     1      43.567 -20.422   1.861  1.00  0.00     0.033 A 
ENDBRANCH  12  16
ENDBRANCH   9  10
ENDBRANCH   7   9
ENDBRANCH   5   7
BRANCH   1  22
HETATM   22  C   UNL     1      42.086 -10.788   7.754  1.00  0.00     0.251 C 
HETATM   23  O   UNL     1      42.080  -9.580   7.545  1.00  0.00    -0.268 OA
HETATM   24  N   UNL     1      42.798 -11.391   8.769  1.00  0.00    -0.353 N 
HETATM   25  H   UNL     1      42.565 -12.338   9.030  1.00  0.00     0.163 HD
BRANCH  24  26
HETATM   26  C   UNL     1      43.574 -10.620   9.713  1.00  0.00     0.161 C 
BRANCH  26  27
HETATM   27  C   UNL     1      42.940 -10.627  11.079  1.00  0.00    -0.041 A 
HETATM   28  C   UNL     1      41.643 -11.123  11.270  1.00  0.00     0.009 A 
HETATM   29  C   UNL     1      41.064 -11.120  12.542  1.00  0.00     0.001 A 
HETATM   30  C   UNL     1      41.773 -10.615  13.630  1.00  0.00     0.000 A 
HETATM   31  C   UNL     1      43.058 -10.108  13.450  1.00  0.00     0.001 A 
HETATM   32  C   UNL     1      43.637 -10.109  12.181  1.00  0.00     0.009 A 
ENDBRANCH  26  27
ENDBRANCH  24  26
ENDBRANCH   1  22
TORSDOF 7
ENDMDL
MODEL 8
REMARK VINA RESULT:      -8.8      4.144      8.292
REMARK  7 active torsions:
REMARK  status: ('A' for Active; 'I' for Inactive)
REMARK       I    between atoms: C_2  and  N_3 
REMARK    1  A    between atoms: C_2  and  C_11 
REMARK    2  A    between atoms: N_3  and  C_4 
REMARK    3  A    between atoms: C_4  and  C_5 
REMARK    4  A    between atoms: C_15  and  N_16 
REMARK    5  A    between atoms: N_16  and  C_17 
REMARK    6  A    between atoms: C_17  and  C_18 
REMARK    7  A    between atoms: C_20  and  C_24 
ROOT
HETATM    1  C   UNL     1      42.221 -15.732   5.137  1.00  0.00     0.033 A 
HETATM    2  C   UNL     1      41.050 -15.249   5.730  1.00  0.00     0.017 A 
HETATM    3  C   UNL     1      40.467 -14.082   5.246  1.00  0.00     0.003 A 
HETATM    4  C   UNL     1      41.060 -13.396   4.182  1.00  0.00     0.023 A 
HETATM    5  C   UNL     1      42.254 -13.841   3.595  1.00  0.00     0.009 A 
HETATM    6  C   UNL     1      42.800 -15.045   4.058  1.00  0.00     0.040 A 
ENDROOT
BRANCH   5   7
HETATM    7  N   UNL     1      42.752 -13.140   2.490  1.00  0.00    -0.286 NA
HETATM    8  H   UNL     1      43.461 -13.685   1.999  1.00  0.00     0.128 HD
BRANCH   7   9
HETATM    9  C   UNL     1      41.805 -12.584   1.523  1.00  0.00     0.171 C 
BRANCH   9  10
HETATM   10  C   UNL     1      41.426 -13.586   0.476  1.00  0.00     0.117 A 
HETATM   11  N   UNL     1      40.509 -13.444  -0.460  1.00  0.00    -0.232 NA
HETATM   12  C   UNL     1      40.465 -14.642  -1.139  1.00  0.00     0.084 A 
HETATM   13  C   UNL     1      41.376 -15.524  -0.598  1.00  0.00     0.122 A 
HETATM   14  N   UNL     1      41.969 -14.845   0.433  1.00  0.00    -0.351 N 
HETATM   15  H   UNL     1      42.662 -15.208   1.074  1.00  0.00     0.166 HD
BRANCH  12  16
HETATM   16  C   UNL     1      39.553 -14.888  -2.244  1.00  0.00    -0.003 A 
HETATM   17  C   UNL     1      39.907 -15.815  -3.229  1.00  0.00     0.033 A 
HETATM   18  C   UNL     1      39.037 -16.035  -4.284  1.00  0.00     0.117 A 
HETATM   19  N   UNL     1      37.853 -15.404  -4.423  1.00  0.00    -0.273 NA
HETATM   20  C   UNL     1      37.528 -14.514  -3.463  1.00  0.00     0.117 A 
HETATM   21  C   UNL     1      38.331 -14.225  -2.369  1.00  0.00     0.033 A 
ENDBRANCH  12  16
ENDBRANCH   9  10
ENDBRANCH   7   9
ENDBRANCH   5   7
BRANCH   1  22
HETATM   22  C   UNL     1      42.853 -16.999   5.592  1.00  0.00     0.251 C 
HETATM   23  O   UNL     1      42.440 -17.565   6.598  1.00  0.00    -0.268 OA
HETATM   24  N   UNL     1      43.880 -17.475   4.806  1.00  0.00    -0.353 N 
HETATM   25  H   UNL     1      43.999 -17.095   3.878  1.00  0.00     0.163 HD
BRANCH  24  26
HETATM   26  C   UNL     1      44.533 -18.732   5.091  1.00  0.00     0.161 C 
BRANCH  26  27
HETATM   27  C   UNL     1      44.301 -19.733   3.989  1.00  0.00    -0.041 A 
HETATM   28  C   UNL     1      43.625 -19.371   2.816  1.00  0.00     0.009 A 
HETATM   29  C   UNL     1      43.412 -20.310   1.804  1.00  0.00     0.001 A 
HETATM   30  C   UNL     1      43.867 -21.618   1.958  1.00  0.00     0.000 A 
HETATM   31  C   UNL     1      44.530 -21.992   3.124  1.00  0.00     0.001 A 
HETATM   32  C   UNL     1      44.742 -21.057   4.137  1.00  0.00     0.009 A 
ENDBRANCH  26  27
ENDBRANCH  24  26
ENDBRANCH   1  22
TORSDOF 7
ENDMDL
MODEL 9
REMARK VINA RESULT:      -8.8      4.383      8.836
REMARK  7 active torsions:
REMARK  status: ('A' for Active; 'I' for Inactive)
REMARK       I    between atoms: C_2  and  N_3 
REMARK    1  A    between atoms: C_2  and  C_11 
REMARK    2  A    between atoms: N_3  and  C_4 
REMARK    3  A    between atoms: C_4  and  C_5 
REMARK    4  A    between atoms: C_15  and  N_16 
REMARK    5  A    between atoms: N_16  and  C_17 
REMARK    6  A    between atoms: C_17  and  C_18 
REMARK    7  A    between atoms: C_20  and  C_24 
ROOT
HETATM    1  C   UNL     1      41.593 -16.348   4.709  1.00  0.00     0.033 A 
HETATM    2  C   UNL     1      40.957 -15.271   5.335  1.00  0.00     0.017 A 
HETATM    3  C   UNL     1      40.072 -14.481   4.608  1.00  0.00     0.003 A 
HETATM    4  C   UNL     1      39.835 -14.760   3.259  1.00  0.00     0.023 A 
HETATM    5  C   UNL     1      40.489 -15.813   2.600  1.00  0.00     0.009 A 
HETATM    6  C   UNL     1      41.335 -16.631   3.358  1.00  0.00     0.040 A 
ENDROOT
BRANCH   5   7
HETATM    7  N   UNL     1      40.149 -16.074   1.267  1.00  0.00    -0.286 NA
HETATM    8  H   UNL     1      39.571 -15.325   0.883  1.00  0.00     0.128 HD
BRANCH   7   9
HETATM    9  C   UNL     1      41.213 -16.406   0.320  1.00  0.00     0.171 C 
BRANCH   9  10
HETATM   10  C   UNL     1      41.239 -15.461  -0.842  1.00  0.00     0.117 A 
HETATM   11  N   UNL     1      41.811 -14.274  -0.883  1.00  0.00    -0.232 NA
HETATM   12  C   UNL     1      41.515 -13.749  -2.122  1.00  0.00     0.084 A 
HETATM   13  C   UNL     1      40.747 -14.640  -2.840  1.00  0.00     0.122 A 
HETATM   14  N   UNL     1      40.569 -15.715  -2.012  1.00  0.00    -0.351 N 
HETATM   15  H   UNL     1      40.019 -16.541  -2.206  1.00  0.00     0.166 HD
BRANCH  12  16
HETATM   16  C   UNL     1      41.959 -12.430  -2.544  1.00  0.00    -0.003 A 
HETATM   17  C   UNL     1      41.857 -12.074  -3.892  1.00  0.00     0.033 A 
HETATM   18  C   UNL     1      42.292 -10.820  -4.287  1.00  0.00     0.117 A 
HETATM   19  N   UNL     1      42.814  -9.907  -3.443  1.00  0.00    -0.273 NA
HETATM   20  C   UNL     1      42.903 -10.267  -2.146  1.00  0.00     0.117 A 
HETATM   21  C   UNL     1      42.494 -11.498  -1.653  1.00  0.00     0.033 A 
ENDBRANCH  12  16
ENDBRANCH   9  10
ENDBRANCH   7   9
ENDBRANCH   5   7
BRANCH   1  22
HETATM   22  C   UNL     1      42.512 -17.246   5.459  1.00  0.00     0.251 C 
HETATM   23  O   UNL     1      42.311 -17.478   6.645  1.00  0.00    -0.268 OA
HETATM   24  N   UNL     1      43.547 -17.792   4.730  1.00  0.00    -0.353 N 
HETATM   25  H   UNL     1      43.506 -17.753   3.722  1.00  0.00     0.163 HD
BRANCH  24  26
HETATM   26  C   UNL     1      44.469 -18.738   5.315  1.00  0.00     0.161 C 
BRANCH  26  27
HETATM   27  C   UNL     1      44.499 -20.028   4.538  1.00  0.00    -0.041 A 
HETATM   28  C   UNL     1      44.272 -20.042   3.155  1.00  0.00     0.009 A 
HETATM   29  C   UNL     1      44.298 -21.246   2.446  1.00  0.00     0.001 A 
HETATM   30  C   UNL     1      44.544 -22.444   3.114  1.00  0.00     0.000 A 
HETATM   31  C   UNL     1      44.758 -22.443   4.490  1.00  0.00     0.001 A 
HETATM   32  C   UNL     1      44.731 -21.243   5.200  1.00  0.00     0.009 A 
ENDBRANCH  26  27
ENDBRANCH  24  26
ENDBRANCH   1  22
TORSDOF 7
ENDMDL
MODEL 10
REMARK VINA RESULT:      -8.6      4.076      8.149
REMARK  7 active torsions:
REMARK  status: ('A' for Active; 'I' for Inactive)
REMARK       I    between atoms: C_2  and  N_3 
REMARK    1  A    between atoms: C_2  and  C_11 
REMARK    2  A    between atoms: N_3  and  C_4 
REMARK    3  A    between atoms: C_4  and  C_5 
REMARK    4  A    between atoms: C_15  and  N_16 
REMARK    5  A    between atoms: N_16  and  C_17 
REMARK    6  A    between atoms: C_17  and  C_18 
REMARK    7  A    between atoms: C_20  and  C_24 
ROOT
HETATM    1  C   UNL     1      40.800 -14.858   2.179  1.00  0.00     0.033 A 
HETATM    2  C   UNL     1      40.121 -13.671   2.469  1.00  0.00     0.017 A 
HETATM    3  C   UNL     1      39.792 -13.375   3.789  1.00  0.00     0.003 A 
HETATM    4  C   UNL     1      40.129 -14.269   4.809  1.00  0.00     0.023 A 
HETATM    5  C   UNL     1      40.778 -15.483   4.536  1.00  0.00     0.009 A 
HETATM    6  C   UNL     1      41.150 -15.742   3.212  1.00  0.00     0.040 A 
ENDROOT
BRANCH   5   7
HETATM    7  N   UNL     1      41.144 -16.296   5.617  1.00  0.00    -0.286 NA
HETATM    8  H   UNL     1      41.018 -17.283   5.392  1.00  0.00     0.128 HD
BRANCH   7   9
HETATM    9  C   UNL     1      42.456 -16.098   6.235  1.00  0.00     0.171 C 
BRANCH   9  10
HETATM   10  C   UNL     1      43.402 -17.211   5.901  1.00  0.00     0.117 A 
HETATM   11  N   UNL     1      43.169 -18.234   5.103  1.00  0.00    -0.232 NA
HETATM   12  C   UNL     1      44.294 -19.027   5.159  1.00  0.00     0.084 A 
HETATM   13  C   UNL     1      45.223 -18.468   6.010  1.00  0.00     0.122 A 
HETATM   14  N   UNL     1      44.639 -17.324   6.483  1.00  0.00    -0.351 N 
HETATM   15  H   UNL     1      45.028 -16.685   7.164  1.00  0.00     0.166 HD
BRANCH  12  16
HETATM   16  C   UNL     1      44.416 -20.274   4.419  1.00  0.00    -0.003 A 
HETATM   17  C   UNL     1      44.652 -21.462   5.117  1.00  0.00     0.033 A 
HETATM   18  C   UNL     1      44.777 -22.642   4.405  1.00  0.00     0.117 A 
HETATM   19  N   UNL     1      44.685 -22.720   3.062  1.00  0.00    -0.273 NA
HETATM   20  C   UNL     1      44.456 -21.564   2.405  1.00  0.00     0.117 A 
HETATM   21  C   UNL     1      44.316 -20.333   3.028  1.00  0.00     0.033 A 
ENDBRANCH  12  16
ENDBRANCH   9  10
ENDBRANCH   7   9
ENDBRANCH   5   7
BRANCH   1  22
HETATM   22  C   UNL     1      41.212 -15.194   0.789  1.00  0.00     0.251 C 
HETATM   23  O   UNL     1      41.508 -16.347   0.498  1.00  0.00    -0.268 OA
HETATM   24  N   UNL     1      41.206 -14.148  -0.109  1.00  0.00    -0.353 N 
HETATM   25  H   UNL     1      40.724 -13.297   0.139  1.00  0.00     0.163 HD
BRANCH  24  26
HETATM   26  C   UNL     1      41.513 -14.348  -1.507  1.00  0.00     0.161 C 
BRANCH  26  27
HETATM   27  C   UNL     1      40.288 -14.746  -2.287  1.00  0.00    -0.041 A 
HETATM   28  C   UNL     1      40.337 -15.787  -3.225  1.00  0.00     0.009 A 
HETATM   29  C   UNL     1      39.194 -16.143  -3.946  1.00  0.00     0.001 A 
HETATM   30  C   UNL     1      37.997 -15.461  -3.739  1.00  0.00     0.000 A 
HETATM   31  C   UNL     1      37.940 -14.417  -2.818  1.00  0.00     0.001 A 
HETATM   32  C   UNL     1      39.079 -14.059  -2.099  1.00  0.00     0.009 A 
ENDBRANCH  26  27
ENDBRANCH  24  26
ENDBRANCH   1  22
TORSDOF 7
ENDMDL
