MODEL 1
REMARK VINA RESULT:      -9.1      0.000      0.000
REMARK  8 active torsions:
REMARK  status: ('A' for Active; 'I' for Inactive)
REMARK    1  A    between atoms: N_2  and  C_3 
REMARK    2  A    between atoms: C_4  and  C_5 
REMARK       I    between atoms: C_5  and  N_6 
REMARK    3  A    between atoms: N_6  and  C_7 
REMARK    4  A    between atoms: C_7  and  C_8 
REMARK    5  A    between atoms: N_13  and  C_15 
REMARK    6  A    between atoms: C_15  and  C_16 
REMARK    7  A    between atoms: C_16  and  C_17 
REMARK    8  A    between atoms: C_17  and  C_18 
ROOT
HETATM    1  C   UNL     1      40.603 -12.114   5.440  1.00  0.00     0.140 C 
HETATM    2  O   UNL     1      41.446 -13.100   4.805  1.00  0.00    -0.373 OA
HETATM    3  C   UNL     1      40.722 -14.350   4.770  1.00  0.00     0.064 C 
HETATM    4  C   UNL     1      41.660 -15.427   5.329  1.00  0.00     0.066 C 
HETATM    5  C   UNL     1      42.853 -15.677   4.412  1.00  0.00     0.237 C 
HETATM    6  N   UNL     1      42.397 -16.006   3.002  1.00  0.00    -0.071 N 
HETATM    7  H   UNL     1      43.259 -16.010   2.441  1.00  0.00     0.279 HD
HETATM    8  C   UNL     1      41.567 -14.865   2.452  1.00  0.00     0.237 C 
HETATM    9  C   UNL     1      40.338 -14.640   3.316  1.00  0.00     0.066 C 
HETATM   10  C   UNL     1      39.476 -14.158   5.646  1.00  0.00     0.041 C 
HETATM   11  C   UNL     1      39.791 -12.914   6.442  1.00  0.00     0.036 C 
ENDROOT
BRANCH   1  12
HETATM   12  C   UNL     1      41.433 -10.999   6.078  1.00  0.00     0.155 C 
BRANCH  12  13
HETATM   13  N   UNL     1      41.835 -11.311   7.434  1.00  0.00    -0.354 N 
HETATM   14  C   UNL     1      42.063 -10.301   8.356  1.00  0.00     0.253 C 
HETATM   15  O   UNL     1      42.002  -9.115   8.054  1.00  0.00    -0.268 OA
HETATM   16  H   UNL     1      41.796 -12.270   7.757  1.00  0.00     0.162 HD
BRANCH  14  17
HETATM   17  C   UNL     1      42.376 -10.775   9.735  1.00  0.00     0.053 A 
HETATM   18  C   UNL     1      43.625 -11.355  10.059  1.00  0.00     0.025 A 
HETATM   19  C   UNL     1      43.813 -11.772  11.392  1.00  0.00     0.025 A 
HETATM   20  C   UNL     1      42.811 -11.630  12.356  1.00  0.00     0.002 A 
HETATM   21  C   UNL     1      41.586 -11.071  12.015  1.00  0.00     0.001 A 
HETATM   22  C   UNL     1      41.365 -10.646  10.708  1.00  0.00     0.019 A 
BRANCH  18  23
HETATM   23  N   UNL     1      44.657 -11.473   9.108  1.00  0.00    -0.291 NA
HETATM   24  C   UNL     1      45.907 -10.858   9.549  1.00  0.00     0.116 C 
HETATM   25  C   UNL     1      44.808 -12.784   8.476  1.00  0.00     0.116 C 
ENDBRANCH  18  23
ENDBRANCH  14  17
ENDBRANCH  12  13
ENDBRANCH   1  12
BRANCH   6  26
HETATM   26  C   UNL     1      41.807 -17.399   2.889  1.00  0.00     0.235 C 
BRANCH  26  27
HETATM   27  C   UNL     1      42.521 -18.299   1.887  1.00  0.00     0.032 C 
BRANCH  27  28
HETATM   28  C   UNL     1      44.005 -18.515   2.182  1.00  0.00     0.040 C 
BRANCH  28  29
HETATM   29  C   UNL     1      44.227 -19.855   2.833  1.00  0.00    -0.058 A 
HETATM   30  C   UNL     1      44.598 -19.937   4.183  1.00  0.00     0.007 A 
HETATM   31  C   UNL     1      44.843 -21.178   4.775  1.00  0.00     0.001 A 
HETATM   32  C   UNL     1      44.725 -22.346   4.024  1.00  0.00     0.000 A 
HETATM   33  C   UNL     1      44.357 -22.275   2.682  1.00  0.00     0.001 A 
HETATM   34  C   UNL     1      44.109 -21.036   2.089  1.00  0.00     0.007 A 
ENDBRANCH  28  29
ENDBRANCH  27  28
ENDBRANCH  26  27
ENDBRANCH   6  26
TORSDOF 8
ENDMDL
MODEL 2
REMARK VINA RESULT:      -9.0      1.433      2.540
REMARK  8 active torsions:
REMARK  status: ('A' for Active; 'I' for Inactive)
REMARK    1  A    between atoms: N_2  and  C_3 
REMARK    2  A    between atoms: C_4  and  C_5 
REMARK       I    between atoms: C_5  and  N_6 
REMARK    3  A    between atoms: N_6  and  C_7 
REMARK    4  A    between atoms: C_7  and  C_8 
REMARK    5  A    between atoms: N_13  and  C_15 
REMARK    6  A    between atoms: C_15  and  C_16 
REMARK    7  A    between atoms: C_16  and  C_17 
REMARK    8  A    between atoms: C_17  and  C_18 
ROOT
HETATM    1  C   UNL     1      40.312 -11.679   5.816  1.00  0.00     0.140 C 
HETATM    2  O   UNL     1      41.189 -12.824   5.905  1.00  0.00    -0.373 OA
HETATM    3  C   UNL     1      41.036 -13.598   4.695  1.00  0.00     0.064 C 
HETATM    4  C   UNL     1      40.803 -15.053   5.120  1.00  0.00     0.066 C 
HETATM    5  C   UNL     1      42.036 -15.660   5.782  1.00  0.00     0.237 C 
HETATM    6  N   UNL     1      43.255 -15.525   4.888  1.00  0.00    -0.071 N 
HETATM    7  H   UNL     1      44.045 -15.824   5.476  1.00  0.00     0.279 HD
HETATM    8  C   UNL     1      43.511 -14.063   4.587  1.00  0.00     0.237 C 
HETATM    9  C   UNL     1      42.319 -13.454   3.870  1.00  0.00     0.066 C 
HETATM   10  C   UNL     1      39.828 -13.013   3.951  1.00  0.00     0.041 C 
HETATM   11  C   UNL     1      39.133 -12.182   5.003  1.00  0.00     0.036 C 
ENDROOT
BRANCH   1  12
HETATM   12  C   UNL     1      39.922 -11.167   7.204  1.00  0.00     0.155 C 
BRANCH  12  13
HETATM   13  N   UNL     1      40.973 -11.356   8.183  1.00  0.00    -0.354 N 
HETATM   14  C   UNL     1      41.988 -10.422   8.323  1.00  0.00     0.253 C 
HETATM   15  O   UNL     1      42.081  -9.444   7.592  1.00  0.00    -0.268 OA
HETATM   16  H   UNL     1      40.881 -12.089   8.876  1.00  0.00     0.162 HD
BRANCH  14  17
HETATM   17  C   UNL     1      42.942 -10.702   9.434  1.00  0.00     0.053 A 
HETATM   18  C   UNL     1      42.611 -10.443  10.785  1.00  0.00     0.025 A 
HETATM   19  C   UNL     1      43.589 -10.741  11.755  1.00  0.00     0.025 A 
HETATM   20  C   UNL     1      44.838 -11.262  11.405  1.00  0.00     0.002 A 
HETATM   21  C   UNL     1      45.150 -11.496  10.072  1.00  0.00     0.001 A 
HETATM   22  C   UNL     1      44.207 -11.214   9.087  1.00  0.00     0.019 A 
BRANCH  18  23
HETATM   23  N   UNL     1      41.344  -9.952  11.157  1.00  0.00    -0.291 NA
HETATM   24  C   UNL     1      40.476 -10.987  11.713  1.00  0.00     0.116 C 
HETATM   25  C   UNL     1      41.331  -8.683  11.886  1.00  0.00     0.116 C 
ENDBRANCH  18  23
ENDBRANCH  14  17
ENDBRANCH  12  13
ENDBRANCH   1  12
BRANCH   6  26
HETATM   26  C   UNL     1      43.220 -16.472   3.705  1.00  0.00     0.235 C 
BRANCH  26  27
HETATM   27  C   UNL     1      43.044 -17.938   4.085  1.00  0.00     0.032 C 
BRANCH  27  28
HETATM   28  C   UNL     1      44.282 -18.577   4.715  1.00  0.00     0.040 C 
BRANCH  28  29
HETATM   29  C   UNL     1      44.446 -19.998   4.240  1.00  0.00    -0.058 A 
HETATM   30  C   UNL     1      44.283 -20.317   2.885  1.00  0.00     0.007 A 
HETATM   31  C   UNL     1      44.396 -21.640   2.452  1.00  0.00     0.001 A 
HETATM   32  C   UNL     1      44.667 -22.654   3.368  1.00  0.00     0.000 A 
HETATM   33  C   UNL     1      44.832 -22.347   4.717  1.00  0.00     0.001 A 
HETATM   34  C   UNL     1      44.722 -21.025   5.151  1.00  0.00     0.007 A 
ENDBRANCH  28  29
ENDBRANCH  27  28
ENDBRANCH  26  27
ENDBRANCH   6  26
TORSDOF 8
ENDMDL
MODEL 3
REMARK VINA RESULT:      -9.0      1.536      2.389
REMARK  8 active torsions:
REMARK  status: ('A' for Active; 'I' for Inactive)
REMARK    1  A    between atoms: N_2  and  C_3 
REMARK    2  A    between atoms: C_4  and  C_5 
REMARK       I    between atoms: C_5  and  N_6 
REMARK    3  A    between atoms: N_6  and  C_7 
REMARK    4  A    between atoms: C_7  and  C_8 
REMARK    5  A    between atoms: N_13  and  C_15 
REMARK    6  A    between atoms: C_15  and  C_16 
REMARK    7  A    between atoms: C_16  and  C_17 
REMARK    8  A    between atoms: C_17  and  C_18 
ROOT
HETATM    1  C   UNL     1      42.276 -12.687   5.588  1.00  0.00     0.140 C 
HETATM    2  O   UNL     1      42.080 -13.976   6.213  1.00  0.00    -0.373 OA
HETATM    3  C   UNL     1      42.366 -14.995   5.230  1.00  0.00     0.064 C 
HETATM    4  C   UNL     1      41.186 -15.974   5.243  1.00  0.00     0.066 C 
HETATM    5  C   UNL     1      41.101 -16.750   6.554  1.00  0.00     0.237 C 
HETATM    6  N   UNL     1      42.413 -17.450   6.858  1.00  0.00    -0.071 N 
HETATM    7  H   UNL     1      42.301 -17.813   7.814  1.00  0.00     0.279 HD
HETATM    8  C   UNL     1      43.529 -16.431   6.946  1.00  0.00     0.237 C 
HETATM    9  C   UNL     1      43.674 -15.689   5.628  1.00  0.00     0.066 C 
HETATM   10  C   UNL     1      42.507 -14.277   3.881  1.00  0.00     0.041 C 
HETATM   11  C   UNL     1      41.894 -12.921   4.137  1.00  0.00     0.036 C 
ENDROOT
BRANCH   1  12
HETATM   12  C   UNL     1      41.440 -11.604   6.272  1.00  0.00     0.155 C 
BRANCH  12  13
HETATM   13  N   UNL     1      41.836 -11.380   7.647  1.00  0.00    -0.354 N 
HETATM   14  C   UNL     1      42.086 -10.098   8.113  1.00  0.00     0.253 C 
HETATM   15  O   UNL     1      42.050  -9.118   7.379  1.00  0.00    -0.268 OA
HETATM   16  H   UNL     1      41.776 -12.141   8.312  1.00  0.00     0.162 HD
BRANCH  14  17
HETATM   17  C   UNL     1      42.389 -10.014   9.570  1.00  0.00     0.053 A 
HETATM   18  C   UNL     1      43.555 -10.593  10.125  1.00  0.00     0.025 A 
HETATM   19  C   UNL     1      43.741 -10.457  11.515  1.00  0.00     0.025 A 
HETATM   20  C   UNL     1      42.814  -9.788  12.320  1.00  0.00     0.002 A 
HETATM   21  C   UNL     1      41.668  -9.239  11.759  1.00  0.00     0.001 A 
HETATM   22  C   UNL     1      41.452  -9.353  10.388  1.00  0.00     0.019 A 
BRANCH  18  23
HETATM   23  N   UNL     1      44.516 -11.238   9.323  1.00  0.00    -0.291 NA
HETATM   24  C   UNL     1      45.871 -10.745   9.554  1.00  0.00     0.116 C 
HETATM   25  C   UNL     1      44.401 -12.694   9.222  1.00  0.00     0.116 C 
ENDBRANCH  18  23
ENDBRANCH  14  17
ENDBRANCH  12  13
ENDBRANCH   1  12
BRANCH   6  26
HETATM   26  C   UNL     1      42.653 -18.654   5.969  1.00  0.00     0.235 C 
BRANCH  26  27
HETATM   27  C   UNL     1      43.957 -19.390   6.253  1.00  0.00     0.032 C 
BRANCH  27  28
HETATM   28  C   UNL     1      44.986 -19.305   5.125  1.00  0.00     0.040 C 
BRANCH  28  29
HETATM   29  C   UNL     1      44.575 -20.176   3.966  1.00  0.00    -0.058 A 
HETATM   30  C   UNL     1      44.801 -21.559   4.000  1.00  0.00     0.007 A 
HETATM   31  C   UNL     1      44.458 -22.359   2.909  1.00  0.00     0.001 A 
HETATM   32  C   UNL     1      43.891 -21.785   1.773  1.00  0.00     0.000 A 
HETATM   33  C   UNL     1      43.661 -20.411   1.729  1.00  0.00     0.001 A 
HETATM   34  C   UNL     1      44.002 -19.610   2.819  1.00  0.00     0.007 A 
ENDBRANCH  28  29
ENDBRANCH  27  28
ENDBRANCH  26  27
ENDBRANCH   6  26
TORSDOF 8
ENDMDL
MODEL 4
REMARK VINA RESULT:      -8.8      1.681      3.142
REMARK  8 active torsions:
REMARK  status: ('A' for Active; 'I' for Inactive)
REMARK    1  A    between atoms: N_2  and  C_3 
REMARK    2  A    between atoms: C_4  and  C_5 
REMARK       I    between atoms: C_5  and  N_6 
REMARK    3  A    between atoms: N_6  and  C_7 
REMARK    4  A    between atoms: C_7  and  C_8 
REMARK    5  A    between atoms: N_13  and  C_15 
REMARK    6  A    between atoms: C_15  and  C_16 
REMARK    7  A    between atoms: C_16  and  C_17 
REMARK    8  A    between atoms: C_17  and  C_18 
ROOT
HETATM    1  C   UNL     1      43.809 -13.993   7.424  1.00  0.00     0.140 C 
HETATM    2  O   UNL     1      42.977 -13.883   6.247  1.00  0.00    -0.373 OA
HETATM    3  C   UNL     1      42.951 -15.173   5.598  1.00  0.00     0.064 C 
HETATM    4  C   UNL     1      43.274 -14.936   4.118  1.00  0.00     0.066 C 
HETATM    5  C   UNL     1      42.172 -14.154   3.410  1.00  0.00     0.237 C 
HETATM    6  N   UNL     1      40.824 -14.829   3.589  1.00  0.00    -0.071 N 
HETATM    7  H   UNL     1      40.142 -14.159   3.210  1.00  0.00     0.279 HD
HETATM    8  C   UNL     1      40.498 -14.940   5.064  1.00  0.00     0.237 C 
HETATM    9  C   UNL     1      41.551 -15.770   5.778  1.00  0.00     0.066 C 
HETATM   10  C   UNL     1      44.016 -16.035   6.291  1.00  0.00     0.041 C 
HETATM   11  C   UNL     1      44.853 -15.026   7.040  1.00  0.00     0.036 C 
ENDROOT
BRANCH   1  12
HETATM   12  C   UNL     1      44.404 -12.639   7.814  1.00  0.00     0.155 C 
BRANCH  12  13
HETATM   13  N   UNL     1      43.724 -12.035   8.941  1.00  0.00    -0.354 N 
HETATM   14  C   UNL     1      44.289 -10.968   9.622  1.00  0.00     0.253 C 
HETATM   15  O   UNL     1      45.402 -10.536   9.350  1.00  0.00    -0.268 OA
HETATM   16  H   UNL     1      42.762 -12.287   9.135  1.00  0.00     0.162 HD
BRANCH  14  17
HETATM   17  C   UNL     1      43.432 -10.390  10.696  1.00  0.00     0.053 A 
HETATM   18  C   UNL     1      42.087 -10.017  10.458  1.00  0.00     0.025 A 
HETATM   19  C   UNL     1      41.368  -9.477  11.543  1.00  0.00     0.025 A 
HETATM   20  C   UNL     1      41.954  -9.305  12.801  1.00  0.00     0.002 A 
HETATM   21  C   UNL     1      43.279  -9.663  13.011  1.00  0.00     0.001 A 
HETATM   22  C   UNL     1      44.020 -10.201  11.962  1.00  0.00     0.019 A 
BRANCH  18  23
HETATM   23  N   UNL     1      41.472 -10.218   9.207  1.00  0.00    -0.291 NA
HETATM   24  C   UNL     1      40.186 -10.902   9.311  1.00  0.00     0.116 C 
HETATM   25  C   UNL     1      41.490  -9.079   8.288  1.00  0.00     0.116 C 
ENDBRANCH  18  23
ENDBRANCH  14  17
ENDBRANCH  12  13
ENDBRANCH   1  12
BRANCH   6  26
HETATM   26  C   UNL     1      40.688 -16.092   2.761  1.00  0.00     0.235 C 
BRANCH  26  27
HETATM   27  C   UNL     1      41.987 -16.553   2.109  1.00  0.00     0.032 C 
BRANCH  27  28
HETATM   28  C   UNL     1      41.962 -17.998   1.611  1.00  0.00     0.040 C 
BRANCH  28  29
HETATM   29  C   UNL     1      42.956 -18.839   2.370  1.00  0.00    -0.058 A 
HETATM   30  C   UNL     1      43.424 -20.046   1.832  1.00  0.00     0.007 A 
HETATM   31  C   UNL     1      44.313 -20.844   2.554  1.00  0.00     0.001 A 
HETATM   32  C   UNL     1      44.740 -20.446   3.819  1.00  0.00     0.000 A 
HETATM   33  C   UNL     1      44.281 -19.248   4.363  1.00  0.00     0.001 A 
HETATM   34  C   UNL     1      43.393 -18.448   3.642  1.00  0.00     0.007 A 
ENDBRANCH  28  29
ENDBRANCH  27  28
ENDBRANCH  26  27
ENDBRANCH   6  26
TORSDOF 8
ENDMDL
MODEL 5
REMARK VINA RESULT:      -8.8      4.217      8.180
REMARK  8 active torsions:
REMARK  status: ('A' for Active; 'I' for Inactive)
REMARK    1  A    between atoms: N_2  and  C_3 
REMARK    2  A    between atoms: C_4  and  C_5 
REMARK       I    between atoms: C_5  and  N_6 
REMARK    3  A    between atoms: N_6  and  C_7 
REMARK    4  A    between atoms: C_7  and  C_8 
REMARK    5  A    between atoms: N_13  and  C_15 
REMARK    6  A    between atoms: C_15  and  C_16 
REMARK    7  A    between atoms: C_16  and  C_17 
REMARK    8  A    between atoms: C_17  and  C_18 
ROOT
HETATM    1  C   UNL     1      39.653 -12.904   2.771  1.00  0.00     0.140 C 
HETATM    2  O   UNL     1      39.833 -14.197   3.390  1.00  0.00    -0.373 OA
HETATM    3  C   UNL     1      41.214 -14.308   3.796  1.00  0.00     0.064 C 
HETATM    4  C   UNL     1      41.732 -15.649   3.264  1.00  0.00     0.066 C 
HETATM    5  C   UNL     1      41.059 -16.835   3.950  1.00  0.00     0.237 C 
HETATM    6  N   UNL     1      41.195 -16.739   5.459  1.00  0.00    -0.071 N 
HETATM    7  H   UNL     1      40.592 -17.489   5.824  1.00  0.00     0.279 HD
HETATM    8  C   UNL     1      40.570 -15.450   5.949  1.00  0.00     0.237 C 
HETATM    9  C   UNL     1      41.268 -14.253   5.327  1.00  0.00     0.066 C 
HETATM   10  C   UNL     1      41.952 -13.115   3.171  1.00  0.00     0.041 C 
HETATM   11  C   UNL     1      40.993 -12.620   2.116  1.00  0.00     0.036 C 
ENDROOT
BRANCH   1  12
HETATM   12  C   UNL     1      38.483 -12.916   1.785  1.00  0.00     0.155 C 
BRANCH  12  13
HETATM   13  N   UNL     1      38.746 -13.732   0.618  1.00  0.00    -0.354 N 
HETATM   14  C   UNL     1      38.398 -13.289  -0.649  1.00  0.00     0.253 C 
HETATM   15  O   UNL     1      37.800 -12.236  -0.832  1.00  0.00    -0.268 OA
HETATM   16  H   UNL     1      39.328 -14.555   0.707  1.00  0.00     0.162 HD
BRANCH  14  17
HETATM   17  C   UNL     1      38.817 -14.190  -1.761  1.00  0.00     0.053 A 
HETATM   18  C   UNL     1      40.155 -14.632  -1.900  1.00  0.00     0.025 A 
HETATM   19  C   UNL     1      40.442 -15.479  -2.989  1.00  0.00     0.025 A 
HETATM   20  C   UNL     1      39.456 -15.863  -3.903  1.00  0.00     0.002 A 
HETATM   21  C   UNL     1      38.152 -15.407  -3.758  1.00  0.00     0.001 A 
HETATM   22  C   UNL     1      37.831 -14.570  -2.692  1.00  0.00     0.019 A 
BRANCH  18  23
HETATM   23  N   UNL     1      41.151 -14.283  -0.968  1.00  0.00    -0.291 NA
HETATM   24  C   UNL     1      41.719 -15.442  -0.284  1.00  0.00     0.116 C 
HETATM   25  C   UNL     1      42.131 -13.291  -1.410  1.00  0.00     0.116 C 
ENDBRANCH  18  23
ENDBRANCH  14  17
ENDBRANCH  12  13
ENDBRANCH   1  12
BRANCH   6  26
HETATM   26  C   UNL     1      42.599 -17.046   5.940  1.00  0.00     0.235 C 
BRANCH  26  27
HETATM   27  C   UNL     1      43.064 -18.467   5.642  1.00  0.00     0.032 C 
BRANCH  27  28
HETATM   28  C   UNL     1      44.331 -18.548   4.789  1.00  0.00     0.040 C 
BRANCH  28  29
HETATM   29  C   UNL     1      44.257 -19.715   3.838  1.00  0.00    -0.058 A 
HETATM   30  C   UNL     1      43.658 -19.570   2.579  1.00  0.00     0.007 A 
HETATM   31  C   UNL     1      43.554 -20.661   1.715  1.00  0.00     0.001 A 
HETATM   32  C   UNL     1      44.043 -21.907   2.103  1.00  0.00     0.000 A 
HETATM   33  C   UNL     1      44.640 -22.063   3.352  1.00  0.00     0.001 A 
HETATM   34  C   UNL     1      44.747 -20.972   4.216  1.00  0.00     0.007 A 
ENDBRANCH  28  29
ENDBRANCH  27  28
ENDBRANCH  26  27
ENDBRANCH   6  26
TORSDOF 8
ENDMDL
MODEL 6
REMARK VINA RESULT:      -8.6      2.167      9.568
REMARK  8 active torsions:
REMARK  status: ('A' for Active; 'I' for Inactive)
REMARK    1  A    between atoms: N_2  and  C_3 
REMARK    2  A    between atoms: C_4  and  C_5 
REMARK       I    between atoms: C_5  and  N_6 
REMARK    3  A    between atoms: N_6  and  C_7 
REMARK    4  A    between atoms: C_7  and  C_8 
REMARK    5  A    between atoms: N_13  and  C_15 
REMARK    6  A    between atoms: C_15  and  C_16 
REMARK    7  A    between atoms: C_16  and  C_17 
REMARK    8  A    between atoms: C_17  and  C_18 
ROOT
HETATM    1  C   UNL     1      40.681 -16.238   2.119  1.00  0.00     0.140 C 
HETATM    2  O   UNL     1      41.398 -15.402   3.054  1.00  0.00    -0.373 OA
HETATM    3  C   UNL     1      40.511 -14.343   3.477  1.00  0.00     0.064 C 
HETATM    4  C   UNL     1      41.276 -13.025   3.315  1.00  0.00     0.066 C 
HETATM    5  C   UNL     1      42.449 -12.921   4.285  1.00  0.00     0.237 C 
HETATM    6  N   UNL     1      41.990 -13.131   5.717  1.00  0.00    -0.071 N 
HETATM    7  H   UNL     1      42.859 -13.189   6.265  1.00  0.00     0.279 HD
HETATM    8  C   UNL     1      41.340 -14.492   5.853  1.00  0.00     0.237 C 
HETATM    9  C   UNL     1      40.130 -14.594   4.940  1.00  0.00     0.066 C 
HETATM   10  C   UNL     1      39.279 -14.413   2.563  1.00  0.00     0.041 C 
HETATM   11  C   UNL     1      39.740 -15.277   1.414  1.00  0.00     0.036 C 
ENDROOT
BRANCH   1  12
HETATM   12  C   UNL     1      41.639 -16.960   1.170  1.00  0.00     0.155 C 
BRANCH  12  13
HETATM   13  N   UNL     1      42.166 -18.185   1.735  1.00  0.00    -0.354 N 
HETATM   14  C   UNL     1      43.525 -18.333   1.963  1.00  0.00     0.253 C 
HETATM   15  O   UNL     1      44.339 -17.476   1.640  1.00  0.00    -0.268 OA
HETATM   16  H   UNL     1      41.527 -18.873   2.113  1.00  0.00     0.162 HD
BRANCH  14  17
HETATM   17  C   UNL     1      43.909 -19.606   2.637  1.00  0.00     0.053 A 
HETATM   18  C   UNL     1      44.266 -19.648   4.006  1.00  0.00     0.025 A 
HETATM   19  C   UNL     1      44.615 -20.904   4.541  1.00  0.00     0.025 A 
HETATM   20  C   UNL     1      44.619 -22.063   3.758  1.00  0.00     0.002 A 
HETATM   21  C   UNL     1      44.279 -21.999   2.413  1.00  0.00     0.001 A 
HETATM   22  C   UNL     1      43.927 -20.774   1.850  1.00  0.00     0.019 A 
BRANCH  18  23
HETATM   23  N   UNL     1      44.232 -18.497   4.817  1.00  0.00    -0.291 NA
HETATM   24  C   UNL     1      42.879 -18.131   5.226  1.00  0.00     0.116 C 
HETATM   25  C   UNL     1      45.236 -18.425   5.880  1.00  0.00     0.116 C 
ENDBRANCH  18  23
ENDBRANCH  14  17
ENDBRANCH  12  13
ENDBRANCH   1  12
BRANCH   6  26
HETATM   26  C   UNL     1      41.218 -11.946   6.263  1.00  0.00     0.235 C 
BRANCH  26  27
HETATM   27  C   UNL     1      42.023 -11.058   7.206  1.00  0.00     0.032 C 
BRANCH  27  28
HETATM   28  C   UNL     1      41.255 -10.599   8.446  1.00  0.00     0.040 C 
BRANCH  28  29
HETATM   29  C   UNL     1      42.193 -10.410   9.610  1.00  0.00    -0.058 A 
HETATM   30  C   UNL     1      43.480 -10.964   9.584  1.00  0.00     0.007 A 
HETATM   31  C   UNL     1      44.333 -10.823  10.681  1.00  0.00     0.001 A 
HETATM   32  C   UNL     1      43.907 -10.131  11.813  1.00  0.00     0.000 A 
HETATM   33  C   UNL     1      42.629  -9.576  11.849  1.00  0.00     0.001 A 
HETATM   34  C   UNL     1      41.776  -9.714  10.753  1.00  0.00     0.007 A 
ENDBRANCH  28  29
ENDBRANCH  27  28
ENDBRANCH  26  27
ENDBRANCH   6  26
TORSDOF 8
ENDMDL
MODEL 7
REMARK VINA RESULT:      -8.6      3.956      8.738
REMARK  8 active torsions:
REMARK  status: ('A' for Active; 'I' for Inactive)
REMARK    1  A    between atoms: N_2  and  C_3 
REMARK    2  A    between atoms: C_4  and  C_5 
REMARK       I    between atoms: C_5  and  N_6 
REMARK    3  A    between atoms: N_6  and  C_7 
REMARK    4  A    between atoms: C_7  and  C_8 
REMARK    5  A    between atoms: N_13  and  C_15 
REMARK    6  A    between atoms: C_15  and  C_16 
REMARK    7  A    between atoms: C_16  and  C_17 
REMARK    8  A    between atoms: C_17  and  C_18 
ROOT
HETATM    1  C   UNL     1      42.927 -15.323   5.249  1.00  0.00     0.140 C 
HETATM    2  O   UNL     1      42.133 -15.442   4.047  1.00  0.00    -0.373 OA
HETATM    3  C   UNL     1      41.480 -14.175   3.818  1.00  0.00     0.064 C 
HETATM    4  C   UNL     1      39.994 -14.473   3.581  1.00  0.00     0.066 C 
HETATM    5  C   UNL     1      39.765 -15.237   2.281  1.00  0.00     0.237 C 
HETATM    6  N   UNL     1      40.385 -14.507   1.103  1.00  0.00    -0.071 N 
HETATM    7  H   UNL     1      40.306 -15.164   0.316  1.00  0.00     0.279 HD
HETATM    8  C   UNL     1      41.872 -14.334   1.333  1.00  0.00     0.237 C 
HETATM    9  C   UNL     1      42.123 -13.520   2.591  1.00  0.00     0.066 C 
HETATM   10  C   UNL     1      41.705 -13.330   5.080  1.00  0.00     0.041 C 
HETATM   11  C   UNL     1      42.148 -14.343   6.108  1.00  0.00     0.036 C 
ENDROOT
BRANCH   1  12
HETATM   12  C   UNL     1      43.138 -16.684   5.914  1.00  0.00     0.155 C 
BRANCH  12  13
HETATM   13  N   UNL     1      43.230 -17.765   4.955  1.00  0.00    -0.354 N 
HETATM   14  C   UNL     1      44.340 -18.596   4.927  1.00  0.00     0.253 C 
HETATM   15  O   UNL     1      45.309 -18.416   5.654  1.00  0.00    -0.268 OA
HETATM   16  H   UNL     1      42.415 -18.017   4.409  1.00  0.00     0.162 HD
BRANCH  14  17
HETATM   17  C   UNL     1      44.251 -19.721   3.952  1.00  0.00     0.053 A 
HETATM   18  C   UNL     1      43.710 -19.545   2.657  1.00  0.00     0.025 A 
HETATM   19  C   UNL     1      43.671 -20.677   1.818  1.00  0.00     0.025 A 
HETATM   20  C   UNL     1      44.136 -21.925   2.243  1.00  0.00     0.002 A 
HETATM   21  C   UNL     1      44.652 -22.081   3.524  1.00  0.00     0.001 A 
HETATM   22  C   UNL     1      44.707 -20.983   4.379  1.00  0.00     0.019 A 
BRANCH  18  23
HETATM   23  N   UNL     1      43.270 -18.287   2.201  1.00  0.00    -0.291 NA
HETATM   24  C   UNL     1      44.277 -17.588   1.408  1.00  0.00     0.116 C 
HETATM   25  C   UNL     1      41.913 -18.236   1.654  1.00  0.00     0.116 C 
ENDBRANCH  18  23
ENDBRANCH  14  17
ENDBRANCH  12  13
ENDBRANCH   1  12
BRANCH   6  26
HETATM   26  C   UNL     1      39.605 -13.269   0.707  1.00  0.00     0.235 C 
BRANCH  26  27
HETATM   27  C   UNL     1      40.106 -12.596  -0.566  1.00  0.00     0.032 C 
BRANCH  27  28
HETATM   28  C   UNL     1      39.087 -12.571  -1.706  1.00  0.00     0.040 C 
BRANCH  28  29
HETATM   29  C   UNL     1      39.156 -13.845  -2.508  1.00  0.00    -0.058 A 
HETATM   30  C   UNL     1      38.028 -14.312  -3.198  1.00  0.00     0.007 A 
HETATM   31  C   UNL     1      38.081 -15.513  -3.908  1.00  0.00     0.001 A 
HETATM   32  C   UNL     1      39.257 -16.260  -3.930  1.00  0.00     0.000 A 
HETATM   33  C   UNL     1      40.383 -15.804  -3.248  1.00  0.00     0.001 A 
HETATM   34  C   UNL     1      40.333 -14.602  -2.540  1.00  0.00     0.007 A 
ENDBRANCH  28  29
ENDBRANCH  27  28
ENDBRANCH  26  27
ENDBRANCH   6  26
TORSDOF 8
ENDMDL
MODEL 8
REMARK VINA RESULT:      -8.5      1.516      2.830
REMARK  8 active torsions:
REMARK  status: ('A' for Active; 'I' for Inactive)
REMARK    1  A    between atoms: N_2  and  C_3 
REMARK    2  A    between atoms: C_4  and  C_5 
REMARK       I    between atoms: C_5  and  N_6 
REMARK    3  A    between atoms: N_6  and  C_7 
REMARK    4  A    between atoms: C_7  and  C_8 
REMARK    5  A    between atoms: N_13  and  C_15 
REMARK    6  A    between atoms: C_15  and  C_16 
REMARK    7  A    between atoms: C_16  and  C_17 
REMARK    8  A    between atoms: C_17  and  C_18 
ROOT
HETATM    1  C   UNL     1      41.798 -13.579   5.862  1.00  0.00     0.140 C 
HETATM    2  O   UNL     1      41.537 -13.853   4.467  1.00  0.00    -0.373 OA
HETATM    3  C   UNL     1      42.392 -14.943   4.060  1.00  0.00     0.064 C 
HETATM    4  C   UNL     1      43.093 -14.505   2.768  1.00  0.00     0.066 C 
HETATM    5  C   UNL     1      42.114 -14.362   1.607  1.00  0.00     0.237 C 
HETATM    6  N   UNL     1      41.315 -15.638   1.408  1.00  0.00    -0.071 N 
HETATM    7  H   UNL     1      40.596 -15.391   0.714  1.00  0.00     0.279 HD
HETATM    8  C   UNL     1      40.553 -15.969   2.674  1.00  0.00     0.237 C 
HETATM    9  C   UNL     1      41.514 -16.178   3.831  1.00  0.00     0.066 C 
HETATM   10  C   UNL     1      43.386 -15.174   5.207  1.00  0.00     0.041 C 
HETATM   11  C   UNL     1      43.268 -13.916   6.034  1.00  0.00     0.036 C 
ENDROOT
BRANCH   1  12
HETATM   12  C   UNL     1      41.458 -12.131   6.219  1.00  0.00     0.155 C 
BRANCH  12  13
HETATM   13  N   UNL     1      41.897 -11.767   7.550  1.00  0.00    -0.354 N 
HETATM   14  C   UNL     1      42.116 -10.440   7.886  1.00  0.00     0.253 C 
HETATM   15  O   UNL     1      42.016  -9.534   7.069  1.00  0.00    -0.268 OA
HETATM   16  H   UNL     1      41.891 -12.465   8.284  1.00  0.00     0.162 HD
BRANCH  14  17
HETATM   17  C   UNL     1      42.470 -10.210   9.316  1.00  0.00     0.053 A 
HETATM   18  C   UNL     1      41.604  -9.523  10.199  1.00  0.00     0.025 A 
HETATM   19  C   UNL     1      42.041  -9.358  11.529  1.00  0.00     0.025 A 
HETATM   20  C   UNL     1      43.278  -9.842  11.963  1.00  0.00     0.002 A 
HETATM   21  C   UNL     1      44.121 -10.502  11.078  1.00  0.00     0.001 A 
HETATM   22  C   UNL     1      43.722 -10.685   9.757  1.00  0.00     0.019 A 
BRANCH  18  23
HETATM   23  N   UNL     1      40.339  -9.060   9.787  1.00  0.00    -0.291 NA
HETATM   24  C   UNL     1      39.244  -9.644  10.556  1.00  0.00     0.116 C 
HETATM   25  C   UNL     1      40.224  -7.621   9.548  1.00  0.00     0.116 C 
ENDBRANCH  18  23
ENDBRANCH  14  17
ENDBRANCH  12  13
ENDBRANCH   1  12
BRANCH   6  26
HETATM   26  C   UNL     1      42.139 -16.752   0.793  1.00  0.00     0.235 C 
BRANCH  26  27
HETATM   27  C   UNL     1      42.379 -17.937   1.722  1.00  0.00     0.032 C 
BRANCH  27  28
HETATM   28  C   UNL     1      43.842 -18.138   2.118  1.00  0.00     0.040 C 
BRANCH  28  29
HETATM   29  C   UNL     1      44.089 -19.567   2.526  1.00  0.00    -0.058 A 
HETATM   30  C   UNL     1      43.756 -20.621   1.663  1.00  0.00     0.007 A 
HETATM   31  C   UNL     1      43.948 -21.946   2.057  1.00  0.00     0.001 A 
HETATM   32  C   UNL     1      44.470 -22.231   3.317  1.00  0.00     0.000 A 
HETATM   33  C   UNL     1      44.805 -21.191   4.183  1.00  0.00     0.001 A 
HETATM   34  C   UNL     1      44.616 -19.866   3.789  1.00  0.00     0.007 A 
ENDBRANCH  28  29
ENDBRANCH  27  28
ENDBRANCH  26  27
ENDBRANCH   6  26
TORSDOF 8
ENDMDL
MODEL 9
REMARK VINA RESULT:      -8.5      4.317      8.175
REMARK  8 active torsions:
REMARK  status: ('A' for Active; 'I' for Inactive)
REMARK    1  A    between atoms: N_2  and  C_3 
REMARK    2  A    between atoms: C_4  and  C_5 
REMARK       I    between atoms: C_5  and  N_6 
REMARK    3  A    between atoms: N_6  and  C_7 
REMARK    4  A    between atoms: C_7  and  C_8 
REMARK    5  A    between atoms: N_13  and  C_15 
REMARK    6  A    between atoms: C_15  and  C_16 
REMARK    7  A    between atoms: C_16  and  C_17 
REMARK    8  A    between atoms: C_17  and  C_18 
ROOT
HETATM    1  C   UNL     1      40.536 -15.425   2.327  1.00  0.00     0.140 C 
HETATM    2  O   UNL     1      40.784 -15.687   3.726  1.00  0.00    -0.373 OA
HETATM    3  C   UNL     1      41.939 -16.548   3.821  1.00  0.00     0.064 C 
HETATM    4  C   UNL     1      41.557 -17.712   4.742  1.00  0.00     0.066 C 
HETATM    5  C   UNL     1      41.331 -17.253   6.179  1.00  0.00     0.237 C 
HETATM    6  N   UNL     1      42.536 -16.495   6.705  1.00  0.00    -0.071 N 
HETATM    7  H   UNL     1      42.230 -16.109   7.608  1.00  0.00     0.279 HD
HETATM    8  C   UNL     1      42.808 -15.292   5.827  1.00  0.00     0.237 C 
HETATM    9  C   UNL     1      43.098 -15.731   4.402  1.00  0.00     0.066 C 
HETATM   10  C   UNL     1      42.253 -17.019   2.394  1.00  0.00     0.041 C 
HETATM   11  C   UNL     1      40.992 -16.694   1.629  1.00  0.00     0.036 C 
ENDROOT
BRANCH   1  12
HETATM   12  C   UNL     1      39.066 -15.085   2.075  1.00  0.00     0.155 C 
BRANCH  12  13
HETATM   13  N   UNL     1      38.821 -14.640   0.719  1.00  0.00    -0.354 N 
HETATM   14  C   UNL     1      38.793 -13.289   0.410  1.00  0.00     0.253 C 
HETATM   15  O   UNL     1      38.904 -12.421   1.266  1.00  0.00    -0.268 OA
HETATM   16  H   UNL     1      38.829 -15.316  -0.035  1.00  0.00     0.162 HD
BRANCH  14  17
HETATM   17  C   UNL     1      38.627 -12.985  -1.040  1.00  0.00     0.053 A 
HETATM   18  C   UNL     1      39.587 -13.382  -2.001  1.00  0.00     0.025 A 
HETATM   19  C   UNL     1      39.332 -13.039  -3.344  1.00  0.00     0.025 A 
HETATM   20  C   UNL     1      38.187 -12.330  -3.718  1.00  0.00     0.002 A 
HETATM   21  C   UNL     1      37.262 -11.936  -2.759  1.00  0.00     0.001 A 
HETATM   22  C   UNL     1      37.481 -12.259  -1.422  1.00  0.00     0.019 A 
BRANCH  18  23
HETATM   23  N   UNL     1      40.728 -14.127  -1.645  1.00  0.00    -0.291 NA
HETATM   24  C   UNL     1      40.809 -15.407  -2.344  1.00  0.00     0.116 C 
HETATM   25  C   UNL     1      41.988 -13.386  -1.573  1.00  0.00     0.116 C 
ENDBRANCH  18  23
ENDBRANCH  14  17
ENDBRANCH  12  13
ENDBRANCH   1  12
BRANCH   6  26
HETATM   26  C   UNL     1      43.712 -17.404   7.004  1.00  0.00     0.235 C 
BRANCH  26  27
HETATM   27  C   UNL     1      43.707 -18.711   6.220  1.00  0.00     0.032 C 
BRANCH  27  28
HETATM   28  C   UNL     1      44.961 -18.943   5.377  1.00  0.00     0.040 C 
BRANCH  28  29
HETATM   29  C   UNL     1      44.750 -20.083   4.414  1.00  0.00    -0.058 A 
HETATM   30  C   UNL     1      44.369 -19.833   3.089  1.00  0.00     0.007 A 
HETATM   31  C   UNL     1      44.134 -20.891   2.209  1.00  0.00     0.001 A 
HETATM   32  C   UNL     1      44.274 -22.207   2.646  1.00  0.00     0.000 A 
HETATM   33  C   UNL     1      44.654 -22.466   3.961  1.00  0.00     0.001 A 
HETATM   34  C   UNL     1      44.891 -21.410   4.842  1.00  0.00     0.007 A 
ENDBRANCH  28  29
ENDBRANCH  27  28
ENDBRANCH  26  27
ENDBRANCH   6  26
TORSDOF 8
ENDMDL
MODEL 10
REMARK VINA RESULT:      -8.4      4.430      9.254
REMARK  8 active torsions:
REMARK  status: ('A' for Active; 'I' for Inactive)
REMARK    1  A    between atoms: N_2  and  C_3 
REMARK    2  A    between atoms: C_4  and  C_5 
REMARK       I    between atoms: C_5  and  N_6 
REMARK    3  A    between atoms: N_6  and  C_7 
REMARK    4  A    between atoms: C_7  and  C_8 
REMARK    5  A    between atoms: N_13  and  C_15 
REMARK    6  A    between atoms: C_15  and  C_16 
REMARK    7  A    between atoms: C_16  and  C_17 
REMARK    8  A    between atoms: C_17  and  C_18 
ROOT
HETATM    1  C   UNL     1      42.383 -16.046   0.717  1.00  0.00     0.140 C 
HETATM    2  O   UNL     1      41.894 -15.899   2.069  1.00  0.00    -0.373 OA
HETATM    3  C   UNL     1      42.888 -16.444   2.964  1.00  0.00     0.064 C 
HETATM    4  C   UNL     1      42.158 -17.402   3.914  1.00  0.00     0.066 C 
HETATM    5  C   UNL     1      41.201 -16.666   4.845  1.00  0.00     0.237 C 
HETATM    6  N   UNL     1      41.919 -15.563   5.602  1.00  0.00    -0.071 N 
HETATM    7  H   UNL     1      41.170 -15.042   6.079  1.00  0.00     0.279 HD
HETATM    8  C   UNL     1      42.528 -14.581   4.624  1.00  0.00     0.237 C 
HETATM    9  C   UNL     1      43.533 -15.282   3.727  1.00  0.00     0.066 C 
HETATM   10  C   UNL     1      43.916 -17.172   2.087  1.00  0.00     0.041 C 
HETATM   11  C   UNL     1      43.207 -17.320   0.761  1.00  0.00     0.036 C 
ENDROOT
BRANCH   1  12
HETATM   12  C   UNL     1      41.232 -16.099  -0.289  1.00  0.00     0.155 C 
BRANCH  12  13
HETATM   13  N   UNL     1      41.080 -14.863  -1.028  1.00  0.00    -0.354 N 
HETATM   14  C   UNL     1      41.084 -14.861  -2.414  1.00  0.00     0.253 C 
HETATM   15  O   UNL     1      41.280 -15.877  -3.068  1.00  0.00    -0.268 OA
HETATM   16  H   UNL     1      40.811 -14.019  -0.536  1.00  0.00     0.162 HD
BRANCH  14  17
HETATM   17  C   UNL     1      40.822 -13.531  -3.035  1.00  0.00     0.053 A 
HETATM   18  C   UNL     1      39.518 -12.986  -3.112  1.00  0.00     0.025 A 
HETATM   19  C   UNL     1      39.384 -11.724  -3.723  1.00  0.00     0.025 A 
HETATM   20  C   UNL     1      40.485 -11.036  -4.242  1.00  0.00     0.002 A 
HETATM   21  C   UNL     1      41.755 -11.593  -4.170  1.00  0.00     0.001 A 
HETATM   22  C   UNL     1      41.926 -12.839  -3.572  1.00  0.00     0.019 A 
BRANCH  18  23
HETATM   23  N   UNL     1      38.404 -13.650  -2.562  1.00  0.00    -0.291 NA
HETATM   24  C   UNL     1      37.719 -12.859  -1.543  1.00  0.00     0.116 C 
HETATM   25  C   UNL     1      37.520 -14.325  -3.513  1.00  0.00     0.116 C 
ENDBRANCH  18  23
ENDBRANCH  14  17
ENDBRANCH  12  13
ENDBRANCH   1  12
BRANCH   6  26
HETATM   26  C   UNL     1      42.828 -16.099   6.691  1.00  0.00     0.235 C 
BRANCH  26  27
HETATM   27  C   UNL     1      42.418 -17.465   7.230  1.00  0.00     0.032 C 
BRANCH  27  28
HETATM   28  C   UNL     1      43.580 -18.304   7.763  1.00  0.00     0.040 C 
BRANCH  28  29
HETATM   29  C   UNL     1      44.003 -19.332   6.745  1.00  0.00    -0.058 A 
HETATM   30  C   UNL     1      43.726 -20.691   6.949  1.00  0.00     0.007 A 
HETATM   31  C   UNL     1      44.154 -21.647   6.026  1.00  0.00     0.001 A 
HETATM   32  C   UNL     1      44.865 -21.254   4.894  1.00  0.00     0.000 A 
HETATM   33  C   UNL     1      45.145 -19.906   4.681  1.00  0.00     0.001 A 
HETATM   34  C   UNL     1      44.716 -18.949   5.601  1.00  0.00     0.007 A 
ENDBRANCH  28  29
ENDBRANCH  27  28
ENDBRANCH  26  27
ENDBRANCH   6  26
TORSDOF 8
ENDMDL
