MODEL 1
REMARK VINA RESULT:      -8.4      0.000      0.000
REMARK  8 active torsions:
REMARK  status: ('A' for Active; 'I' for Inactive)
REMARK    1  A    between atoms: C_6  and  C_7 
REMARK       I    between atoms: C_7  and  N_8 
REMARK    2  A    between atoms: N_8  and  C_9 
REMARK    3  A    between atoms: C_9  and  C_10 
REMARK    4  A    between atoms: N_15  and  C_17 
REMARK    5  A    between atoms: C_17  and  C_18 
REMARK    6  A    between atoms: C_21  and  C_22 
REMARK    7  A    between atoms: C_23  and  C_24 
REMARK    8  A    between atoms: C_24  and  O_25 
ROOT
HETATM    1  C   UNL     1      40.610 -16.127   2.169  1.00  0.00     0.140 C 
HETATM    2  O   UNL     1      41.247 -15.244   3.122  1.00  0.00    -0.373 OA
HETATM    3  C   UNL     1      40.391 -14.094   3.302  1.00  0.00     0.064 C 
HETATM    4  C   UNL     1      41.268 -12.848   3.146  1.00  0.00     0.066 C 
HETATM    5  C   UNL     1      42.319 -12.771   4.245  1.00  0.00     0.238 C 
HETATM    6  N   UNL     1      41.672 -12.806   5.610  1.00  0.00    -0.067 N 
HETATM    7  H   UNL     1      42.455 -12.889   6.271  1.00  0.00     0.280 HD
HETATM    8  C   UNL     1      40.850 -14.060   5.789  1.00  0.00     0.238 C 
HETATM    9  C   UNL     1      39.784 -14.166   4.707  1.00  0.00     0.066 C 
HETATM   10  C   UNL     1      39.313 -14.176   2.213  1.00  0.00     0.041 C 
HETATM   11  C   UNL     1      39.876 -15.184   1.236  1.00  0.00     0.036 C 
ENDROOT
BRANCH   1  12
HETATM   12  C   UNL     1      41.635 -17.006   1.445  1.00  0.00     0.155 C 
BRANCH  12  13
HETATM   13  N   UNL     1      42.244 -18.023   2.285  1.00  0.00    -0.353 N 
HETATM   14  C   UNL     1      43.611 -18.142   2.423  1.00  0.00     0.270 C 
HETATM   15  O   UNL     1      44.381 -17.480   1.732  1.00  0.00    -0.266 OA
HETATM   16  H   UNL     1      41.647 -18.521   2.927  1.00  0.00     0.162 HD
BRANCH  14  17
HETATM   17  C   UNL     1      44.050 -19.099   3.414  1.00  0.00     0.122 A 
HETATM   18  N   UNL     1      44.152 -18.827   4.761  1.00  0.00    -0.269 N 
HETATM   19  N   UNL     1      44.602 -19.864   5.493  1.00  0.00    -0.177 NA
HETATM   20  C   UNL     1      43.847 -17.585   5.438  1.00  0.00     0.180 C 
HETATM   21  C   UNL     1      44.747 -20.855   4.612  1.00  0.00     0.053 A 
HETATM   22  C   UNL     1      45.187 -22.201   5.051  1.00  0.00     0.072 C 
HETATM   23  C   UNL     1      44.430 -20.428   3.304  1.00  0.00     0.065 A 
ENDBRANCH  14  17
ENDBRANCH  12  13
ENDBRANCH   1  12
BRANCH   6  24
HETATM   24  C   UNL     1      40.947 -11.545   6.033  1.00  0.00     0.273 C 
BRANCH  24  25
HETATM   25  C   UNL     1      41.202 -11.155   7.464  1.00  0.00    -0.033 A 
HETATM   26  C   UNL     1      40.129 -10.842   8.313  1.00  0.00     0.010 A 
HETATM   27  C   UNL     1      40.361 -10.429   9.627  1.00  0.00     0.021 A 
HETATM   28  C   UNL     1      41.666 -10.325  10.108  1.00  0.00     0.017 A 
HETATM   29  C   UNL     1      42.739 -10.649   9.277  1.00  0.00     0.021 A 
HETATM   30  C   UNL     1      42.512 -11.062   7.962  1.00  0.00     0.010 A 
BRANCH  28  31
HETATM   31  C   UNL     1      41.901  -9.881  11.444  1.00  0.00    -0.064 C 
HETATM   32  C   UNL     1      42.088  -9.500  12.569  1.00  0.00    -0.064 C 
BRANCH  32  33
HETATM   33  C   UNL     1      42.316  -9.023  13.944  1.00  0.00     0.114 C 
HETATM   34  C   UNL     1      41.697  -7.641  14.142  1.00  0.00     0.060 C 
HETATM   35  C   UNL     1      41.754 -10.016  14.956  1.00  0.00     0.060 C 
BRANCH  33  36
HETATM   36  O   UNL     1      43.722  -8.927  14.165  1.00  0.00    -0.378 OA
HETATM   37  H   UNL     1      44.077  -9.831  14.162  1.00  0.00     0.211 HD
ENDBRANCH  33  36
ENDBRANCH  32  33
ENDBRANCH  28  31
ENDBRANCH  24  25
ENDBRANCH   6  24
TORSDOF 8
ENDMDL
MODEL 2
REMARK VINA RESULT:      -8.3      4.072     11.161
REMARK  8 active torsions:
REMARK  status: ('A' for Active; 'I' for Inactive)
REMARK    1  A    between atoms: C_6  and  C_7 
REMARK       I    between atoms: C_7  and  N_8 
REMARK    2  A    between atoms: N_8  and  C_9 
REMARK    3  A    between atoms: C_9  and  C_10 
REMARK    4  A    between atoms: N_15  and  C_17 
REMARK    5  A    between atoms: C_17  and  C_18 
REMARK    6  A    between atoms: C_21  and  C_22 
REMARK    7  A    between atoms: C_23  and  C_24 
REMARK    8  A    between atoms: C_24  and  O_25 
ROOT
HETATM    1  C   UNL     1      43.971 -14.745   7.226  1.00  0.00     0.140 C 
HETATM    2  O   UNL     1      43.186 -14.297   6.096  1.00  0.00    -0.373 OA
HETATM    3  C   UNL     1      42.800 -15.463   5.335  1.00  0.00     0.064 C 
HETATM    4  C   UNL     1      43.146 -15.183   3.870  1.00  0.00     0.066 C 
HETATM    5  C   UNL     1      42.324 -14.025   3.320  1.00  0.00     0.238 C 
HETATM    6  N   UNL     1      40.846 -14.290   3.482  1.00  0.00    -0.067 N 
HETATM    7  H   UNL     1      40.389 -13.409   3.215  1.00  0.00     0.280 HD
HETATM    8  C   UNL     1      40.490 -14.513   4.931  1.00  0.00     0.238 C 
HETATM    9  C   UNL     1      41.292 -15.670   5.513  1.00  0.00     0.066 C 
HETATM   10  C   UNL     1      43.605 -16.641   5.899  1.00  0.00     0.041 C 
HETATM   11  C   UNL     1      44.696 -15.969   6.701  1.00  0.00     0.036 C 
ENDROOT
BRANCH   1  12
HETATM   12  C   UNL     1      44.924 -13.651   7.718  1.00  0.00     0.155 C 
BRANCH  12  13
HETATM   13  N   UNL     1      44.407 -12.867   8.827  1.00  0.00    -0.353 N 
HETATM   14  C   UNL     1      44.931 -11.638   9.167  1.00  0.00     0.270 C 
HETATM   15  O   UNL     1      45.951 -11.211   8.633  1.00  0.00    -0.266 OA
HETATM   16  H   UNL     1      43.524 -13.145   9.226  1.00  0.00     0.162 HD
BRANCH  14  17
HETATM   17  C   UNL     1      44.204 -10.919  10.190  1.00  0.00     0.122 A 
HETATM   18  N   UNL     1      42.993 -10.294   9.985  1.00  0.00    -0.269 N 
HETATM   19  N   UNL     1      42.513  -9.669  11.077  1.00  0.00    -0.177 NA
HETATM   20  C   UNL     1      42.224 -10.236   8.762  1.00  0.00     0.180 C 
HETATM   21  C   UNL     1      43.404  -9.937  12.033  1.00  0.00     0.053 A 
HETATM   22  C   UNL     1      43.197  -9.453  13.419  1.00  0.00     0.072 C 
HETATM   23  C   UNL     1      44.481 -10.699  11.530  1.00  0.00     0.065 A 
ENDBRANCH  14  17
ENDBRANCH  12  13
ENDBRANCH   1  12
BRANCH   6  24
HETATM   24  C   UNL     1      40.252 -15.327   2.549  1.00  0.00     0.273 C 
BRANCH  24  25
HETATM   25  C   UNL     1      39.605 -14.737   1.326  1.00  0.00    -0.033 A 
HETATM   26  C   UNL     1      38.247 -14.380   1.346  1.00  0.00     0.010 A 
HETATM   27  C   UNL     1      37.627 -13.881   0.199  1.00  0.00     0.021 A 
HETATM   28  C   UNL     1      38.356 -13.730  -0.980  1.00  0.00     0.017 A 
HETATM   29  C   UNL     1      39.710 -14.066  -1.008  1.00  0.00     0.021 A 
HETATM   30  C   UNL     1      40.334 -14.566   0.138  1.00  0.00     0.010 A 
BRANCH  28  31
HETATM   31  C   UNL     1      37.714 -13.240  -2.158  1.00  0.00    -0.064 C 
HETATM   32  C   UNL     1      37.164 -12.836  -3.148  1.00  0.00    -0.064 C 
BRANCH  32  33
HETATM   33  C   UNL     1      36.490 -12.351  -4.364  1.00  0.00     0.114 C 
HETATM   34  C   UNL     1      35.812 -13.506  -5.099  1.00  0.00     0.060 C 
HETATM   35  C   UNL     1      35.477 -11.264  -4.018  1.00  0.00     0.060 C 
BRANCH  33  36
HETATM   36  O   UNL     1      37.467 -11.774  -5.228  1.00  0.00    -0.378 OA
HETATM   37  H   UNL     1      38.058 -12.489  -5.514  1.00  0.00     0.211 HD
ENDBRANCH  33  36
ENDBRANCH  32  33
ENDBRANCH  28  31
ENDBRANCH  24  25
ENDBRANCH   6  24
TORSDOF 8
ENDMDL
MODEL 3
REMARK VINA RESULT:      -7.9      4.263     10.406
REMARK  8 active torsions:
REMARK  status: ('A' for Active; 'I' for Inactive)
REMARK    1  A    between atoms: C_6  and  C_7 
REMARK       I    between atoms: C_7  and  N_8 
REMARK    2  A    between atoms: N_8  and  C_9 
REMARK    3  A    between atoms: C_9  and  C_10 
REMARK    4  A    between atoms: N_15  and  C_17 
REMARK    5  A    between atoms: C_17  and  C_18 
REMARK    6  A    between atoms: C_21  and  C_22 
REMARK    7  A    between atoms: C_23  and  C_24 
REMARK    8  A    between atoms: C_24  and  O_25 
ROOT
HETATM    1  C   UNL     1      44.011 -14.431   7.281  1.00  0.00     0.140 C 
HETATM    2  O   UNL     1      43.226 -13.762   6.266  1.00  0.00    -0.373 OA
HETATM    3  C   UNL     1      42.791 -14.759   5.314  1.00  0.00     0.064 C 
HETATM    4  C   UNL     1      43.126 -14.227   3.917  1.00  0.00     0.066 C 
HETATM    5  C   UNL     1      42.335 -12.965   3.602  1.00  0.00     0.238 C 
HETATM    6  N   UNL     1      40.852 -13.212   3.742  1.00  0.00    -0.067 N 
HETATM    7  H   UNL     1      40.420 -12.284   3.648  1.00  0.00     0.280 HD
HETATM    8  C   UNL     1      40.508 -13.684   5.134  1.00  0.00     0.238 C 
HETATM    9  C   UNL     1      41.280 -14.951   5.481  1.00  0.00     0.066 C 
HETATM   10  C   UNL     1      43.565 -16.043   5.640  1.00  0.00     0.041 C 
HETATM   11  C   UNL     1      44.688 -15.560   6.529  1.00  0.00     0.036 C 
ENDROOT
BRANCH   1  12
HETATM   12  C   UNL     1      45.006 -13.474   7.944  1.00  0.00     0.155 C 
BRANCH  12  13
HETATM   13  N   UNL     1      44.448 -12.708   9.047  1.00  0.00    -0.353 N 
HETATM   14  C   UNL     1      44.907 -11.450   9.375  1.00  0.00     0.270 C 
HETATM   15  O   UNL     1      45.902 -10.974   8.837  1.00  0.00    -0.266 OA
HETATM   16  H   UNL     1      43.582 -13.028   9.450  1.00  0.00     0.162 HD
BRANCH  14  17
HETATM   17  C   UNL     1      44.144 -10.761  10.392  1.00  0.00     0.122 A 
HETATM   18  N   UNL     1      42.924 -10.161  10.171  1.00  0.00    -0.269 N 
HETATM   19  N   UNL     1      42.407  -9.561  11.261  1.00  0.00    -0.177 NA
HETATM   20  C   UNL     1      42.178 -10.103   8.933  1.00  0.00     0.180 C 
HETATM   21  C   UNL     1      43.285  -9.822  12.231  1.00  0.00     0.053 A 
HETATM   22  C   UNL     1      43.039  -9.362  13.619  1.00  0.00     0.072 C 
HETATM   23  C   UNL     1      44.388 -10.553  11.741  1.00  0.00     0.065 A 
ENDBRANCH  14  17
ENDBRANCH  12  13
ENDBRANCH   1  12
BRANCH   6  24
HETATM   24  C   UNL     1      40.211 -14.044   2.649  1.00  0.00     0.273 C 
BRANCH  24  25
HETATM   25  C   UNL     1      39.056 -13.360   1.969  1.00  0.00    -0.033 A 
HETATM   26  C   UNL     1      38.771 -12.014   2.244  1.00  0.00     0.010 A 
HETATM   27  C   UNL     1      37.669 -11.388   1.657  1.00  0.00     0.021 A 
HETATM   28  C   UNL     1      36.842 -12.098   0.787  1.00  0.00     0.017 A 
HETATM   29  C   UNL     1      37.126 -13.432   0.494  1.00  0.00     0.021 A 
HETATM   30  C   UNL     1      38.227 -14.063   1.080  1.00  0.00     0.010 A 
BRANCH  28  31
HETATM   31  C   UNL     1      35.703 -11.462   0.206  1.00  0.00    -0.064 C 
HETATM   32  C   UNL     1      34.740 -10.926  -0.272  1.00  0.00    -0.064 C 
BRANCH  32  33
HETATM   33  C   UNL     1      33.552 -10.276  -0.853  1.00  0.00     0.114 C 
HETATM   34  C   UNL     1      33.150 -10.960  -2.158  1.00  0.00     0.060 C 
HETATM   35  C   UNL     1      32.395 -10.288   0.142  1.00  0.00     0.060 C 
BRANCH  33  36
HETATM   36  O   UNL     1      33.869  -8.914  -1.133  1.00  0.00    -0.378 OA
HETATM   37  H   UNL     1      34.792  -8.888  -1.434  1.00  0.00     0.211 HD
ENDBRANCH  33  36
ENDBRANCH  32  33
ENDBRANCH  28  31
ENDBRANCH  24  25
ENDBRANCH   6  24
TORSDOF 8
ENDMDL
MODEL 4
REMARK VINA RESULT:      -7.8      2.949     10.499
REMARK  8 active torsions:
REMARK  status: ('A' for Active; 'I' for Inactive)
REMARK    1  A    between atoms: C_6  and  C_7 
REMARK       I    between atoms: C_7  and  N_8 
REMARK    2  A    between atoms: N_8  and  C_9 
REMARK    3  A    between atoms: C_9  and  C_10 
REMARK    4  A    between atoms: N_15  and  C_17 
REMARK    5  A    between atoms: C_17  and  C_18 
REMARK    6  A    between atoms: C_21  and  C_22 
REMARK    7  A    between atoms: C_23  and  C_24 
REMARK    8  A    between atoms: C_24  and  O_25 
ROOT
HETATM    1  C   UNL     1      40.706 -12.224   5.664  1.00  0.00     0.140 C 
HETATM    2  O   UNL     1      41.273 -13.482   6.098  1.00  0.00    -0.373 OA
HETATM    3  C   UNL     1      41.194 -14.409   4.992  1.00  0.00     0.064 C 
HETATM    4  C   UNL     1      40.575 -15.703   5.529  1.00  0.00     0.066 C 
HETATM    5  C   UNL     1      41.476 -16.357   6.567  1.00  0.00     0.238 C 
HETATM    6  N   UNL     1      42.852 -16.615   5.999  1.00  0.00    -0.067 N 
HETATM    7  H   UNL     1      43.416 -16.922   6.802  1.00  0.00     0.280 HD
HETATM    8  C   UNL     1      43.489 -15.334   5.518  1.00  0.00     0.238 C 
HETATM    9  C   UNL     1      42.615 -14.654   4.472  1.00  0.00     0.066 C 
HETATM   10  C   UNL     1      40.307 -13.748   3.929  1.00  0.00     0.041 C 
HETATM   11  C   UNL     1      39.621 -12.634   4.687  1.00  0.00     0.036 C 
ENDROOT
BRANCH   1  12
HETATM   12  C   UNL     1      40.169 -11.411   6.846  1.00  0.00     0.155 C 
BRANCH  12  13
HETATM   13  N   UNL     1      41.048 -11.397   8.004  1.00  0.00    -0.353 N 
HETATM   14  C   UNL     1      41.923 -10.360   8.251  1.00  0.00     0.270 C 
HETATM   15  O   UNL     1      42.098  -9.465   7.429  1.00  0.00    -0.266 OA
HETATM   16  H   UNL     1      40.869 -12.065   8.737  1.00  0.00     0.162 HD
BRANCH  14  17
HETATM   17  C   UNL     1      42.609 -10.422   9.522  1.00  0.00     0.122 A 
HETATM   18  N   UNL     1      43.740 -11.172   9.756  1.00  0.00    -0.269 N 
HETATM   19  N   UNL     1      44.193 -11.092  11.022  1.00  0.00    -0.177 NA
HETATM   20  C   UNL     1      44.453 -12.012   8.819  1.00  0.00     0.180 C 
HETATM   21  C   UNL     1      43.370 -10.227  11.616  1.00  0.00     0.053 A 
HETATM   22  C   UNL     1      43.577  -9.833  13.031  1.00  0.00     0.072 C 
HETATM   23  C   UNL     1      42.360  -9.791  10.732  1.00  0.00     0.065 A 
ENDBRANCH  14  17
ENDBRANCH  12  13
ENDBRANCH   1  12
BRANCH   6  24
HETATM   24  C   UNL     1      42.956 -17.751   5.002  1.00  0.00     0.273 C 
BRANCH  24  25
HETATM   25  C   UNL     1      42.580 -17.357   3.599  1.00  0.00    -0.033 A 
HETATM   26  C   UNL     1      43.564 -16.920   2.700  1.00  0.00     0.010 A 
HETATM   27  C   UNL     1      43.215 -16.504   1.413  1.00  0.00     0.021 A 
HETATM   28  C   UNL     1      41.880 -16.521   1.010  1.00  0.00     0.017 A 
HETATM   29  C   UNL     1      40.895 -16.970   1.891  1.00  0.00     0.021 A 
HETATM   30  C   UNL     1      41.240 -17.387   3.179  1.00  0.00     0.010 A 
BRANCH  28  31
HETATM   31  C   UNL     1      41.524 -16.073  -0.298  1.00  0.00    -0.064 C 
HETATM   32  C   UNL     1      41.234 -15.690  -1.400  1.00  0.00    -0.064 C 
BRANCH  32  33
HETATM   33  C   UNL     1      40.881 -15.209  -2.747  1.00  0.00     0.114 C 
HETATM   34  C   UNL     1      39.902 -16.169  -3.420  1.00  0.00     0.060 C 
HETATM   35  C   UNL     1      40.296 -13.802  -2.677  1.00  0.00     0.060 C 
BRANCH  33  36
HETATM   36  O   UNL     1      42.069 -15.146  -3.534  1.00  0.00    -0.378 OA
HETATM   37  H   UNL     1      42.803 -14.940  -2.933  1.00  0.00     0.211 HD
ENDBRANCH  33  36
ENDBRANCH  32  33
ENDBRANCH  28  31
ENDBRANCH  24  25
ENDBRANCH   6  24
TORSDOF 8
ENDMDL
MODEL 5
REMARK VINA RESULT:      -7.6      2.991     10.571
REMARK  8 active torsions:
REMARK  status: ('A' for Active; 'I' for Inactive)
REMARK    1  A    between atoms: C_6  and  C_7 
REMARK       I    between atoms: C_7  and  N_8 
REMARK    2  A    between atoms: N_8  and  C_9 
REMARK    3  A    between atoms: C_9  and  C_10 
REMARK    4  A    between atoms: N_15  and  C_17 
REMARK    5  A    between atoms: C_17  and  C_18 
REMARK    6  A    between atoms: C_21  and  C_22 
REMARK    7  A    between atoms: C_23  and  C_24 
REMARK    8  A    between atoms: C_24  and  O_25 
ROOT
HETATM    1  C   UNL     1      40.356 -10.238   6.380  1.00  0.00     0.140 C 
HETATM    2  O   UNL     1      40.784 -10.841   5.136  1.00  0.00    -0.373 OA
HETATM    3  C   UNL     1      39.962 -12.006   4.902  1.00  0.00     0.064 C 
HETATM    4  C   UNL     1      40.904 -13.168   4.575  1.00  0.00     0.066 C 
HETATM    5  C   UNL     1      41.663 -12.916   3.280  1.00  0.00     0.238 C 
HETATM    6  N   UNL     1      40.708 -12.662   2.137  1.00  0.00    -0.067 N 
HETATM    7  H   UNL     1      41.305 -12.370   1.354  1.00  0.00     0.280 HD
HETATM    8  C   UNL     1      39.813 -11.483   2.431  1.00  0.00     0.238 C 
HETATM    9  C   UNL     1      39.033 -11.703   3.721  1.00  0.00     0.066 C 
HETATM   10  C   UNL     1      39.173 -12.252   6.194  1.00  0.00     0.041 C 
HETATM   11  C   UNL     1      39.908 -11.419   7.219  1.00  0.00     0.036 C 
ENDROOT
BRANCH   1  12
HETATM   12  C   UNL     1      41.484  -9.434   7.033  1.00  0.00     0.155 C 
BRANCH  12  13
HETATM   13  N   UNL     1      41.499  -9.504   8.485  1.00  0.00    -0.353 N 
HETATM   14  C   UNL     1      42.434 -10.245   9.176  1.00  0.00     0.270 C 
HETATM   15  O   UNL     1      43.215 -10.991   8.592  1.00  0.00    -0.266 OA
HETATM   16  H   UNL     1      40.934  -8.842   8.992  1.00  0.00     0.162 HD
BRANCH  14  17
HETATM   17  C   UNL     1      42.409 -10.083  10.613  1.00  0.00     0.122 A 
HETATM   18  N   UNL     1      41.404 -10.553  11.428  1.00  0.00    -0.269 N 
HETATM   19  N   UNL     1      41.582 -10.268  12.732  1.00  0.00    -0.177 NA
HETATM   20  C   UNL     1      40.218 -11.285  11.038  1.00  0.00     0.180 C 
HETATM   21  C   UNL     1      42.759  -9.642  12.777  1.00  0.00     0.053 A 
HETATM   22  C   UNL     1      43.335  -9.204  14.072  1.00  0.00     0.072 C 
HETATM   23  C   UNL     1      43.308  -9.489  11.486  1.00  0.00     0.065 A 
ENDBRANCH  14  17
ENDBRANCH  12  13
ENDBRANCH   1  12
BRANCH   6  24
HETATM   24  C   UNL     1      39.959 -13.872   1.617  1.00  0.00     0.273 C 
BRANCH  24  25
HETATM   25  C   UNL     1      40.727 -15.159   1.748  1.00  0.00    -0.033 A 
HETATM   26  C   UNL     1      40.445 -16.048   2.796  1.00  0.00     0.010 A 
HETATM   27  C   UNL     1      41.189 -17.219   2.954  1.00  0.00     0.021 A 
HETATM   28  C   UNL     1      42.222 -17.516   2.066  1.00  0.00     0.017 A 
HETATM   29  C   UNL     1      42.502 -16.647   1.010  1.00  0.00     0.021 A 
HETATM   30  C   UNL     1      41.759 -15.474   0.849  1.00  0.00     0.010 A 
BRANCH  28  31
HETATM   31  C   UNL     1      42.997 -18.703   2.243  1.00  0.00    -0.064 C 
HETATM   32  C   UNL     1      43.657 -19.695   2.398  1.00  0.00    -0.064 C 
BRANCH  32  33
HETATM   33  C   UNL     1      44.475 -20.906   2.583  1.00  0.00     0.114 C 
HETATM   34  C   UNL     1      44.377 -21.405   4.023  1.00  0.00     0.060 C 
HETATM   35  C   UNL     1      44.049 -21.996   1.604  1.00  0.00     0.060 C 
BRANCH  33  36
HETATM   36  O   UNL     1      45.836 -20.583   2.306  1.00  0.00    -0.378 OA
HETATM   37  H   UNL     1      46.110 -21.114   1.541  1.00  0.00     0.211 HD
ENDBRANCH  33  36
ENDBRANCH  32  33
ENDBRANCH  28  31
ENDBRANCH  24  25
ENDBRANCH   6  24
TORSDOF 8
ENDMDL
MODEL 6
REMARK VINA RESULT:      -7.5      4.221     10.907
REMARK  8 active torsions:
REMARK  status: ('A' for Active; 'I' for Inactive)
REMARK    1  A    between atoms: C_6  and  C_7 
REMARK       I    between atoms: C_7  and  N_8 
REMARK    2  A    between atoms: N_8  and  C_9 
REMARK    3  A    between atoms: C_9  and  C_10 
REMARK    4  A    between atoms: N_15  and  C_17 
REMARK    5  A    between atoms: C_17  and  C_18 
REMARK    6  A    between atoms: C_21  and  C_22 
REMARK    7  A    between atoms: C_23  and  C_24 
REMARK    8  A    between atoms: C_24  and  O_25 
ROOT
HETATM    1  C   UNL     1      44.011 -13.741   7.619  1.00  0.00     0.140 C 
HETATM    2  O   UNL     1      43.093 -13.187   6.646  1.00  0.00    -0.373 OA
HETATM    3  C   UNL     1      42.837 -14.202   5.650  1.00  0.00     0.064 C 
HETATM    4  C   UNL     1      43.038 -13.552   4.278  1.00  0.00     0.066 C 
HETATM    5  C   UNL     1      42.016 -12.450   4.035  1.00  0.00     0.238 C 
HETATM    6  N   UNL     1      40.608 -12.981   4.177  1.00  0.00    -0.067 N 
HETATM    7  H   UNL     1      40.007 -12.149   4.134  1.00  0.00     0.280 HD
HETATM    8  C   UNL     1      40.389 -13.575   5.548  1.00  0.00     0.238 C 
HETATM    9  C   UNL     1      41.393 -14.686   5.823  1.00  0.00     0.066 C 
HETATM   10  C   UNL     1      43.847 -15.329   5.904  1.00  0.00     0.041 C 
HETATM   11  C   UNL     1      44.875 -14.684   6.805  1.00  0.00     0.036 C 
ENDROOT
BRANCH   1  12
HETATM   12  C   UNL     1      44.819 -12.644   8.318  1.00  0.00     0.155 C 
BRANCH  12  13
HETATM   13  N   UNL     1      44.245 -12.195   9.576  1.00  0.00    -0.353 N 
HETATM   14  C   UNL     1      43.431 -11.085   9.658  1.00  0.00     0.270 C 
HETATM   15  O   UNL     1      43.264 -10.344   8.693  1.00  0.00    -0.266 OA
HETATM   16  H   UNL     1      44.290 -12.823  10.363  1.00  0.00     0.162 HD
BRANCH  14  17
HETATM   17  C   UNL     1      42.816 -10.866  10.949  1.00  0.00     0.122 A 
HETATM   18  N   UNL     1      41.457 -10.888  11.174  1.00  0.00    -0.269 N 
HETATM   19  N   UNL     1      41.113 -10.636  12.451  1.00  0.00    -0.177 NA
HETATM   20  C   UNL     1      40.406 -11.133  10.211  1.00  0.00     0.180 C 
HETATM   21  C   UNL     1      42.277 -10.500  13.088  1.00  0.00     0.053 A 
HETATM   22  C   UNL     1      42.316 -10.258  14.551  1.00  0.00     0.072 C 
HETATM   23  C   UNL     1      43.366 -10.619  12.198  1.00  0.00     0.065 A 
ENDBRANCH  14  17
ENDBRANCH  12  13
ENDBRANCH   1  12
BRANCH   6  24
HETATM   24  C   UNL     1      40.116 -13.867   3.051  1.00  0.00     0.273 C 
BRANCH  24  25
HETATM   25  C   UNL     1      40.384 -13.305   1.682  1.00  0.00    -0.033 A 
HETATM   26  C   UNL     1      41.360 -13.886   0.857  1.00  0.00     0.010 A 
HETATM   27  C   UNL     1      41.650 -13.338  -0.394  1.00  0.00     0.021 A 
HETATM   28  C   UNL     1      40.967 -12.206  -0.837  1.00  0.00     0.017 A 
HETATM   29  C   UNL     1      39.982 -11.630  -0.033  1.00  0.00     0.021 A 
HETATM   30  C   UNL     1      39.690 -12.175   1.220  1.00  0.00     0.010 A 
BRANCH  28  31
HETATM   31  C   UNL     1      41.281 -11.634  -2.108  1.00  0.00    -0.064 C 
HETATM   32  C   UNL     1      41.534 -11.153  -3.180  1.00  0.00    -0.064 C 
BRANCH  32  33
HETATM   33  C   UNL     1      41.838 -10.572  -4.499  1.00  0.00     0.114 C 
HETATM   34  C   UNL     1      40.577 -10.502  -5.358  1.00  0.00     0.060 C 
HETATM   35  C   UNL     1      42.462  -9.189  -4.344  1.00  0.00     0.060 C 
BRANCH  33  36
HETATM   36  O   UNL     1      42.790 -11.407  -5.156  1.00  0.00    -0.378 OA
HETATM   37  H   UNL     1      42.648 -12.313  -4.837  1.00  0.00     0.211 HD
ENDBRANCH  33  36
ENDBRANCH  32  33
ENDBRANCH  28  31
ENDBRANCH  24  25
ENDBRANCH   6  24
TORSDOF 8
ENDMDL
MODEL 7
REMARK VINA RESULT:      -7.5      3.009     10.775
REMARK  8 active torsions:
REMARK  status: ('A' for Active; 'I' for Inactive)
REMARK    1  A    between atoms: C_6  and  C_7 
REMARK       I    between atoms: C_7  and  N_8 
REMARK    2  A    between atoms: N_8  and  C_9 
REMARK    3  A    between atoms: C_9  and  C_10 
REMARK    4  A    between atoms: N_15  and  C_17 
REMARK    5  A    between atoms: C_17  and  C_18 
REMARK    6  A    between atoms: C_21  and  C_22 
REMARK    7  A    between atoms: C_23  and  C_24 
REMARK    8  A    between atoms: C_24  and  O_25 
ROOT
HETATM    1  C   UNL     1      40.862  -9.418   7.614  1.00  0.00     0.140 C 
HETATM    2  O   UNL     1      40.290 -10.517   6.866  1.00  0.00    -0.373 OA
HETATM    3  C   UNL     1      40.904 -10.530   5.558  1.00  0.00     0.064 C 
HETATM    4  C   UNL     1      39.775 -10.615   4.528  1.00  0.00     0.066 C 
HETATM    5  C   UNL     1      39.011 -11.927   4.652  1.00  0.00     0.238 C 
HETATM    6  N   UNL     1      39.946 -13.107   4.524  1.00  0.00    -0.067 N 
HETATM    7  H   UNL     1      39.371 -13.926   4.757  1.00  0.00     0.280 HD
HETATM    8  C   UNL     1      41.030 -13.057   5.573  1.00  0.00     0.238 C 
HETATM    9  C   UNL     1      41.819 -11.757   5.474  1.00  0.00     0.066 C 
HETATM   10  C   UNL     1      41.697  -9.223   5.433  1.00  0.00     0.041 C 
HETATM   11  C   UNL     1      41.149  -8.371   6.555  1.00  0.00     0.036 C 
ENDROOT
BRANCH   1  12
HETATM   12  C   UNL     1      39.905  -8.920   8.702  1.00  0.00     0.155 C 
BRANCH  12  13
HETATM   13  N   UNL     1      40.420  -9.061  10.054  1.00  0.00    -0.353 N 
HETATM   14  C   UNL     1      40.410 -10.266  10.724  1.00  0.00     0.270 C 
HETATM   15  O   UNL     1      39.838 -11.248  10.259  1.00  0.00    -0.266 OA
HETATM   16  H   UNL     1      40.970  -8.303  10.428  1.00  0.00     0.162 HD
BRANCH  14  17
HETATM   17  C   UNL     1      41.100 -10.271  11.994  1.00  0.00     0.122 A 
HETATM   18  N   UNL     1      42.349 -10.817  12.195  1.00  0.00    -0.269 N 
HETATM   19  N   UNL     1      42.785 -10.724  13.466  1.00  0.00    -0.177 NA
HETATM   20  C   UNL     1      43.200 -11.461  11.219  1.00  0.00     0.180 C 
HETATM   21  C   UNL     1      41.821 -10.055  14.100  1.00  0.00     0.053 A 
HETATM   22  C   UNL     1      41.959  -9.707  15.536  1.00  0.00     0.072 C 
HETATM   23  C   UNL     1      40.746  -9.762  13.234  1.00  0.00     0.065 A 
ENDBRANCH  14  17
ENDBRANCH  12  13
ENDBRANCH   1  12
BRANCH   6  24
HETATM   24  C   UNL     1      40.469 -13.391   3.130  1.00  0.00     0.273 C 
BRANCH  24  25
HETATM   25  C   UNL     1      41.184 -14.710   3.012  1.00  0.00    -0.033 A 
HETATM   26  C   UNL     1      40.462 -15.912   3.066  1.00  0.00     0.010 A 
HETATM   27  C   UNL     1      41.125 -17.141   3.010  1.00  0.00     0.021 A 
HETATM   28  C   UNL     1      42.514 -17.181   2.897  1.00  0.00     0.017 A 
HETATM   29  C   UNL     1      43.240 -15.991   2.826  1.00  0.00     0.021 A 
HETATM   30  C   UNL     1      42.581 -14.761   2.883  1.00  0.00     0.010 A 
BRANCH  28  31
HETATM   31  C   UNL     1      43.191 -18.438   2.862  1.00  0.00    -0.064 C 
HETATM   32  C   UNL     1      43.769 -19.491   2.827  1.00  0.00    -0.064 C 
BRANCH  32  33
HETATM   33  C   UNL     1      44.480 -20.780   2.772  1.00  0.00     0.114 C 
HETATM   34  C   UNL     1      44.623 -21.374   4.173  1.00  0.00     0.060 C 
HETATM   35  C   UNL     1      43.756 -21.753   1.846  1.00  0.00     0.060 C 
BRANCH  33  36
HETATM   36  O   UNL     1      45.783 -20.560   2.237  1.00  0.00    -0.378 OA
HETATM   37  H   UNL     1      45.961 -21.277   1.606  1.00  0.00     0.211 HD
ENDBRANCH  33  36
ENDBRANCH  32  33
ENDBRANCH  28  31
ENDBRANCH  24  25
ENDBRANCH   6  24
TORSDOF 8
ENDMDL
MODEL 8
REMARK VINA RESULT:      -7.5      5.857     12.044
REMARK  8 active torsions:
REMARK  status: ('A' for Active; 'I' for Inactive)
REMARK    1  A    between atoms: C_6  and  C_7 
REMARK       I    between atoms: C_7  and  N_8 
REMARK    2  A    between atoms: N_8  and  C_9 
REMARK    3  A    between atoms: C_9  and  C_10 
REMARK    4  A    between atoms: N_15  and  C_17 
REMARK    5  A    between atoms: C_17  and  C_18 
REMARK    6  A    between atoms: C_21  and  C_22 
REMARK    7  A    between atoms: C_23  and  C_24 
REMARK    8  A    between atoms: C_24  and  O_25 
ROOT
HETATM    1  C   UNL     1      41.076 -14.605   3.472  1.00  0.00     0.140 C 
HETATM    2  O   UNL     1      40.151 -14.730   2.366  1.00  0.00    -0.373 OA
HETATM    3  C   UNL     1      39.867 -13.402   1.873  1.00  0.00     0.064 C 
HETATM    4  C   UNL     1      38.345 -13.275   1.766  1.00  0.00     0.066 C 
HETATM    5  C   UNL     1      37.781 -14.240   0.733  1.00  0.00     0.238 C 
HETATM    6  N   UNL     1      38.434 -14.030  -0.613  1.00  0.00    -0.067 N 
HETATM    7  H   UNL     1      38.095 -14.806  -1.195  1.00  0.00     0.280 HD
HETATM    8  C   UNL     1      39.930 -14.208  -0.524  1.00  0.00     0.238 C 
HETATM    9  C   UNL     1      40.529 -13.252   0.499  1.00  0.00     0.066 C 
HETATM   10  C   UNL     1      40.454 -12.421   2.896  1.00  0.00     0.041 C 
HETATM   11  C   UNL     1      40.697 -13.284   4.112  1.00  0.00     0.036 C 
ENDROOT
BRANCH   1  12
HETATM   12  C   UNL     1      40.964 -15.791   4.436  1.00  0.00     0.155 C 
BRANCH  12  13
HETATM   13  N   UNL     1      41.586 -17.011   3.950  1.00  0.00    -0.353 N 
HETATM   14  C   UNL     1      42.948 -17.117   3.760  1.00  0.00     0.270 C 
HETATM   15  O   UNL     1      43.683 -16.140   3.862  1.00  0.00    -0.266 OA
HETATM   16  H   UNL     1      41.028 -17.850   3.941  1.00  0.00     0.162 HD
BRANCH  14  17
HETATM   17  C   UNL     1      43.422 -18.442   3.426  1.00  0.00     0.122 A 
HETATM   18  N   UNL     1      44.235 -19.202   4.239  1.00  0.00    -0.269 N 
HETATM   19  N   UNL     1      44.567 -20.396   3.712  1.00  0.00    -0.177 NA
HETATM   20  C   UNL     1      44.755 -18.854   5.543  1.00  0.00     0.180 C 
HETATM   21  C   UNL     1      43.912 -20.441   2.551  1.00  0.00     0.053 A 
HETATM   22  C   UNL     1      43.987 -21.642   1.684  1.00  0.00     0.072 C 
HETATM   23  C   UNL     1      43.196 -19.246   2.319  1.00  0.00     0.065 A 
ENDBRANCH  14  17
ENDBRANCH  12  13
ENDBRANCH   1  12
BRANCH   6  24
HETATM   24  C   UNL     1      38.020 -12.780  -1.363  1.00  0.00     0.273 C 
BRANCH  24  25
HETATM   25  C   UNL     1      37.344 -13.062  -2.677  1.00  0.00    -0.033 A 
HETATM   26  C   UNL     1      37.355 -14.358  -3.214  1.00  0.00     0.010 A 
HETATM   27  C   UNL     1      36.775 -14.616  -4.458  1.00  0.00     0.021 A 
HETATM   28  C   UNL     1      36.175 -13.584  -5.178  1.00  0.00     0.017 A 
HETATM   29  C   UNL     1      36.143 -12.294  -4.646  1.00  0.00     0.021 A 
HETATM   30  C   UNL     1      36.723 -12.032  -3.402  1.00  0.00     0.010 A 
BRANCH  28  31
HETATM   31  C   UNL     1      35.602 -13.846  -6.460  1.00  0.00    -0.064 C 
HETATM   32  C   UNL     1      35.129 -14.060  -7.543  1.00  0.00    -0.064 C 
BRANCH  32  33
HETATM   33  C   UNL     1      34.549 -14.311  -8.874  1.00  0.00     0.114 C 
HETATM   34  C   UNL     1      34.099 -13.001  -9.519  1.00  0.00     0.060 C 
HETATM   35  C   UNL     1      35.551 -15.036  -9.767  1.00  0.00     0.060 C 
BRANCH  33  36
HETATM   36  O   UNL     1      33.412 -15.158  -8.723  1.00  0.00    -0.378 OA
HETATM   37  H   UNL     1      32.933 -14.860  -7.932  1.00  0.00     0.211 HD
ENDBRANCH  33  36
ENDBRANCH  32  33
ENDBRANCH  28  31
ENDBRANCH  24  25
ENDBRANCH   6  24
TORSDOF 8
ENDMDL
MODEL 9
REMARK VINA RESULT:      -7.5      5.124     10.257
REMARK  8 active torsions:
REMARK  status: ('A' for Active; 'I' for Inactive)
REMARK    1  A    between atoms: C_6  and  C_7 
REMARK       I    between atoms: C_7  and  N_8 
REMARK    2  A    between atoms: N_8  and  C_9 
REMARK    3  A    between atoms: C_9  and  C_10 
REMARK    4  A    between atoms: N_15  and  C_17 
REMARK    5  A    between atoms: C_17  and  C_18 
REMARK    6  A    between atoms: C_21  and  C_22 
REMARK    7  A    between atoms: C_23  and  C_24 
REMARK    8  A    between atoms: C_24  and  O_25 
ROOT
HETATM    1  C   UNL     1      41.900 -14.199   5.259  1.00  0.00     0.140 C 
HETATM    2  O   UNL     1      42.165 -14.516   3.872  1.00  0.00    -0.373 OA
HETATM    3  C   UNL     1      40.931 -14.356   3.137  1.00  0.00     0.064 C 
HETATM    4  C   UNL     1      40.733 -15.624   2.301  1.00  0.00     0.066 C 
HETATM    5  C   UNL     1      41.832 -15.773   1.258  1.00  0.00     0.238 C 
HETATM    6  N   UNL     1      41.904 -14.551   0.373  1.00  0.00    -0.067 N 
HETATM    7  H   UNL     1      42.749 -14.685  -0.196  1.00  0.00     0.280 HD
HETATM    8  C   UNL     1      42.152 -13.305   1.188  1.00  0.00     0.238 C 
HETATM    9  C   UNL     1      41.067 -13.121   2.240  1.00  0.00     0.066 C 
HETATM   10  C   UNL     1      39.820 -14.179   4.181  1.00  0.00     0.041 C 
HETATM   11  C   UNL     1      40.466 -14.647   5.465  1.00  0.00     0.036 C 
ENDROOT
BRANCH   1  12
HETATM   12  C   UNL     1      42.886 -14.904   6.195  1.00  0.00     0.155 C 
BRANCH  12  13
HETATM   13  N   UNL     1      43.435 -16.139   5.659  1.00  0.00    -0.353 N 
HETATM   14  C   UNL     1      42.907 -17.374   5.969  1.00  0.00     0.270 C 
HETATM   15  O   UNL     1      42.034 -17.498   6.824  1.00  0.00    -0.266 OA
HETATM   16  H   UNL     1      44.088 -16.069   4.894  1.00  0.00     0.162 HD
BRANCH  14  17
HETATM   17  C   UNL     1      43.465 -18.486   5.231  1.00  0.00     0.122 A 
HETATM   18  N   UNL     1      43.914 -19.653   5.810  1.00  0.00    -0.269 N 
HETATM   19  N   UNL     1      44.412 -20.541   4.928  1.00  0.00    -0.177 NA
HETATM   20  C   UNL     1      43.911 -20.001   7.214  1.00  0.00     0.180 C 
HETATM   21  C   UNL     1      44.237 -19.962   3.739  1.00  0.00     0.053 A 
HETATM   22  C   UNL     1      44.624 -20.664   2.491  1.00  0.00     0.072 C 
HETATM   23  C   UNL     1      43.665 -18.679   3.873  1.00  0.00     0.065 A 
ENDBRANCH  14  17
ENDBRANCH  12  13
ENDBRANCH   1  12
BRANCH   6  24
HETATM   24  C   UNL     1      40.785 -14.396  -0.637  1.00  0.00     0.273 C 
BRANCH  24  25
HETATM   25  C   UNL     1      41.074 -13.378  -1.706  1.00  0.00    -0.033 A 
HETATM   26  C   UNL     1      40.102 -12.428  -2.059  1.00  0.00     0.010 A 
HETATM   27  C   UNL     1      40.344 -11.513  -3.086  1.00  0.00     0.021 A 
HETATM   28  C   UNL     1      41.559 -11.535  -3.770  1.00  0.00     0.017 A 
HETATM   29  C   UNL     1      42.539 -12.463  -3.416  1.00  0.00     0.021 A 
HETATM   30  C   UNL     1      42.300 -13.381  -2.389  1.00  0.00     0.010 A 
BRANCH  28  31
HETATM   31  C   UNL     1      41.795 -10.612  -4.835  1.00  0.00    -0.064 C 
HETATM   32  C   UNL     1      42.004  -9.833  -5.725  1.00  0.00    -0.064 C 
BRANCH  32  33
HETATM   33  C   UNL     1      42.261  -8.869  -6.809  1.00  0.00     0.114 C 
HETATM   34  C   UNL     1      41.690  -9.381  -8.130  1.00  0.00     0.060 C 
HETATM   35  C   UNL     1      41.675  -7.503  -6.461  1.00  0.00     0.060 C 
BRANCH  33  36
HETATM   36  O   UNL     1      43.671  -8.711  -6.954  1.00  0.00    -0.378 OA
HETATM   37  H   UNL     1      44.074  -8.916  -6.094  1.00  0.00     0.211 HD
ENDBRANCH  33  36
ENDBRANCH  32  33
ENDBRANCH  28  31
ENDBRANCH  24  25
ENDBRANCH   6  24
TORSDOF 8
ENDMDL
MODEL 10
REMARK VINA RESULT:      -7.4      2.841     10.310
REMARK  8 active torsions:
REMARK  status: ('A' for Active; 'I' for Inactive)
REMARK    1  A    between atoms: C_6  and  C_7 
REMARK       I    between atoms: C_7  and  N_8 
REMARK    2  A    between atoms: N_8  and  C_9 
REMARK    3  A    between atoms: C_9  and  C_10 
REMARK    4  A    between atoms: N_15  and  C_17 
REMARK    5  A    between atoms: C_17  and  C_18 
REMARK    6  A    between atoms: C_21  and  C_22 
REMARK    7  A    between atoms: C_23  and  C_24 
REMARK    8  A    between atoms: C_24  and  O_25 
ROOT
HETATM    1  C   UNL     1      43.955 -13.688   7.633  1.00  0.00     0.140 C 
HETATM    2  O   UNL     1      43.120 -13.120   6.597  1.00  0.00    -0.373 OA
HETATM    3  C   UNL     1      42.844 -14.158   5.631  1.00  0.00     0.064 C 
HETATM    4  C   UNL     1      43.148 -13.580   4.246  1.00  0.00     0.066 C 
HETATM    5  C   UNL     1      42.210 -12.429   3.910  1.00  0.00     0.238 C 
HETATM    6  N   UNL     1      40.767 -12.864   4.006  1.00  0.00    -0.067 N 
HETATM    7  H   UNL     1      40.222 -11.999   3.902  1.00  0.00     0.280 HD
HETATM    8  C   UNL     1      40.448 -13.385   5.387  1.00  0.00     0.238 C 
HETATM    9  C   UNL     1      41.366 -14.544   5.753  1.00  0.00     0.066 C 
HETATM   10  C   UNL     1      43.767 -15.334   5.976  1.00  0.00     0.041 C 
HETATM   11  C   UNL     1      44.793 -14.717   6.899  1.00  0.00     0.036 C 
ENDROOT
BRANCH   1  12
HETATM   12  C   UNL     1      44.799 -12.615   8.327  1.00  0.00     0.155 C 
BRANCH  12  13
HETATM   13  N   UNL     1      44.247 -12.149   9.588  1.00  0.00    -0.353 N 
HETATM   14  C   UNL     1      43.403 -11.061   9.665  1.00  0.00     0.270 C 
HETATM   15  O   UNL     1      43.189 -10.351   8.686  1.00  0.00    -0.266 OA
HETATM   16  H   UNL     1      44.331 -12.754  10.389  1.00  0.00     0.162 HD
BRANCH  14  17
HETATM   17  C   UNL     1      42.818 -10.825  10.966  1.00  0.00     0.122 A 
HETATM   18  N   UNL     1      41.464 -10.835  11.220  1.00  0.00    -0.269 N 
HETATM   19  N   UNL     1      41.149 -10.569  12.502  1.00  0.00    -0.177 NA
HETATM   20  C   UNL     1      40.391 -11.082  10.282  1.00  0.00     0.180 C 
HETATM   21  C   UNL     1      42.327 -10.435  13.113  1.00  0.00     0.053 A 
HETATM   22  C   UNL     1      42.400 -10.180  14.572  1.00  0.00     0.072 C 
HETATM   23  C   UNL     1      43.396 -10.571  12.200  1.00  0.00     0.065 A 
ENDBRANCH  14  17
ENDBRANCH  12  13
ENDBRANCH   1  12
BRANCH   6  24
HETATM   24  C   UNL     1      40.271 -13.765   2.893  1.00  0.00     0.273 C 
BRANCH  24  25
HETATM   25  C   UNL     1      41.008 -15.074   2.804  1.00  0.00    -0.033 A 
HETATM   26  C   UNL     1      40.560 -16.189   3.529  1.00  0.00     0.010 A 
HETATM   27  C   UNL     1      41.269 -17.392   3.491  1.00  0.00     0.021 A 
HETATM   28  C   UNL     1      42.431 -17.495   2.728  1.00  0.00     0.017 A 
HETATM   29  C   UNL     1      42.877 -16.398   1.990  1.00  0.00     0.021 A 
HETATM   30  C   UNL     1      42.170 -15.192   2.025  1.00  0.00     0.010 A 
BRANCH  28  31
HETATM   31  C   UNL     1      43.166 -18.719   2.710  1.00  0.00    -0.064 C 
HETATM   32  C   UNL     1      43.794 -19.744   2.701  1.00  0.00    -0.064 C 
BRANCH  32  33
HETATM   33  C   UNL     1      44.572 -20.995   2.687  1.00  0.00     0.114 C 
HETATM   34  C   UNL     1      44.609 -21.620   4.080  1.00  0.00     0.060 C 
HETATM   35  C   UNL     1      43.993 -21.975   1.671  1.00  0.00     0.060 C 
BRANCH  33  36
HETATM   36  O   UNL     1      45.908 -20.695   2.288  1.00  0.00    -0.378 OA
HETATM   37  H   UNL     1      46.126 -19.817   2.642  1.00  0.00     0.211 HD
ENDBRANCH  33  36
ENDBRANCH  32  33
ENDBRANCH  28  31
ENDBRANCH  24  25
ENDBRANCH   6  24
TORSDOF 8
ENDMDL
