MODEL 1
REMARK VINA RESULT:      -7.4      0.000      0.000
REMARK  5 active torsions:
REMARK  status: ('A' for Active; 'I' for Inactive)
REMARK    1  A    between atoms: C_2  and  C_3 
REMARK    2  A    between atoms: C_3  and  O_4 
REMARK    3  A    between atoms: C_3  and  C_5 
REMARK    4  A    between atoms: N_8  and  C_10 
REMARK    5  A    between atoms: C_10  and  C_11 
ROOT
HETATM    1  C   UNL     1      42.595 -16.004   5.161  1.00  0.00     0.022 C 
HETATM    2  C   UNL     1      42.158 -14.551   5.413  1.00  0.00     0.035 C 
HETATM    3  C   UNL     1      43.266 -13.661   5.954  1.00  0.00     0.235 C 
HETATM    4  N   UNL     1      43.852 -14.265   7.202  1.00  0.00    -0.066 N 
HETATM    5  H   UNL     1      43.112 -14.220   7.923  1.00  0.00     0.280 HD
HETATM    6  C   UNL     1      44.317 -15.678   7.043  1.00  0.00     0.235 C 
HETATM    7  C   UNL     1      43.213 -16.550   6.461  1.00  0.00     0.035 C 
ENDROOT
BRANCH   1   8
HETATM    8  C   UNL     1      43.540 -16.207   3.948  1.00  0.00     0.155 C 
BRANCH   8   9
HETATM    9  C   UNL     1      43.606 -17.640   3.454  1.00  0.00    -0.029 A 
HETATM   10  C   UNL     1      44.370 -18.618   4.114  1.00  0.00     0.011 A 
HETATM   11  C   UNL     1      44.417 -19.930   3.635  1.00  0.00     0.024 A 
HETATM   12  C   UNL     1      43.697 -20.278   2.495  1.00  0.00     0.034 A 
HETATM   13  C   UNL     1      42.933 -19.323   1.828  1.00  0.00     0.024 A 
HETATM   14 CL   UNL     1      43.753 -21.893   1.909  1.00  0.00    -0.084 Cl
HETATM   15  C   UNL     1      42.891 -18.010   2.304  1.00  0.00     0.011 A 
ENDBRANCH   8   9
BRANCH   8  16
HETATM   16  O   UNL     1      43.192 -15.332   2.878  1.00  0.00    -0.391 OA
HETATM   17  H   UNL     1      42.351 -15.672   2.513  1.00  0.00     0.210 HD
ENDBRANCH   8  16
ENDBRANCH   1   8
BRANCH   4  18
HETATM   18  C   UNL     1      44.937 -13.378   7.794  1.00  0.00     0.295 C 
BRANCH  18  19
HETATM   19  C   UNL     1      44.419 -12.572   8.944  1.00  0.00     0.081 A 
HETATM   20  N   UNL     1      44.669 -12.981  10.200  1.00  0.00    -0.178 NA
HETATM   21  N   UNL     1      44.076 -12.038  10.967  1.00  0.00    -0.289 N 
HETATM   22  H   UNL     1      44.141 -12.113  11.979  1.00  0.00     0.188 HD
HETATM   23  C   UNL     1      43.440 -11.079  10.235  1.00  0.00     0.111 A 
HETATM   24  C   UNL     1      43.646 -11.392   8.915  1.00  0.00     0.049 A 
ENDBRANCH  18  19
ENDBRANCH   4  18
TORSDOF 5
ENDMDL
MODEL 2
REMARK VINA RESULT:      -7.4      5.396      7.783
REMARK  5 active torsions:
REMARK  status: ('A' for Active; 'I' for Inactive)
REMARK    1  A    between atoms: C_2  and  C_3 
REMARK    2  A    between atoms: C_3  and  O_4 
REMARK    3  A    between atoms: C_3  and  C_5 
REMARK    4  A    between atoms: N_8  and  C_10 
REMARK    5  A    between atoms: C_10  and  C_11 
ROOT
HETATM    1  C   UNL     1      42.073 -16.966   2.525  1.00  0.00     0.022 C 
HETATM    2  C   UNL     1      41.163 -17.403   1.366  1.00  0.00     0.035 C 
HETATM    3  C   UNL     1      41.362 -16.598   0.091  1.00  0.00     0.235 C 
HETATM    4  N   UNL     1      41.195 -15.130   0.375  1.00  0.00    -0.066 N 
HETATM    5  H   UNL     1      40.198 -14.990   0.613  1.00  0.00     0.280 HD
HETATM    6  C   UNL     1      42.056 -14.614   1.485  1.00  0.00     0.235 C 
HETATM    7  C   UNL     1      41.879 -15.454   2.743  1.00  0.00     0.035 C 
ENDROOT
BRANCH   1   8
HETATM    8  C   UNL     1      43.572 -17.334   2.363  1.00  0.00     0.155 C 
BRANCH   8   9
HETATM    9  C   UNL     1      43.970 -18.613   3.073  1.00  0.00    -0.029 A 
HETATM   10  C   UNL     1      44.237 -18.644   4.453  1.00  0.00     0.011 A 
HETATM   11  C   UNL     1      44.608 -19.836   5.081  1.00  0.00     0.024 A 
HETATM   12  C   UNL     1      44.710 -21.009   4.338  1.00  0.00     0.034 A 
HETATM   13  C   UNL     1      44.448 -20.999   2.971  1.00  0.00     0.024 A 
HETATM   14 CL   UNL     1      45.162 -22.475   5.114  1.00  0.00    -0.084 Cl
HETATM   15  C   UNL     1      44.083 -19.805   2.341  1.00  0.00     0.011 A 
ENDBRANCH   8   9
BRANCH   8  16
HETATM   16  O   UNL     1      43.934 -17.400   0.986  1.00  0.00    -0.391 OA
HETATM   17  H   UNL     1      43.632 -18.275   0.668  1.00  0.00     0.210 HD
ENDBRANCH   8  16
ENDBRANCH   1   8
BRANCH   4  18
HETATM   18  C   UNL     1      41.347 -14.296  -0.889  1.00  0.00     0.295 C 
BRANCH  18  19
HETATM   19  C   UNL     1      40.365 -14.711  -1.940  1.00  0.00     0.081 A 
HETATM   20  N   UNL     1      39.066 -14.401  -1.787  1.00  0.00    -0.178 NA
HETATM   21  N   UNL     1      38.484 -14.909  -2.897  1.00  0.00    -0.289 N 
HETATM   22  H   UNL     1      37.483 -14.786  -3.029  1.00  0.00     0.188 HD
HETATM   23  C   UNL     1      39.366 -15.549  -3.716  1.00  0.00     0.111 A 
HETATM   24  C   UNL     1      40.600 -15.437  -3.127  1.00  0.00     0.049 A 
ENDBRANCH  18  19
ENDBRANCH   4  18
TORSDOF 5
ENDMDL
MODEL 3
REMARK VINA RESULT:      -7.4      5.278      6.359
REMARK  5 active torsions:
REMARK  status: ('A' for Active; 'I' for Inactive)
REMARK    1  A    between atoms: C_2  and  C_3 
REMARK    2  A    between atoms: C_3  and  O_4 
REMARK    3  A    between atoms: C_3  and  C_5 
REMARK    4  A    between atoms: N_8  and  C_10 
REMARK    5  A    between atoms: C_10  and  C_11 
ROOT
HETATM    1  C   UNL     1      41.971 -17.504   1.333  1.00  0.00     0.022 C 
HETATM    2  C   UNL     1      41.645 -16.526   0.192  1.00  0.00     0.035 C 
HETATM    3  C   UNL     1      41.455 -15.088   0.651  1.00  0.00     0.235 C 
HETATM    4  N   UNL     1      40.404 -15.023   1.726  1.00  0.00    -0.066 N 
HETATM    5  H   UNL     1      39.507 -15.268   1.272  1.00  0.00     0.280 HD
HETATM    6  C   UNL     1      40.649 -15.937   2.885  1.00  0.00     0.235 C 
HETATM    7  C   UNL     1      40.879 -17.366   2.410  1.00  0.00     0.035 C 
ENDROOT
BRANCH   1   8
HETATM    8  C   UNL     1      43.393 -17.364   1.937  1.00  0.00     0.155 C 
BRANCH   8   9
HETATM    9  C   UNL     1      43.832 -18.561   2.758  1.00  0.00    -0.029 A 
HETATM   10  C   UNL     1      44.114 -18.455   4.131  1.00  0.00     0.011 A 
HETATM   11  C   UNL     1      44.521 -19.573   4.864  1.00  0.00     0.024 A 
HETATM   12  C   UNL     1      44.647 -20.808   4.233  1.00  0.00     0.034 A 
HETATM   13  C   UNL     1      44.371 -20.932   2.874  1.00  0.00     0.024 A 
HETATM   14 CL   UNL     1      45.146 -22.183   5.137  1.00  0.00    -0.084 Cl
HETATM   15  C   UNL     1      43.969 -19.813   2.139  1.00  0.00     0.011 A 
ENDBRANCH   8   9
BRANCH   8  16
HETATM   16  O   UNL     1      44.352 -17.084   0.921  1.00  0.00    -0.391 OA
HETATM   17  H   UNL     1      44.633 -17.951   0.566  1.00  0.00     0.210 HD
ENDBRANCH   8  16
ENDBRANCH   1   8
BRANCH   4  18
HETATM   18  C   UNL     1      40.159 -13.592   2.180  1.00  0.00     0.295 C 
BRANCH  18  19
HETATM   19  C   UNL     1      38.851 -13.071   1.670  1.00  0.00     0.081 A 
HETATM   20  N   UNL     1      37.976 -13.924   1.110  1.00  0.00    -0.178 NA
HETATM   21  N   UNL     1      36.930 -13.135   0.777  1.00  0.00    -0.289 N 
HETATM   22  H   UNL     1      36.112 -13.557   0.345  1.00  0.00     0.188 HD
HETATM   23  C   UNL     1      37.135 -11.821   1.080  1.00  0.00     0.111 A 
HETATM   24  C   UNL     1      38.373 -11.744   1.666  1.00  0.00     0.049 A 
ENDBRANCH  18  19
ENDBRANCH   4  18
TORSDOF 5
ENDMDL
MODEL 4
REMARK VINA RESULT:      -7.3      3.070      4.499
REMARK  5 active torsions:
REMARK  status: ('A' for Active; 'I' for Inactive)
REMARK    1  A    between atoms: C_2  and  C_3 
REMARK    2  A    between atoms: C_3  and  O_4 
REMARK    3  A    between atoms: C_3  and  C_5 
REMARK    4  A    between atoms: N_8  and  C_10 
REMARK    5  A    between atoms: C_10  and  C_11 
ROOT
HETATM    1  C   UNL     1      42.124 -17.399   1.447  1.00  0.00     0.022 C 
HETATM    2  C   UNL     1      41.807 -16.299   0.420  1.00  0.00     0.035 C 
HETATM    3  C   UNL     1      41.640 -14.916   1.033  1.00  0.00     0.235 C 
HETATM    4  N   UNL     1      40.596 -14.952   2.116  1.00  0.00    -0.066 N 
HETATM    5  H   UNL     1      39.693 -15.134   1.644  1.00  0.00     0.280 HD
HETATM    6  C   UNL     1      40.834 -15.989   3.168  1.00  0.00     0.235 C 
HETATM    7  C   UNL     1      41.040 -17.361   2.540  1.00  0.00     0.035 C 
ENDROOT
BRANCH   1   8
HETATM    8  C   UNL     1      43.551 -17.344   2.053  1.00  0.00     0.155 C 
BRANCH   8   9
HETATM    9  C   UNL     1      43.947 -18.599   2.808  1.00  0.00    -0.029 A 
HETATM   10  C   UNL     1      44.093 -19.838   2.162  1.00  0.00     0.011 A 
HETATM   11  C   UNL     1      44.454 -20.980   2.882  1.00  0.00     0.024 A 
HETATM   12  C   UNL     1      44.676 -20.893   4.253  1.00  0.00     0.034 A 
HETATM   13  C   UNL     1      44.538 -19.674   4.911  1.00  0.00     0.024 A 
HETATM   14 CL   UNL     1      45.123 -22.299   5.137  1.00  0.00    -0.084 Cl
HETATM   15  C   UNL     1      44.171 -18.533   4.192  1.00  0.00     0.011 A 
ENDBRANCH   8   9
BRANCH   8  16
HETATM   16  O   UNL     1      44.519 -17.046   1.051  1.00  0.00    -0.391 OA
HETATM   17  H   UNL     1      44.720 -16.093   1.143  1.00  0.00     0.210 HD
ENDBRANCH   8  16
ENDBRANCH   1   8
BRANCH   4  18
HETATM   18  C   UNL     1      40.374 -13.575   2.722  1.00  0.00     0.295 C 
BRANCH  18  19
HETATM   19  C   UNL     1      41.110 -13.420   4.016  1.00  0.00     0.081 A 
HETATM   20  N   UNL     1      40.424 -13.441   5.171  1.00  0.00    -0.178 NA
HETATM   21  N   UNL     1      41.380 -13.287   6.114  1.00  0.00    -0.289 N 
HETATM   22  H   UNL     1      41.111 -13.289   7.095  1.00  0.00     0.188 HD
HETATM   23  C   UNL     1      42.630 -13.139   5.587  1.00  0.00     0.111 A 
HETATM   24  C   UNL     1      42.492 -13.224   4.224  1.00  0.00     0.049 A 
ENDBRANCH  18  19
ENDBRANCH   4  18
TORSDOF 5
ENDMDL
MODEL 5
REMARK VINA RESULT:      -7.0      5.070      7.314
REMARK  5 active torsions:
REMARK  status: ('A' for Active; 'I' for Inactive)
REMARK    1  A    between atoms: C_2  and  C_3 
REMARK    2  A    between atoms: C_3  and  O_4 
REMARK    3  A    between atoms: C_3  and  C_5 
REMARK    4  A    between atoms: N_8  and  C_10 
REMARK    5  A    between atoms: C_10  and  C_11 
ROOT
HETATM    1  C   UNL     1      43.592 -16.521   2.780  1.00  0.00     0.022 C 
HETATM    2  C   UNL     1      43.227 -15.029   2.845  1.00  0.00     0.035 C 
HETATM    3  C   UNL     1      41.920 -14.685   2.147  1.00  0.00     0.235 C 
HETATM    4  N   UNL     1      41.954 -15.164   0.721  1.00  0.00    -0.066 N 
HETATM    5  H   UNL     1      42.663 -14.587   0.236  1.00  0.00     0.280 HD
HETATM    6  C   UNL     1      42.290 -16.614   0.564  1.00  0.00     0.235 C 
HETATM    7  C   UNL     1      43.578 -16.954   1.303  1.00  0.00     0.035 C 
ENDROOT
BRANCH   1   8
HETATM    8  C   UNL     1      42.718 -17.454   3.659  1.00  0.00     0.155 C 
BRANCH   8   9
HETATM    9  C   UNL     1      43.410 -18.739   4.068  1.00  0.00    -0.029 A 
HETATM   10  C   UNL     1      43.594 -19.086   5.418  1.00  0.00     0.011 A 
HETATM   11  C   UNL     1      44.240 -20.275   5.768  1.00  0.00     0.024 A 
HETATM   12  C   UNL     1      44.704 -21.131   4.773  1.00  0.00     0.034 A 
HETATM   13  C   UNL     1      44.530 -20.805   3.430  1.00  0.00     0.024 A 
HETATM   14 CL   UNL     1      45.496 -22.594   5.205  1.00  0.00    -0.084 Cl
HETATM   15  C   UNL     1      43.889 -19.613   3.080  1.00  0.00     0.011 A 
ENDBRANCH   8   9
BRANCH   8  16
HETATM   16  O   UNL     1      42.236 -16.765   4.810  1.00  0.00    -0.391 OA
HETATM   17  H   UNL     1      43.016 -16.609   5.379  1.00  0.00     0.210 HD
ENDBRANCH   8  16
ENDBRANCH   1   8
BRANCH   4  18
HETATM   18  C   UNL     1      40.676 -14.799  -0.020  1.00  0.00     0.295 C 
BRANCH  18  19
HETATM   19  C   UNL     1      40.957 -14.412  -1.439  1.00  0.00     0.081 A 
HETATM   20  N   UNL     1      42.043 -13.671  -1.717  1.00  0.00    -0.178 NA
HETATM   21  N   UNL     1      41.991 -13.519  -3.060  1.00  0.00    -0.289 N 
HETATM   22  H   UNL     1      42.730 -13.000  -3.526  1.00  0.00     0.188 HD
HETATM   23  C   UNL     1      40.897 -14.110  -3.621  1.00  0.00     0.111 A 
HETATM   24  C   UNL     1      40.204 -14.704  -2.596  1.00  0.00     0.049 A 
ENDBRANCH  18  19
ENDBRANCH   4  18
TORSDOF 5
ENDMDL
MODEL 6
REMARK VINA RESULT:      -6.7      4.848      7.082
REMARK  5 active torsions:
REMARK  status: ('A' for Active; 'I' for Inactive)
REMARK    1  A    between atoms: C_2  and  C_3 
REMARK    2  A    between atoms: C_3  and  O_4 
REMARK    3  A    between atoms: C_3  and  C_5 
REMARK    4  A    between atoms: N_8  and  C_10 
REMARK    5  A    between atoms: C_10  and  C_11 
ROOT
HETATM    1  C   UNL     1      41.776 -15.176   3.804  1.00  0.00     0.022 C 
HETATM    2  C   UNL     1      40.696 -14.116   3.532  1.00  0.00     0.035 C 
HETATM    3  C   UNL     1      40.007 -14.272   2.184  1.00  0.00     0.235 C 
HETATM    4  N   UNL     1      41.030 -14.287   1.080  1.00  0.00    -0.066 N 
HETATM    5  H   UNL     1      41.440 -13.338   1.050  1.00  0.00     0.280 HD
HETATM    6  C   UNL     1      42.115 -15.301   1.258  1.00  0.00     0.235 C 
HETATM    7  C   UNL     1      42.768 -15.162   2.627  1.00  0.00     0.035 C 
ENDROOT
BRANCH   1   8
HETATM    8  C   UNL     1      41.242 -16.605   4.087  1.00  0.00     0.155 C 
BRANCH   8   9
HETATM    9  C   UNL     1      42.329 -17.659   4.181  1.00  0.00    -0.029 A 
HETATM   10  C   UNL     1      43.116 -17.812   5.335  1.00  0.00     0.011 A 
HETATM   11  C   UNL     1      44.114 -18.789   5.393  1.00  0.00     0.024 A 
HETATM   12  C   UNL     1      44.331 -19.624   4.301  1.00  0.00     0.034 A 
HETATM   13  C   UNL     1      43.560 -19.489   3.149  1.00  0.00     0.024 A 
HETATM   14 CL   UNL     1      45.557 -20.828   4.375  1.00  0.00    -0.084 Cl
HETATM   15  C   UNL     1      42.566 -18.508   3.089  1.00  0.00     0.011 A 
ENDBRANCH   8   9
BRANCH   8  16
HETATM   16  O   UNL     1      40.434 -16.624   5.260  1.00  0.00    -0.391 OA
HETATM   17  H   UNL     1      41.000 -16.980   5.974  1.00  0.00     0.210 HD
ENDBRANCH   8  16
ENDBRANCH   1   8
BRANCH   4  18
HETATM   18  C   UNL     1      40.372 -14.400  -0.287  1.00  0.00     0.295 C 
BRANCH  18  19
HETATM   19  C   UNL     1      41.295 -13.955  -1.378  1.00  0.00     0.081 A 
HETATM   20  N   UNL     1      41.385 -14.684  -2.504  1.00  0.00    -0.178 NA
HETATM   21  N   UNL     1      42.280 -14.004  -3.254  1.00  0.00    -0.289 N 
HETATM   22  H   UNL     1      42.511 -14.351  -4.182  1.00  0.00     0.188 HD
HETATM   23  C   UNL     1      42.774 -12.899  -2.625  1.00  0.00     0.111 A 
HETATM   24  C   UNL     1      42.151 -12.834  -1.404  1.00  0.00     0.049 A 
ENDBRANCH  18  19
ENDBRANCH   4  18
TORSDOF 5
ENDMDL
MODEL 7
REMARK VINA RESULT:      -6.6      5.131      5.906
REMARK  5 active torsions:
REMARK  status: ('A' for Active; 'I' for Inactive)
REMARK    1  A    between atoms: C_2  and  C_3 
REMARK    2  A    between atoms: C_3  and  O_4 
REMARK    3  A    between atoms: C_3  and  C_5 
REMARK    4  A    between atoms: N_8  and  C_10 
REMARK    5  A    between atoms: C_10  and  C_11 
ROOT
HETATM    1  C   UNL     1      41.831 -17.392   2.654  1.00  0.00     0.022 C 
HETATM    2  C   UNL     1      41.323 -17.648   1.225  1.00  0.00     0.035 C 
HETATM    3  C   UNL     1      41.611 -16.511   0.257  1.00  0.00     0.235 C 
HETATM    4  N   UNL     1      41.059 -15.219   0.797  1.00  0.00    -0.066 N 
HETATM    5  H   UNL     1      40.028 -15.314   0.781  1.00  0.00     0.280 HD
HETATM    6  C   UNL     1      41.513 -14.884   2.182  1.00  0.00     0.235 C 
HETATM    7  C   UNL     1      41.257 -16.046   3.133  1.00  0.00     0.035 C 
ENDROOT
BRANCH   1   8
HETATM    8  C   UNL     1      43.371 -17.453   2.826  1.00  0.00     0.155 C 
BRANCH   8   9
HETATM    9  C   UNL     1      43.868 -18.734   3.468  1.00  0.00    -0.029 A 
HETATM   10  C   UNL     1      43.985 -18.869   4.862  1.00  0.00     0.011 A 
HETATM   11  C   UNL     1      44.450 -20.059   5.427  1.00  0.00     0.024 A 
HETATM   12  C   UNL     1      44.797 -21.128   4.606  1.00  0.00     0.034 A 
HETATM   13  C   UNL     1      44.686 -21.014   3.222  1.00  0.00     0.024 A 
HETATM   14 CL   UNL     1      45.365 -22.593   5.303  1.00  0.00    -0.084 Cl
HETATM   15  C   UNL     1      44.226 -19.821   2.656  1.00  0.00     0.011 A 
ENDBRANCH   8   9
BRANCH   8  16
HETATM   16  O   UNL     1      44.033 -17.236   1.583  1.00  0.00    -0.391 OA
HETATM   17  H   UNL     1      43.808 -18.003   1.019  1.00  0.00     0.210 HD
ENDBRANCH   8  16
ENDBRANCH   1   8
BRANCH   4  18
HETATM   18  C   UNL     1      41.294 -14.066  -0.168  1.00  0.00     0.295 C 
BRANCH  18  19
HETATM   19  C   UNL     1      41.238 -12.745   0.534  1.00  0.00     0.081 A 
HETATM   20  N   UNL     1      42.385 -12.112   0.837  1.00  0.00    -0.178 NA
HETATM   21  N   UNL     1      41.971 -10.975   1.442  1.00  0.00    -0.289 N 
HETATM   22  H   UNL     1      42.666 -10.302   1.755  1.00  0.00     0.188 HD
HETATM   23  C   UNL     1      40.614 -10.895   1.555  1.00  0.00     0.111 A 
HETATM   24  C   UNL     1      40.105 -12.027   0.970  1.00  0.00     0.049 A 
ENDBRANCH  18  19
ENDBRANCH   4  18
TORSDOF 5
ENDMDL
MODEL 8
REMARK VINA RESULT:      -6.5      3.851      5.941
REMARK  5 active torsions:
REMARK  status: ('A' for Active; 'I' for Inactive)
REMARK    1  A    between atoms: C_2  and  C_3 
REMARK    2  A    between atoms: C_3  and  O_4 
REMARK    3  A    between atoms: C_3  and  C_5 
REMARK    4  A    between atoms: N_8  and  C_10 
REMARK    5  A    between atoms: C_10  and  C_11 
ROOT
HETATM    1  C   UNL     1      42.154 -15.391   4.889  1.00  0.00     0.022 C 
HETATM    2  C   UNL     1      41.288 -14.157   5.195  1.00  0.00     0.035 C 
HETATM    3  C   UNL     1      40.726 -13.478   3.955  1.00  0.00     0.235 C 
HETATM    4  N   UNL     1      41.842 -13.125   3.009  1.00  0.00    -0.066 N 
HETATM    5  H   UNL     1      42.397 -12.388   3.476  1.00  0.00     0.280 HD
HETATM    6  C   UNL     1      42.730 -14.273   2.646  1.00  0.00     0.235 C 
HETATM    7  C   UNL     1      43.252 -14.970   3.895  1.00  0.00     0.035 C 
ENDROOT
BRANCH   1   8
HETATM    8  C   UNL     1      41.376 -16.636   4.391  1.00  0.00     0.155 C 
BRANCH   8   9
HETATM    9  C   UNL     1      42.267 -17.761   3.900  1.00  0.00    -0.029 A 
HETATM   10  C   UNL     1      43.109 -18.475   4.770  1.00  0.00     0.011 A 
HETATM   11  C   UNL     1      43.923 -19.504   4.290  1.00  0.00     0.024 A 
HETATM   12  C   UNL     1      43.901 -19.833   2.938  1.00  0.00     0.034 A 
HETATM   13  C   UNL     1      43.071 -19.139   2.060  1.00  0.00     0.024 A 
HETATM   14 CL   UNL     1      44.901 -21.102   2.350  1.00  0.00    -0.084 Cl
HETATM   15  C   UNL     1      42.261 -18.105   2.539  1.00  0.00     0.011 A 
ENDBRANCH   8   9
BRANCH   8  16
HETATM   16  O   UNL     1      40.484 -17.115   5.394  1.00  0.00    -0.391 OA
HETATM   17  H   UNL     1      41.047 -17.419   6.135  1.00  0.00     0.210 HD
ENDBRANCH   8  16
ENDBRANCH   1   8
BRANCH   4  18
HETATM   18  C   UNL     1      41.319 -12.405   1.774  1.00  0.00     0.295 C 
BRANCH  18  19
HETATM   19  C   UNL     1      40.985 -13.369   0.679  1.00  0.00     0.081 A 
HETATM   20  N   UNL     1      39.887 -14.137   0.787  1.00  0.00    -0.178 NA
HETATM   21  N   UNL     1      39.890 -14.862  -0.354  1.00  0.00    -0.289 N 
HETATM   22  H   UNL     1      39.133 -15.520  -0.522  1.00  0.00     0.188 HD
HETATM   23  C   UNL     1      40.964 -14.596  -1.152  1.00  0.00     0.111 A 
HETATM   24  C   UNL     1      41.696 -13.627  -0.513  1.00  0.00     0.049 A 
ENDBRANCH  18  19
ENDBRANCH   4  18
TORSDOF 5
ENDMDL
MODEL 9
REMARK VINA RESULT:      -6.5      5.667      7.996
REMARK  5 active torsions:
REMARK  status: ('A' for Active; 'I' for Inactive)
REMARK    1  A    between atoms: C_2  and  C_3 
REMARK    2  A    between atoms: C_3  and  O_4 
REMARK    3  A    between atoms: C_3  and  C_5 
REMARK    4  A    between atoms: N_8  and  C_10 
REMARK    5  A    between atoms: C_10  and  C_11 
ROOT
HETATM    1  C   UNL     1      40.490 -16.495   2.801  1.00  0.00     0.022 C 
HETATM    2  C   UNL     1      41.227 -16.978   4.061  1.00  0.00     0.035 C 
HETATM    3  C   UNL     1      42.669 -17.393   3.809  1.00  0.00     0.235 C 
HETATM    4  N   UNL     1      42.725 -18.435   2.726  1.00  0.00    -0.066 N 
HETATM    5  H   UNL     1      42.279 -19.284   3.114  1.00  0.00     0.280 HD
HETATM    6  C   UNL     1      42.042 -18.042   1.454  1.00  0.00     0.235 C 
HETATM    7  C   UNL     1      40.612 -17.590   1.725  1.00  0.00     0.035 C 
ENDROOT
BRANCH   1   8
HETATM    8  C   UNL     1      40.939 -15.111   2.264  1.00  0.00     0.155 C 
BRANCH   8   9
HETATM    9  C   UNL     1      40.077 -14.581   1.134  1.00  0.00    -0.029 A 
HETATM   10  C   UNL     1      38.693 -14.386   1.284  1.00  0.00     0.011 A 
HETATM   11  C   UNL     1      37.922 -13.901   0.225  1.00  0.00     0.024 A 
HETATM   12  C   UNL     1      38.526 -13.603  -0.993  1.00  0.00     0.034 A 
HETATM   13  C   UNL     1      39.896 -13.788  -1.161  1.00  0.00     0.024 A 
HETATM   14 CL   UNL     1      37.576 -13.003  -2.295  1.00  0.00    -0.084 Cl
HETATM   15  C   UNL     1      40.667 -14.279  -0.104  1.00  0.00     0.011 A 
ENDBRANCH   8   9
BRANCH   8  16
HETATM   16  O   UNL     1      41.012 -14.155   3.318  1.00  0.00    -0.391 OA
HETATM   17  H   UNL     1      41.820 -14.372   3.825  1.00  0.00     0.210 HD
ENDBRANCH   8  16
ENDBRANCH   1   8
BRANCH   4  18
HETATM   18  C   UNL     1      44.151 -18.904   2.477  1.00  0.00     0.295 C 
BRANCH  18  19
HETATM   19  C   UNL     1      44.374 -20.286   3.004  1.00  0.00     0.081 A 
HETATM   20  N   UNL     1      44.736 -20.451   4.289  1.00  0.00    -0.178 NA
HETATM   21  N   UNL     1      44.840 -21.793   4.421  1.00  0.00    -0.289 N 
HETATM   22  H   UNL     1      45.089 -22.181   5.327  1.00  0.00     0.188 HD
HETATM   23  C   UNL     1      44.588 -22.465   3.261  1.00  0.00     0.111 A 
HETATM   24  C   UNL     1      44.278 -21.516   2.319  1.00  0.00     0.049 A 
ENDBRANCH  18  19
ENDBRANCH   4  18
TORSDOF 5
ENDMDL
MODEL 10
REMARK VINA RESULT:      -6.5      2.576      3.251
REMARK  5 active torsions:
REMARK  status: ('A' for Active; 'I' for Inactive)
REMARK    1  A    between atoms: C_2  and  C_3 
REMARK    2  A    between atoms: C_3  and  O_4 
REMARK    3  A    between atoms: C_3  and  C_5 
REMARK    4  A    between atoms: N_8  and  C_10 
REMARK    5  A    between atoms: C_10  and  C_11 
ROOT
HETATM    1  C   UNL     1      43.324 -15.488   4.246  1.00  0.00     0.022 C 
HETATM    2  C   UNL     1      42.955 -15.092   5.686  1.00  0.00     0.035 C 
HETATM    3  C   UNL     1      41.772 -14.140   5.777  1.00  0.00     0.235 C 
HETATM    4  N   UNL     1      42.024 -12.918   4.936  1.00  0.00    -0.066 N 
HETATM    5  H   UNL     1      42.801 -12.407   5.390  1.00  0.00     0.280 HD
HETATM    6  C   UNL     1      42.378 -13.212   3.512  1.00  0.00     0.235 C 
HETATM    7  C   UNL     1      43.537 -14.198   3.433  1.00  0.00     0.035 C 
ENDROOT
BRANCH   1   8
HETATM    8  C   UNL     1      42.322 -16.446   3.549  1.00  0.00     0.155 C 
BRANCH   8   9
HETATM    9  C   UNL     1      42.909 -17.801   3.203  1.00  0.00    -0.029 A 
HETATM   10  C   UNL     1      42.633 -18.440   1.981  1.00  0.00     0.011 A 
HETATM   11  C   UNL     1      43.182 -19.691   1.690  1.00  0.00     0.024 A 
HETATM   12  C   UNL     1      44.017 -20.314   2.613  1.00  0.00     0.034 A 
HETATM   13  C   UNL     1      44.304 -19.697   3.828  1.00  0.00     0.024 A 
HETATM   14 CL   UNL     1      44.695 -21.852   2.252  1.00  0.00    -0.084 Cl
HETATM   15  C   UNL     1      43.749 -18.448   4.123  1.00  0.00     0.011 A 
ENDBRANCH   8   9
BRANCH   8  16
HETATM   16  O   UNL     1      41.141 -16.604   4.329  1.00  0.00    -0.391 OA
HETATM   17  H   UNL     1      40.951 -17.564   4.342  1.00  0.00     0.210 HD
ENDBRANCH   8  16
ENDBRANCH   1   8
BRANCH   4  18
HETATM   18  C   UNL     1      40.877 -11.924   5.037  1.00  0.00     0.295 C 
BRANCH  18  19
HETATM   19  C   UNL     1      40.569 -11.587   6.462  1.00  0.00     0.081 A 
HETATM   20  N   UNL     1      39.407 -11.996   7.001  1.00  0.00    -0.178 NA
HETATM   21  N   UNL     1      39.463 -11.534   8.270  1.00  0.00    -0.289 N 
HETATM   22  H   UNL     1      38.692 -11.734   8.902  1.00  0.00     0.188 HD
HETATM   23  C   UNL     1      40.600 -10.828   8.531  1.00  0.00     0.111 A 
HETATM   24  C   UNL     1      41.345 -10.845   7.379  1.00  0.00     0.049 A 
ENDBRANCH  18  19
ENDBRANCH   4  18
TORSDOF 5
ENDMDL
