MODEL 1
REMARK VINA RESULT:      -7.5      0.000      0.000
REMARK  5 active torsions:
REMARK  status: ('A' for Active; 'I' for Inactive)
REMARK    1  A    between atoms: C_2  and  O_3 
REMARK    2  A    between atoms: C_2  and  C_5 
REMARK    3  A    between atoms: C_7  and  N_8 
REMARK    4  A    between atoms: N_8  and  C_9 
REMARK    5  A    between atoms: C_9  and  C_10 
ROOT
HETATM    1  N   UNL     1      40.877 -16.856   3.990  1.00  0.00    -0.289 NA
HETATM    2  H   UNL     1      39.936 -17.153   3.732  1.00  0.00     0.128 HD
ENDROOT
BRANCH   1   3
HETATM    3  C   UNL     1      41.797 -17.296   3.034  1.00  0.00     0.009 A 
HETATM    4  C   UNL     1      42.584 -18.414   3.360  1.00  0.00     0.033 A 
HETATM    5  C   UNL     1      43.575 -18.911   2.496  1.00  0.00    -0.028 A 
HETATM    6  C   UNL     1      43.762 -18.259   1.269  1.00  0.00     0.010 A 
HETATM    7  C   UNL     1      42.991 -17.150   0.925  1.00  0.00     0.002 A 
HETATM    8  C   UNL     1      42.024 -16.666   1.808  1.00  0.00     0.023 A 
BRANCH   5   9
HETATM    9  C   UNL     1      44.482 -20.079   2.847  1.00  0.00     0.149 C 
HETATM   10  C   UNL     1      44.124 -21.411   2.187  1.00  0.00     0.045 C 
BRANCH   9  11
HETATM   11  O   UNL     1      44.430 -20.216   4.273  1.00  0.00    -0.386 OA
HETATM   12  C   UNL     1      44.935 -21.457   4.744  1.00  0.00     0.202 C 
ENDBRANCH   9  11
ENDBRANCH   5   9
ENDBRANCH   1   3
BRANCH   1  13
HETATM   13  C   UNL     1      40.894 -15.472   4.457  1.00  0.00     0.133 C 
BRANCH  13  14
HETATM   14  C   UNL     1      42.125 -15.230   5.303  1.00  0.00    -0.016 A 
HETATM   15  C   UNL     1      42.539 -16.068   6.355  1.00  0.00     0.069 A 
HETATM   16  C   UNL     1      43.683 -15.861   7.113  1.00  0.00     0.012 A 
HETATM   17  N   UNL     1      41.974 -17.211   6.867  1.00  0.00    -0.277 N 
HETATM   18  C   UNL     1      43.678 -16.912   8.057  1.00  0.00     0.152 A 
HETATM   19  C   UNL     1      44.512 -14.767   6.817  1.00  0.00     0.015 A 
HETATM   20  N   UNL     1      42.634 -17.732   7.917  1.00  0.00    -0.186 NA
HETATM   21  C   UNL     1      44.155 -13.925   5.757  1.00  0.00     0.002 A 
HETATM   22  C   UNL     1      42.991 -14.155   5.017  1.00  0.00     0.011 A 
HETATM   23  H   UNL     1      41.120 -17.654   6.538  1.00  0.00     0.189 HD
ENDBRANCH  13  14
ENDBRANCH   1  13
TORSDOF 5
ENDMDL
MODEL 2
REMARK VINA RESULT:      -7.1      1.322      2.276
REMARK  5 active torsions:
REMARK  status: ('A' for Active; 'I' for Inactive)
REMARK    1  A    between atoms: C_2  and  O_3 
REMARK    2  A    between atoms: C_2  and  C_5 
REMARK    3  A    between atoms: C_7  and  N_8 
REMARK    4  A    between atoms: N_8  and  C_9 
REMARK    5  A    between atoms: C_9  and  C_10 
ROOT
HETATM    1  N   UNL     1      41.035 -17.363   4.333  1.00  0.00    -0.289 NA
HETATM    2  H   UNL     1      40.439 -16.592   4.030  1.00  0.00     0.128 HD
ENDROOT
BRANCH   1   3
HETATM    3  C   UNL     1      42.032 -17.600   3.381  1.00  0.00     0.009 A 
HETATM    4  C   UNL     1      42.763 -18.795   3.496  1.00  0.00     0.033 A 
HETATM    5  C   UNL     1      43.819 -19.114   2.625  1.00  0.00    -0.028 A 
HETATM    6  C   UNL     1      44.132 -18.197   1.611  1.00  0.00     0.010 A 
HETATM    7  C   UNL     1      43.418 -17.008   1.479  1.00  0.00     0.002 A 
HETATM    8  C   UNL     1      42.383 -16.708   2.366  1.00  0.00     0.023 A 
BRANCH   5   9
HETATM    9  C   UNL     1      44.668 -20.368   2.762  1.00  0.00     0.149 C 
HETATM   10  C   UNL     1      44.130 -21.607   2.045  1.00  0.00     0.045 C 
BRANCH   9  11
HETATM   11  O   UNL     1      44.777 -20.630   4.166  1.00  0.00    -0.386 OA
HETATM   12  C   UNL     1      44.844 -22.012   4.484  1.00  0.00     0.202 C 
ENDBRANCH   9  11
ENDBRANCH   5   9
ENDBRANCH   1   3
BRANCH   1  13
HETATM   13  C   UNL     1      41.371 -17.257   5.750  1.00  0.00     0.133 C 
BRANCH  13  14
HETATM   14  C   UNL     1      42.291 -16.076   5.974  1.00  0.00    -0.016 A 
HETATM   15  C   UNL     1      41.972 -14.750   5.628  1.00  0.00     0.069 A 
HETATM   16  C   UNL     1      42.806 -13.663   5.858  1.00  0.00     0.012 A 
HETATM   17  N   UNL     1      40.856 -14.223   5.026  1.00  0.00    -0.277 N 
HETATM   18  C   UNL     1      42.102 -12.559   5.327  1.00  0.00     0.152 A 
HETATM   19  C   UNL     1      44.038 -13.868   6.497  1.00  0.00     0.015 A 
HETATM   20  N   UNL     1      40.918 -12.896   4.810  1.00  0.00    -0.186 NA
HETATM   21  C   UNL     1      44.381 -15.168   6.887  1.00  0.00     0.002 A 
HETATM   22  C   UNL     1      43.525 -16.244   6.634  1.00  0.00     0.011 A 
HETATM   23  H   UNL     1      40.037 -14.745   4.725  1.00  0.00     0.189 HD
ENDBRANCH  13  14
ENDBRANCH   1  13
TORSDOF 5
ENDMDL
MODEL 3
REMARK VINA RESULT:      -7.1      3.697      6.389
REMARK  5 active torsions:
REMARK  status: ('A' for Active; 'I' for Inactive)
REMARK    1  A    between atoms: C_2  and  O_3 
REMARK    2  A    between atoms: C_2  and  C_5 
REMARK    3  A    between atoms: C_7  and  N_8 
REMARK    4  A    between atoms: N_8  and  C_9 
REMARK    5  A    between atoms: C_9  and  C_10 
ROOT
HETATM    1  N   UNL     1      42.311 -16.487   0.550  1.00  0.00    -0.289 NA
HETATM    2  H   UNL     1      42.987 -16.708  -0.181  1.00  0.00     0.128 HD
ENDROOT
BRANCH   1   3
HETATM    3  C   UNL     1      42.569 -17.254   1.690  1.00  0.00     0.009 A 
HETATM    4  C   UNL     1      43.393 -18.382   1.538  1.00  0.00     0.033 A 
HETATM    5  C   UNL     1      43.679 -19.251   2.604  1.00  0.00    -0.028 A 
HETATM    6  C   UNL     1      43.118 -18.959   3.856  1.00  0.00     0.010 A 
HETATM    7  C   UNL     1      42.301 -17.845   4.030  1.00  0.00     0.002 A 
HETATM    8  C   UNL     1      42.020 -17.006   2.950  1.00  0.00     0.023 A 
BRANCH   5   9
HETATM    9  C   UNL     1      44.516 -20.512   2.456  1.00  0.00     0.149 C 
HETATM   10  C   UNL     1      43.833 -21.673   1.733  1.00  0.00     0.045 C 
BRANCH   9  11
HETATM   11  O   UNL     1      44.879 -20.913   3.783  1.00  0.00    -0.386 OA
HETATM   12  C   UNL     1      44.684 -22.297   4.032  1.00  0.00     0.202 C 
ENDBRANCH   9  11
ENDBRANCH   5   9
ENDBRANCH   1   3
BRANCH   1  13
HETATM   13  C   UNL     1      42.087 -15.048   0.657  1.00  0.00     0.133 C 
BRANCH  13  14
HETATM   14  C   UNL     1      40.844 -14.662  -0.116  1.00  0.00    -0.016 A 
HETATM   15  C   UNL     1      40.710 -14.788  -1.511  1.00  0.00     0.069 A 
HETATM   16  C   UNL     1      39.560 -14.459  -2.217  1.00  0.00     0.012 A 
HETATM   17  N   UNL     1      41.599 -15.228  -2.462  1.00  0.00    -0.277 N 
HETATM   18  C   UNL     1      39.889 -14.709  -3.567  1.00  0.00     0.152 A 
HETATM   19  C   UNL     1      38.437 -13.993  -1.516  1.00  0.00     0.015 A 
HETATM   20  N   UNL     1      41.133 -15.169  -3.723  1.00  0.00    -0.186 NA
HETATM   21  C   UNL     1      38.515 -13.884  -0.122  1.00  0.00     0.002 A 
HETATM   22  C   UNL     1      39.690 -14.214   0.559  1.00  0.00     0.011 A 
HETATM   23  H   UNL     1      42.546 -15.554  -2.289  1.00  0.00     0.189 HD
ENDBRANCH  13  14
ENDBRANCH   1  13
TORSDOF 5
ENDMDL
MODEL 4
REMARK VINA RESULT:      -7.1      3.406      5.971
REMARK  5 active torsions:
REMARK  status: ('A' for Active; 'I' for Inactive)
REMARK    1  A    between atoms: C_2  and  O_3 
REMARK    2  A    between atoms: C_2  and  C_5 
REMARK    3  A    between atoms: C_7  and  N_8 
REMARK    4  A    between atoms: N_8  and  C_9 
REMARK    5  A    between atoms: C_9  and  C_10 
ROOT
HETATM    1  N   UNL     1      42.712 -16.751   0.459  1.00  0.00    -0.289 NA
HETATM    2  H   UNL     1      43.291 -15.914   0.388  1.00  0.00     0.128 HD
ENDROOT
BRANCH   1   3
HETATM    3  C   UNL     1      42.975 -17.416   1.660  1.00  0.00     0.009 A 
HETATM    4  C   UNL     1      43.699 -18.618   1.589  1.00  0.00     0.033 A 
HETATM    5  C   UNL     1      43.977 -19.394   2.726  1.00  0.00    -0.028 A 
HETATM    6  C   UNL     1      43.513 -18.931   3.966  1.00  0.00     0.010 A 
HETATM    7  C   UNL     1      42.795 -17.740   4.059  1.00  0.00     0.002 A 
HETATM    8  C   UNL     1      42.518 -16.996   2.911  1.00  0.00     0.023 A 
BRANCH   5   9
HETATM    9  C   UNL     1      44.705 -20.728   2.673  1.00  0.00     0.149 C 
HETATM   10  C   UNL     1      44.054 -21.797   1.794  1.00  0.00     0.045 C 
BRANCH   9  11
HETATM   11  O   UNL     1      44.787 -21.197   4.025  1.00  0.00    -0.386 OA
HETATM   12  C   UNL     1      44.674 -22.607   4.146  1.00  0.00     0.202 C 
ENDBRANCH   9  11
ENDBRANCH   5   9
ENDBRANCH   1   3
BRANCH   1  13
HETATM   13  C   UNL     1      41.337 -16.489   0.039  1.00  0.00     0.133 C 
BRANCH  13  14
HETATM   14  C   UNL     1      41.309 -15.329  -0.933  1.00  0.00    -0.016 A 
HETATM   15  C   UNL     1      41.683 -14.013  -0.604  1.00  0.00     0.069 A 
HETATM   16  C   UNL     1      41.682 -12.955  -1.504  1.00  0.00     0.012 A 
HETATM   17  N   UNL     1      42.110 -13.472   0.584  1.00  0.00    -0.277 N 
HETATM   18  C   UNL     1      42.090 -11.840  -0.738  1.00  0.00     0.152 A 
HETATM   19  C   UNL     1      41.313 -13.190  -2.837  1.00  0.00     0.015 A 
HETATM   20  N   UNL     1      42.343 -12.147   0.537  1.00  0.00    -0.186 NA
HETATM   21  C   UNL     1      40.964 -14.492  -3.215  1.00  0.00     0.002 A 
HETATM   22  C   UNL     1      40.966 -15.535  -2.285  1.00  0.00     0.011 A 
HETATM   23  H   UNL     1      42.232 -13.974   1.459  1.00  0.00     0.189 HD
ENDBRANCH  13  14
ENDBRANCH   1  13
TORSDOF 5
ENDMDL
MODEL 5
REMARK VINA RESULT:      -6.9      1.929      3.960
REMARK  5 active torsions:
REMARK  status: ('A' for Active; 'I' for Inactive)
REMARK    1  A    between atoms: C_2  and  O_3 
REMARK    2  A    between atoms: C_2  and  C_5 
REMARK    3  A    between atoms: C_7  and  N_8 
REMARK    4  A    between atoms: N_8  and  C_9 
REMARK    5  A    between atoms: C_9  and  C_10 
ROOT
HETATM    1  N   UNL     1      40.728 -17.186   5.520  1.00  0.00    -0.289 NA
HETATM    2  H   UNL     1      40.097 -17.394   4.745  1.00  0.00     0.128 HD
ENDROOT
BRANCH   1   3
HETATM    3  C   UNL     1      41.960 -17.815   5.318  1.00  0.00     0.009 A 
HETATM    4  C   UNL     1      42.324 -18.113   3.993  1.00  0.00     0.033 A 
HETATM    5  C   UNL     1      43.515 -18.788   3.678  1.00  0.00    -0.028 A 
HETATM    6  C   UNL     1      44.357 -19.162   4.735  1.00  0.00     0.010 A 
HETATM    7  C   UNL     1      44.016 -18.874   6.055  1.00  0.00     0.002 A 
HETATM    8  C   UNL     1      42.819 -18.216   6.343  1.00  0.00     0.023 A 
BRANCH   5   9
HETATM    9  C   UNL     1      43.907 -19.178   2.262  1.00  0.00     0.149 C 
HETATM   10  C   UNL     1      43.726 -18.087   1.206  1.00  0.00     0.045 C 
BRANCH   9  11
HETATM   11  O   UNL     1      43.108 -20.318   1.922  1.00  0.00    -0.386 OA
HETATM   12  C   UNL     1      43.855 -21.519   1.797  1.00  0.00     0.202 C 
ENDBRANCH   9  11
ENDBRANCH   5   9
ENDBRANCH   1   3
BRANCH   1  13
HETATM   13  C   UNL     1      40.666 -15.776   5.898  1.00  0.00     0.133 C 
BRANCH  13  14
HETATM   14  C   UNL     1      41.244 -14.921   4.791  1.00  0.00    -0.016 A 
HETATM   15  C   UNL     1      40.658 -14.771   3.521  1.00  0.00     0.069 A 
HETATM   16  C   UNL     1      41.174 -13.965   2.514  1.00  0.00     0.012 A 
HETATM   17  N   UNL     1      39.523 -15.331   2.984  1.00  0.00    -0.277 N 
HETATM   18  C   UNL     1      40.292 -14.149   1.426  1.00  0.00     0.152 A 
HETATM   19  C   UNL     1      42.339 -13.223   2.762  1.00  0.00     0.015 A 
HETATM   20  N   UNL     1      39.289 -14.987   1.704  1.00  0.00    -0.186 NA
HETATM   21  C   UNL     1      42.936 -13.317   4.024  1.00  0.00     0.002 A 
HETATM   22  C   UNL     1      42.399 -14.144   5.014  1.00  0.00     0.011 A 
HETATM   23  H   UNL     1      38.894 -15.974   3.456  1.00  0.00     0.189 HD
ENDBRANCH  13  14
ENDBRANCH   1  13
TORSDOF 5
ENDMDL
MODEL 6
REMARK VINA RESULT:      -6.9      2.288      5.894
REMARK  5 active torsions:
REMARK  status: ('A' for Active; 'I' for Inactive)
REMARK    1  A    between atoms: C_2  and  O_3 
REMARK    2  A    between atoms: C_2  and  C_5 
REMARK    3  A    between atoms: C_7  and  N_8 
REMARK    4  A    between atoms: N_8  and  C_9 
REMARK    5  A    between atoms: C_9  and  C_10 
ROOT
HETATM    1  N   UNL     1      42.284 -17.905   2.758  1.00  0.00    -0.289 NA
HETATM    2  H   UNL     1      41.724 -18.756   2.699  1.00  0.00     0.128 HD
ENDROOT
BRANCH   1   3
HETATM    3  C   UNL     1      41.935 -17.178   3.900  1.00  0.00     0.009 A 
HETATM    4  C   UNL     1      42.406 -15.857   3.995  1.00  0.00     0.033 A 
HETATM    5  C   UNL     1      42.158 -15.052   5.119  1.00  0.00    -0.028 A 
HETATM    6  C   UNL     1      41.406 -15.603   6.167  1.00  0.00     0.010 A 
HETATM    7  C   UNL     1      40.928 -16.909   6.092  1.00  0.00     0.002 A 
HETATM    8  C   UNL     1      41.201 -17.694   4.970  1.00  0.00     0.023 A 
BRANCH   5   9
HETATM    9  C   UNL     1      42.706 -13.643   5.277  1.00  0.00     0.149 C 
HETATM   10  C   UNL     1      42.252 -12.638   4.218  1.00  0.00     0.045 C 
BRANCH   9  11
HETATM   11  O   UNL     1      44.134 -13.760   5.253  1.00  0.00    -0.386 OA
HETATM   12  C   UNL     1      44.703 -14.042   6.523  1.00  0.00     0.202 C 
ENDBRANCH   9  11
ENDBRANCH   5   9
ENDBRANCH   1   3
BRANCH   1  13
HETATM   13  C   UNL     1      43.686 -18.163   2.441  1.00  0.00     0.133 C 
BRANCH  13  14
HETATM   14  C   UNL     1      44.007 -19.623   2.677  1.00  0.00    -0.016 A 
HETATM   15  C   UNL     1      44.206 -20.193   3.947  1.00  0.00     0.069 A 
HETATM   16  C   UNL     1      44.473 -21.539   4.165  1.00  0.00     0.012 A 
HETATM   17  N   UNL     1      44.191 -19.625   5.198  1.00  0.00    -0.277 N 
HETATM   18  C   UNL     1      44.630 -21.646   5.565  1.00  0.00     0.152 A 
HETATM   19  C   UNL     1      44.528 -22.412   3.068  1.00  0.00     0.015 A 
HETATM   20  N   UNL     1      44.469 -20.482   6.198  1.00  0.00    -0.186 NA
HETATM   21  C   UNL     1      44.304 -21.893   1.788  1.00  0.00     0.002 A 
HETATM   22  C   UNL     1      44.046 -20.532   1.599  1.00  0.00     0.011 A 
HETATM   23  H   UNL     1      44.019 -18.645   5.407  1.00  0.00     0.189 HD
ENDBRANCH  13  14
ENDBRANCH   1  13
TORSDOF 5
ENDMDL
MODEL 7
REMARK VINA RESULT:      -6.9      3.901      6.410
REMARK  5 active torsions:
REMARK  status: ('A' for Active; 'I' for Inactive)
REMARK    1  A    between atoms: C_2  and  O_3 
REMARK    2  A    between atoms: C_2  and  C_5 
REMARK    3  A    between atoms: C_7  and  N_8 
REMARK    4  A    between atoms: N_8  and  C_9 
REMARK    5  A    between atoms: C_9  and  C_10 
ROOT
HETATM    1  N   UNL     1      41.859 -18.154   1.476  1.00  0.00    -0.289 NA
HETATM    2  H   UNL     1      41.458 -18.641   2.277  1.00  0.00     0.128 HD
ENDROOT
BRANCH   1   3
HETATM    3  C   UNL     1      41.155 -16.971   1.233  1.00  0.00     0.009 A 
HETATM    4  C   UNL     1      41.544 -16.204   0.120  1.00  0.00     0.033 A 
HETATM    5  C   UNL     1      40.940 -14.974  -0.190  1.00  0.00    -0.028 A 
HETATM    6  C   UNL     1      39.912 -14.518   0.648  1.00  0.00     0.010 A 
HETATM    7  C   UNL     1      39.510 -15.264   1.754  1.00  0.00     0.002 A 
HETATM    8  C   UNL     1      40.136 -16.476   2.049  1.00  0.00     0.023 A 
BRANCH   5   9
HETATM    9  C   UNL     1      41.380 -14.094  -1.349  1.00  0.00     0.149 C 
HETATM   10  C   UNL     1      42.000 -12.752  -0.957  1.00  0.00     0.045 C 
BRANCH   9  11
HETATM   11  O   UNL     1      40.214 -13.873  -2.153  1.00  0.00    -0.386 OA
HETATM   12  C   UNL     1      40.431 -14.086  -3.540  1.00  0.00     0.202 C 
ENDBRANCH   9  11
ENDBRANCH   5   9
ENDBRANCH   1   3
BRANCH   1  13
HETATM   13  C   UNL     1      43.318 -18.155   1.523  1.00  0.00     0.133 C 
BRANCH  13  14
HETATM   14  C   UNL     1      43.794 -18.949   2.720  1.00  0.00    -0.016 A 
HETATM   15  C   UNL     1      44.096 -20.323   2.689  1.00  0.00     0.069 A 
HETATM   16  C   UNL     1      44.558 -21.045   3.781  1.00  0.00     0.012 A 
HETATM   17  N   UNL     1      44.022 -21.234   1.663  1.00  0.00    -0.277 N 
HETATM   18  C   UNL     1      44.690 -22.367   3.302  1.00  0.00     0.152 A 
HETATM   19  C   UNL     1      44.770 -20.382   5.000  1.00  0.00     0.015 A 
HETATM   20  N   UNL     1      44.356 -22.490   2.014  1.00  0.00    -0.186 NA
HETATM   21  C   UNL     1      44.512 -19.007   5.067  1.00  0.00     0.002 A 
HETATM   22  C   UNL     1      44.039 -18.309   3.953  1.00  0.00     0.011 A 
HETATM   23  H   UNL     1      43.724 -21.040   0.711  1.00  0.00     0.189 HD
ENDBRANCH  13  14
ENDBRANCH   1  13
TORSDOF 5
ENDMDL
MODEL 8
REMARK VINA RESULT:      -6.8      3.780      5.166
REMARK  5 active torsions:
REMARK  status: ('A' for Active; 'I' for Inactive)
REMARK    1  A    between atoms: C_2  and  O_3 
REMARK    2  A    between atoms: C_2  and  C_5 
REMARK    3  A    between atoms: C_7  and  N_8 
REMARK    4  A    between atoms: N_8  and  C_9 
REMARK    5  A    between atoms: C_9  and  C_10 
ROOT
HETATM    1  N   UNL     1      44.341 -14.269   7.903  1.00  0.00    -0.289 NA
HETATM    2  H   UNL     1      43.534 -14.133   8.512  1.00  0.00     0.128 HD
ENDROOT
BRANCH   1   3
HETATM    3  C   UNL     1      43.931 -14.801   6.676  1.00  0.00     0.009 A 
HETATM    4  C   UNL     1      43.870 -16.201   6.567  1.00  0.00     0.033 A 
HETATM    5  C   UNL     1      43.519 -16.844   5.367  1.00  0.00    -0.028 A 
HETATM    6  C   UNL     1      43.218 -16.041   4.257  1.00  0.00     0.010 A 
HETATM    7  C   UNL     1      43.271 -14.652   4.345  1.00  0.00     0.002 A 
HETATM    8  C   UNL     1      43.637 -14.038   5.544  1.00  0.00     0.023 A 
BRANCH   5   9
HETATM    9  C   UNL     1      43.503 -18.354   5.201  1.00  0.00     0.149 C 
HETATM   10  C   UNL     1      44.822 -19.064   5.510  1.00  0.00     0.045 C 
BRANCH   9  11
HETATM   11  O   UNL     1      43.124 -18.607   3.842  1.00  0.00    -0.386 OA
HETATM   12  C   UNL     1      43.952 -19.556   3.187  1.00  0.00     0.202 C 
ENDBRANCH   9  11
ENDBRANCH   5   9
ENDBRANCH   1   3
BRANCH   1  13
HETATM   13  C   UNL     1      45.249 -13.127   7.952  1.00  0.00     0.133 C 
BRANCH  13  14
HETATM   14  C   UNL     1      44.736 -12.104   8.942  1.00  0.00    -0.016 A 
HETATM   15  C   UNL     1      43.496 -11.449   8.829  1.00  0.00     0.069 A 
HETATM   16  C   UNL     1      43.013 -10.530   9.752  1.00  0.00     0.012 A 
HETATM   17  N   UNL     1      42.520 -11.534   7.866  1.00  0.00    -0.277 N 
HETATM   18  C   UNL     1      41.771 -10.114   9.221  1.00  0.00     0.152 A 
HETATM   19  C   UNL     1      43.779 -10.236  10.891  1.00  0.00     0.015 A 
HETATM   20  N   UNL     1      41.470 -10.716   8.068  1.00  0.00    -0.186 NA
HETATM   21  C   UNL     1      45.005 -10.890  11.059  1.00  0.00     0.002 A 
HETATM   22  C   UNL     1      45.469 -11.803  10.108  1.00  0.00     0.011 A 
HETATM   23  H   UNL     1      42.547 -12.124   7.039  1.00  0.00     0.189 HD
ENDBRANCH  13  14
ENDBRANCH   1  13
TORSDOF 5
ENDMDL
MODEL 9
REMARK VINA RESULT:      -6.8      3.397      6.046
REMARK  5 active torsions:
REMARK  status: ('A' for Active; 'I' for Inactive)
REMARK    1  A    between atoms: C_2  and  O_3 
REMARK    2  A    between atoms: C_2  and  C_5 
REMARK    3  A    between atoms: C_7  and  N_8 
REMARK    4  A    between atoms: N_8  and  C_9 
REMARK    5  A    between atoms: C_9  and  C_10 
ROOT
HETATM    1  N   UNL     1      41.778 -17.433   2.161  1.00  0.00    -0.289 NA
HETATM    2  H   UNL     1      42.091 -17.130   3.083  1.00  0.00     0.128 HD
ENDROOT
BRANCH   1   3
HETATM    3  C   UNL     1      41.024 -16.424   1.553  1.00  0.00     0.009 A 
HETATM    4  C   UNL     1      41.378 -16.052   0.245  1.00  0.00     0.033 A 
HETATM    5  C   UNL     1      40.722 -15.017  -0.443  1.00  0.00    -0.028 A 
HETATM    6  C   UNL     1      39.678 -14.351   0.215  1.00  0.00     0.010 A 
HETATM    7  C   UNL     1      39.310 -14.706   1.511  1.00  0.00     0.002 A 
HETATM    8  C   UNL     1      39.988 -15.728   2.178  1.00  0.00     0.023 A 
BRANCH   5   9
HETATM    9  C   UNL     1      41.121 -14.552  -1.834  1.00  0.00     0.149 C 
HETATM   10  C   UNL     1      40.340 -13.354  -2.376  1.00  0.00     0.045 C 
BRANCH   9  11
HETATM   11  O   UNL     1      40.944 -15.679  -2.703  1.00  0.00    -0.386 OA
HETATM   12  C   UNL     1      39.812 -15.569  -3.553  1.00  0.00     0.202 C 
ENDBRANCH   9  11
ENDBRANCH   5   9
ENDBRANCH   1   3
BRANCH   1  13
HETATM   13  C   UNL     1      42.846 -18.107   1.427  1.00  0.00     0.133 C 
BRANCH  13  14
HETATM   14  C   UNL     1      43.532 -19.113   2.326  1.00  0.00    -0.016 A 
HETATM   15  C   UNL     1      43.917 -18.853   3.654  1.00  0.00     0.069 A 
HETATM   16  C   UNL     1      44.521 -19.785   4.488  1.00  0.00     0.012 A 
HETATM   17  N   UNL     1      43.808 -17.713   4.413  1.00  0.00    -0.277 N 
HETATM   18  C   UNL     1      44.754 -19.085   5.692  1.00  0.00     0.152 A 
HETATM   19  C   UNL     1      44.752 -21.084   4.008  1.00  0.00     0.015 A 
HETATM   20  N   UNL     1      44.330 -17.819   5.649  1.00  0.00    -0.186 NA
HETATM   21  C   UNL     1      44.355 -21.395   2.702  1.00  0.00     0.002 A 
HETATM   22  C   UNL     1      43.757 -20.433   1.884  1.00  0.00     0.011 A 
HETATM   23  H   UNL     1      43.403 -16.831   4.111  1.00  0.00     0.189 HD
ENDBRANCH  13  14
ENDBRANCH   1  13
TORSDOF 5
ENDMDL
MODEL 10
REMARK VINA RESULT:      -6.8      2.586      4.375
REMARK  5 active torsions:
REMARK  status: ('A' for Active; 'I' for Inactive)
REMARK    1  A    between atoms: C_2  and  O_3 
REMARK    2  A    between atoms: C_2  and  C_5 
REMARK    3  A    between atoms: C_7  and  N_8 
REMARK    4  A    between atoms: N_8  and  C_9 
REMARK    5  A    between atoms: C_9  and  C_10 
ROOT
HETATM    1  N   UNL     1      43.826 -17.283   1.741  1.00  0.00    -0.289 NA
HETATM    2  H   UNL     1      44.131 -16.469   2.275  1.00  0.00     0.128 HD
ENDROOT
BRANCH   1   3
HETATM    3  C   UNL     1      44.003 -18.446   2.498  1.00  0.00     0.009 A 
HETATM    4  C   UNL     1      43.952 -18.320   3.897  1.00  0.00     0.033 A 
HETATM    5  C   UNL     1      44.165 -19.411   4.756  1.00  0.00    -0.028 A 
HETATM    6  C   UNL     1      44.429 -20.661   4.176  1.00  0.00     0.010 A 
HETATM    7  C   UNL     1      44.481 -20.807   2.791  1.00  0.00     0.002 A 
HETATM    8  C   UNL     1      44.281 -19.704   1.960  1.00  0.00     0.023 A 
BRANCH   5   9
HETATM    9  C   UNL     1      44.177 -19.295   6.272  1.00  0.00     0.149 C 
HETATM   10  C   UNL     1      43.688 -20.529   7.030  1.00  0.00     0.045 C 
BRANCH   9  11
HETATM   11  O   UNL     1      43.351 -18.169   6.596  1.00  0.00    -0.386 OA
HETATM   12  C   UNL     1      43.451 -17.762   7.952  1.00  0.00     0.202 C 
ENDBRANCH   9  11
ENDBRANCH   5   9
ENDBRANCH   1   3
BRANCH   1  13
HETATM   13  C   UNL     1      42.565 -17.031   1.050  1.00  0.00     0.133 C 
BRANCH  13  14
HETATM   14  C   UNL     1      41.745 -16.024   1.827  1.00  0.00    -0.016 A 
HETATM   15  C   UNL     1      42.294 -14.962   2.569  1.00  0.00     0.069 A 
HETATM   16  C   UNL     1      41.540 -14.023   3.260  1.00  0.00     0.012 A 
HETATM   17  N   UNL     1      43.601 -14.602   2.788  1.00  0.00    -0.277 N 
HETATM   18  C   UNL     1      42.496 -13.183   3.874  1.00  0.00     0.152 A 
HETATM   19  C   UNL     1      40.139 -14.100   3.213  1.00  0.00     0.015 A 
HETATM   20  N   UNL     1      43.754 -13.537   3.597  1.00  0.00    -0.186 NA
HETATM   21  C   UNL     1      39.551 -15.122   2.459  1.00  0.00     0.002 A 
HETATM   22  C   UNL     1      40.336 -16.059   1.781  1.00  0.00     0.011 A 
HETATM   23  H   UNL     1      44.421 -15.077   2.420  1.00  0.00     0.189 HD
ENDBRANCH  13  14
ENDBRANCH   1  13
TORSDOF 5
ENDMDL
