MODEL 1
REMARK VINA RESULT:      -7.2      0.000      0.000
REMARK  4 active torsions:
REMARK  status: ('A' for Active; 'I' for Inactive)
REMARK    1  A    between atoms: C_5  and  N_6 
REMARK    2  A    between atoms: N_9  and  C_11 
REMARK    3  A    between atoms: C_11  and  C_12 
REMARK    4  A    between atoms: C_13  and  O_14 
ROOT
HETATM    1  N   UNL     1      43.737 -17.408   2.763  1.00  0.00    -0.363 N 
HETATM    2  C   UNL     1      43.235 -16.424   3.730  1.00  0.00     0.152 C 
HETATM    3  C   UNL     1      41.703 -16.417   3.901  1.00  0.00     0.255 C 
HETATM    4  N   UNL     1      41.055 -15.886   2.627  1.00  0.00    -0.066 N 
HETATM    5  H   UNL     1      41.773 -15.319   2.164  1.00  0.00     0.280 HD
HETATM    6  C   UNL     1      40.679 -16.950   1.630  1.00  0.00     0.237 C 
HETATM    7  C   UNL     1      41.779 -17.970   1.349  1.00  0.00     0.047 C 
HETATM    8  C   UNL     1      43.209 -17.437   1.396  1.00  0.00     0.126 C 
ENDROOT
BRANCH   4   9
HETATM    9  C   UNL     1      39.947 -14.874   2.866  1.00  0.00     0.276 C 
BRANCH   9  10
HETATM   10  C   UNL     1      39.404 -14.148   1.666  1.00  0.00     0.002 A 
HETATM   11  C   UNL     1      40.206 -13.257   0.938  1.00  0.00     0.091 A 
HETATM   12  C   UNL     1      39.690 -12.545  -0.150  1.00  0.00     0.044 A 
HETATM   13 BR   UNL     1      40.781 -11.339  -1.121  1.00  0.00    -0.048 Br
HETATM   14  C   UNL     1      38.363 -12.716  -0.529  1.00  0.00     0.022 A 
HETATM   15  C   UNL     1      37.552 -13.601   0.181  1.00  0.00     0.002 A 
HETATM   16  C   UNL     1      38.067 -14.312   1.270  1.00  0.00     0.012 A 
BRANCH  11  17
HETATM   17  O   UNL     1      41.512 -13.103   1.327  1.00  0.00    -0.359 OA
HETATM   18  H   UNL     1      41.901 -14.001   1.388  1.00  0.00     0.218 HD
ENDBRANCH  11  17
ENDBRANCH   9  10
ENDBRANCH   4   9
BRANCH   1  19
HETATM   19  C   UNL     1      44.049 -18.655   3.334  1.00  0.00     0.147 A 
HETATM   20  N   UNL     1      44.159 -18.773   4.674  1.00  0.00    -0.132 NA
HETATM   21  N   UNL     1      44.494 -19.971   5.262  1.00  0.00    -0.153 NA
HETATM   22  C   UNL     1      44.733 -21.054   4.496  1.00  0.00     0.053 A 
HETATM   23  C   UNL     1      45.145 -22.322   5.175  1.00  0.00     0.072 C 
HETATM   24  C   UNL     1      44.628 -20.983   3.119  1.00  0.00     0.032 A 
HETATM   25  C   UNL     1      44.278 -19.768   2.535  1.00  0.00     0.054 A 
ENDBRANCH   1  19
TORSDOF 4
ENDMDL
MODEL 2
REMARK VINA RESULT:      -7.2      2.393      3.345
REMARK  4 active torsions:
REMARK  status: ('A' for Active; 'I' for Inactive)
REMARK    1  A    between atoms: C_5  and  N_6 
REMARK    2  A    between atoms: N_9  and  C_11 
REMARK    3  A    between atoms: C_11  and  C_12 
REMARK    4  A    between atoms: C_13  and  O_14 
ROOT
HETATM    1  N   UNL     1      41.595 -16.773   3.401  1.00  0.00    -0.363 N 
HETATM    2  C   UNL     1      40.537 -16.634   2.391  1.00  0.00     0.152 C 
HETATM    3  C   UNL     1      40.926 -15.775   1.171  1.00  0.00     0.255 C 
HETATM    4  N   UNL     1      41.069 -14.320   1.603  1.00  0.00    -0.066 N 
HETATM    5  H   UNL     1      40.505 -14.224   2.454  1.00  0.00     0.280 HD
HETATM    6  C   UNL     1      42.466 -13.923   2.000  1.00  0.00     0.237 C 
HETATM    7  C   UNL     1      43.149 -14.891   2.962  1.00  0.00     0.047 C 
HETATM    8  C   UNL     1      42.234 -15.583   3.970  1.00  0.00     0.126 C 
ENDROOT
BRANCH   4   9
HETATM    9  C   UNL     1      40.409 -13.323   0.664  1.00  0.00     0.276 C 
BRANCH   9  10
HETATM   10  C   UNL     1      40.459 -13.623  -0.808  1.00  0.00     0.002 A 
HETATM   11  C   UNL     1      39.333 -14.122  -1.480  1.00  0.00     0.091 A 
HETATM   12  C   UNL     1      39.388 -14.447  -2.840  1.00  0.00     0.044 A 
HETATM   13 BR   UNL     1      37.864 -15.126  -3.735  1.00  0.00    -0.048 Br
HETATM   14  C   UNL     1      40.573 -14.274  -3.550  1.00  0.00     0.022 A 
HETATM   15  C   UNL     1      41.700 -13.775  -2.899  1.00  0.00     0.002 A 
HETATM   16  C   UNL     1      41.645 -13.452  -1.539  1.00  0.00     0.012 A 
BRANCH  11  17
HETATM   17  O   UNL     1      38.175 -14.283  -0.763  1.00  0.00    -0.359 OA
HETATM   18  H   UNL     1      37.845 -15.187  -0.949  1.00  0.00     0.218 HD
ENDBRANCH  11  17
ENDBRANCH   9  10
ENDBRANCH   4   9
BRANCH   1  19
HETATM   19  C   UNL     1      42.427 -17.889   3.199  1.00  0.00     0.147 A 
HETATM   20  N   UNL     1      42.390 -18.553   2.025  1.00  0.00    -0.132 NA
HETATM   21  N   UNL     1      43.168 -19.667   1.807  1.00  0.00    -0.153 NA
HETATM   22  C   UNL     1      43.979 -20.123   2.782  1.00  0.00     0.053 A 
HETATM   23  C   UNL     1      44.767 -21.367   2.521  1.00  0.00     0.072 C 
HETATM   24  C   UNL     1      44.054 -19.473   4.001  1.00  0.00     0.032 A 
HETATM   25  C   UNL     1      43.270 -18.341   4.207  1.00  0.00     0.054 A 
ENDBRANCH   1  19
TORSDOF 4
ENDMDL
MODEL 3
REMARK VINA RESULT:      -7.1      2.172      2.754
REMARK  4 active torsions:
REMARK  status: ('A' for Active; 'I' for Inactive)
REMARK    1  A    between atoms: C_5  and  N_6 
REMARK    2  A    between atoms: N_9  and  C_11 
REMARK    3  A    between atoms: C_11  and  C_12 
REMARK    4  A    between atoms: C_13  and  O_14 
ROOT
HETATM    1  N   UNL     1      43.978 -17.259   2.530  1.00  0.00    -0.363 N 
HETATM    2  C   UNL     1      43.798 -15.821   2.767  1.00  0.00     0.152 C 
HETATM    3  C   UNL     1      42.336 -15.336   2.682  1.00  0.00     0.255 C 
HETATM    4  N   UNL     1      41.858 -15.426   1.237  1.00  0.00    -0.066 N 
HETATM    5  H   UNL     1      42.705 -15.399   0.660  1.00  0.00     0.280 HD
HETATM    6  C   UNL     1      41.176 -16.721   0.887  1.00  0.00     0.237 C 
HETATM    7  C   UNL     1      41.925 -17.973   1.337  1.00  0.00     0.047 C 
HETATM    8  C   UNL     1      43.449 -17.880   1.313  1.00  0.00     0.126 C 
ENDROOT
BRANCH   4   9
HETATM    9  C   UNL     1      41.098 -14.202   0.754  1.00  0.00     0.276 C 
BRANCH   9  10
HETATM   10  C   UNL     1      41.645 -13.477  -0.445  1.00  0.00     0.002 A 
HETATM   11  C   UNL     1      42.304 -12.247  -0.304  1.00  0.00     0.091 A 
HETATM   12  C   UNL     1      42.773 -11.547  -1.421  1.00  0.00     0.044 A 
HETATM   13 BR   UNL     1      43.655  -9.883  -1.219  1.00  0.00    -0.048 Br
HETATM   14  C   UNL     1      42.592 -12.070  -2.698  1.00  0.00     0.022 A 
HETATM   15  C   UNL     1      41.943 -13.293  -2.855  1.00  0.00     0.002 A 
HETATM   16  C   UNL     1      41.473 -13.993  -1.739  1.00  0.00     0.012 A 
BRANCH  11  17
HETATM   17  O   UNL     1      42.474 -11.750   0.963  1.00  0.00    -0.359 OA
HETATM   18  H   UNL     1      42.018 -12.363   1.576  1.00  0.00     0.218 HD
ENDBRANCH  11  17
ENDBRANCH   9  10
ENDBRANCH   4   9
BRANCH   1  19
HETATM   19  C   UNL     1      43.918 -18.037   3.700  1.00  0.00     0.147 A 
HETATM   20  N   UNL     1      44.386 -19.303   3.693  1.00  0.00    -0.132 NA
HETATM   21  N   UNL     1      44.312 -20.101   4.812  1.00  0.00    -0.153 NA
HETATM   22  C   UNL     1      43.752 -19.627   5.942  1.00  0.00     0.053 A 
HETATM   23  C   UNL     1      43.646 -20.546   7.117  1.00  0.00     0.072 C 
HETATM   24  C   UNL     1      43.263 -18.334   5.999  1.00  0.00     0.032 A 
HETATM   25  C   UNL     1      43.352 -17.532   4.864  1.00  0.00     0.054 A 
ENDBRANCH   1  19
TORSDOF 4
ENDMDL
MODEL 4
REMARK VINA RESULT:      -7.1      2.665      3.191
REMARK  4 active torsions:
REMARK  status: ('A' for Active; 'I' for Inactive)
REMARK    1  A    between atoms: C_5  and  N_6 
REMARK    2  A    between atoms: N_9  and  C_11 
REMARK    3  A    between atoms: C_11  and  C_12 
REMARK    4  A    between atoms: C_13  and  O_14 
ROOT
HETATM    1  N   UNL     1      43.628 -17.233   2.980  1.00  0.00    -0.363 N 
HETATM    2  C   UNL     1      43.081 -16.326   3.998  1.00  0.00     0.152 C 
HETATM    3  C   UNL     1      41.546 -16.374   4.139  1.00  0.00     0.255 C 
HETATM    4  N   UNL     1      40.905 -15.782   2.889  1.00  0.00    -0.066 N 
HETATM    5  H   UNL     1      41.614 -15.167   2.476  1.00  0.00     0.280 HD
HETATM    6  C   UNL     1      40.578 -16.791   1.821  1.00  0.00     0.237 C 
HETATM    7  C   UNL     1      41.712 -17.760   1.497  1.00  0.00     0.047 C 
HETATM    8  C   UNL     1      43.125 -17.190   1.604  1.00  0.00     0.126 C 
ENDROOT
BRANCH   4   9
HETATM    9  C   UNL     1      39.764 -14.818   3.169  1.00  0.00     0.276 C 
BRANCH   9  10
HETATM   10  C   UNL     1      40.121 -13.468   3.726  1.00  0.00     0.002 A 
HETATM   11  C   UNL     1      39.862 -13.151   5.068  1.00  0.00     0.091 A 
HETATM   12  C   UNL     1      40.149 -11.881   5.578  1.00  0.00     0.044 A 
HETATM   13 BR   UNL     1      39.790 -11.462   7.390  1.00  0.00    -0.048 Br
HETATM   14  C   UNL     1      40.703 -10.907   4.752  1.00  0.00     0.022 A 
HETATM   15  C   UNL     1      40.970 -11.206   3.418  1.00  0.00     0.002 A 
HETATM   16  C   UNL     1      40.682 -12.476   2.907  1.00  0.00     0.012 A 
BRANCH  11  17
HETATM   17  O   UNL     1      39.318 -14.125   5.865  1.00  0.00    -0.359 OA
HETATM   18  H   UNL     1      39.675 -13.991   6.768  1.00  0.00     0.218 HD
ENDBRANCH  11  17
ENDBRANCH   9  10
ENDBRANCH   4   9
BRANCH   1  19
HETATM   19  C   UNL     1      43.967 -18.504   3.478  1.00  0.00     0.147 A 
HETATM   20  N   UNL     1      44.055 -18.704   4.810  1.00  0.00    -0.132 NA
HETATM   21  N   UNL     1      44.415 -19.927   5.329  1.00  0.00    -0.153 NA
HETATM   22  C   UNL     1      44.701 -20.952   4.501  1.00  0.00     0.053 A 
HETATM   23  C   UNL     1      45.138 -22.248   5.107  1.00  0.00     0.072 C 
HETATM   24  C   UNL     1      44.619 -20.796   3.129  1.00  0.00     0.032 A 
HETATM   25  C   UNL     1      44.244 -19.557   2.616  1.00  0.00     0.054 A 
ENDBRANCH   1  19
TORSDOF 4
ENDMDL
MODEL 5
REMARK VINA RESULT:      -7.0      2.230      2.862
REMARK  4 active torsions:
REMARK  status: ('A' for Active; 'I' for Inactive)
REMARK    1  A    between atoms: C_5  and  N_6 
REMARK    2  A    between atoms: N_9  and  C_11 
REMARK    3  A    between atoms: C_11  and  C_12 
REMARK    4  A    between atoms: C_13  and  O_14 
ROOT
HETATM    1  N   UNL     1      41.489 -17.050   3.231  1.00  0.00    -0.363 N 
HETATM    2  C   UNL     1      41.110 -17.081   1.813  1.00  0.00     0.152 C 
HETATM    3  C   UNL     1      42.009 -16.232   0.891  1.00  0.00     0.255 C 
HETATM    4  N   UNL     1      41.785 -14.754   1.189  1.00  0.00    -0.066 N 
HETATM    5  H   UNL     1      40.853 -14.692   1.613  1.00  0.00     0.280 HD
HETATM    6  C   UNL     1      42.729 -14.175   2.210  1.00  0.00     0.237 C 
HETATM    7  C   UNL     1      42.883 -15.014   3.476  1.00  0.00     0.047 C 
HETATM    8  C   UNL     1      41.636 -15.769   3.929  1.00  0.00     0.126 C 
ENDROOT
BRANCH   4   9
HETATM    9  C   UNL     1      41.636 -13.883  -0.047  1.00  0.00     0.276 C 
BRANCH   9  10
HETATM   10  C   UNL     1      40.347 -13.987  -0.814  1.00  0.00     0.002 A 
HETATM   11  C   UNL     1      40.260 -14.771  -1.974  1.00  0.00     0.091 A 
HETATM   12  C   UNL     1      39.076 -14.833  -2.717  1.00  0.00     0.044 A 
HETATM   13 BR   UNL     1      38.972 -15.890  -4.284  1.00  0.00    -0.048 Br
HETATM   14  C   UNL     1      37.959 -14.111  -2.308  1.00  0.00     0.022 A 
HETATM   15  C   UNL     1      38.027 -13.330  -1.156  1.00  0.00     0.002 A 
HETATM   16  C   UNL     1      39.211 -13.267  -0.413  1.00  0.00     0.012 A 
BRANCH  11  17
HETATM   17  O   UNL     1      41.372 -15.476  -2.358  1.00  0.00    -0.359 OA
HETATM   18  H   UNL     1      41.683 -15.084  -3.201  1.00  0.00     0.218 HD
ENDBRANCH  11  17
ENDBRANCH   9  10
ENDBRANCH   4   9
BRANCH   1  19
HETATM   19  C   UNL     1      42.391 -18.064   3.599  1.00  0.00     0.147 A 
HETATM   20  N   UNL     1      42.667 -18.281   4.902  1.00  0.00    -0.132 NA
HETATM   21  N   UNL     1      43.570 -19.244   5.293  1.00  0.00    -0.153 NA
HETATM   22  C   UNL     1      44.208 -19.985   4.366  1.00  0.00     0.053 A 
HETATM   23  C   UNL     1      45.218 -20.984   4.834  1.00  0.00     0.072 C 
HETATM   24  C   UNL     1      43.954 -19.803   3.018  1.00  0.00     0.032 A 
HETATM   25  C   UNL     1      43.032 -18.832   2.635  1.00  0.00     0.054 A 
ENDBRANCH   1  19
TORSDOF 4
ENDMDL
MODEL 6
REMARK VINA RESULT:      -6.9      2.283      2.716
REMARK  4 active torsions:
REMARK  status: ('A' for Active; 'I' for Inactive)
REMARK    1  A    between atoms: C_5  and  N_6 
REMARK    2  A    between atoms: N_9  and  C_11 
REMARK    3  A    between atoms: C_11  and  C_12 
REMARK    4  A    between atoms: C_13  and  O_14 
ROOT
HETATM    1  N   UNL     1      43.858 -17.122   2.569  1.00  0.00    -0.363 N 
HETATM    2  C   UNL     1      43.575 -15.709   2.851  1.00  0.00     0.152 C 
HETATM    3  C   UNL     1      42.092 -15.312   2.711  1.00  0.00     0.255 C 
HETATM    4  N   UNL     1      41.690 -15.370   1.241  1.00  0.00    -0.066 N 
HETATM    5  H   UNL     1      42.560 -15.267   0.709  1.00  0.00     0.280 HD
HETATM    6  C   UNL     1      41.109 -16.690   0.808  1.00  0.00     0.237 C 
HETATM    7  C   UNL     1      41.914 -17.910   1.247  1.00  0.00     0.047 C 
HETATM    8  C   UNL     1      43.428 -17.723   1.303  1.00  0.00     0.126 C 
ENDROOT
BRANCH   4   9
HETATM    9  C   UNL     1      40.878 -14.177   0.769  1.00  0.00     0.276 C 
BRANCH   9  10
HETATM   10  C   UNL     1      40.746 -13.975  -0.716  1.00  0.00     0.002 A 
HETATM   11  C   UNL     1      39.506 -14.120  -1.355  1.00  0.00     0.091 A 
HETATM   12  C   UNL     1      39.388 -13.979  -2.742  1.00  0.00     0.044 A 
HETATM   13 BR   UNL     1      37.710 -14.184  -3.595  1.00  0.00    -0.048 Br
HETATM   14  C   UNL     1      40.510 -13.687  -3.511  1.00  0.00     0.022 A 
HETATM   15  C   UNL     1      41.749 -13.535  -2.891  1.00  0.00     0.002 A 
HETATM   16  C   UNL     1      41.868 -13.677  -1.505  1.00  0.00     0.012 A 
BRANCH  11  17
HETATM   17  O   UNL     1      38.412 -14.406  -0.579  1.00  0.00    -0.359 OA
HETATM   18  H   UNL     1      38.136 -13.569  -0.151  1.00  0.00     0.218 HD
ENDBRANCH  11  17
ENDBRANCH   9  10
ENDBRANCH   4   9
BRANCH   1  19
HETATM   19  C   UNL     1      43.791 -17.951   3.703  1.00  0.00     0.147 A 
HETATM   20  N   UNL     1      43.193 -17.505   4.828  1.00  0.00    -0.132 NA
HETATM   21  N   UNL     1      43.139 -18.278   5.965  1.00  0.00    -0.153 NA
HETATM   22  C   UNL     1      43.702 -19.503   5.975  1.00  0.00     0.053 A 
HETATM   23  C   UNL     1      43.665 -20.287   7.248  1.00  0.00     0.072 C 
HETATM   24  C   UNL     1      44.321 -20.005   4.844  1.00  0.00     0.032 A 
HETATM   25  C   UNL     1      44.361 -19.217   3.696  1.00  0.00     0.054 A 
ENDBRANCH   1  19
TORSDOF 4
ENDMDL
MODEL 7
REMARK VINA RESULT:      -6.9      2.657      3.718
REMARK  4 active torsions:
REMARK  status: ('A' for Active; 'I' for Inactive)
REMARK    1  A    between atoms: C_5  and  N_6 
REMARK    2  A    between atoms: N_9  and  C_11 
REMARK    3  A    between atoms: C_11  and  C_12 
REMARK    4  A    between atoms: C_13  and  O_14 
ROOT
HETATM    1  N   UNL     1      40.833 -16.418   2.734  1.00  0.00    -0.363 N 
HETATM    2  C   UNL     1      40.743 -17.310   1.570  1.00  0.00     0.152 C 
HETATM    3  C   UNL     1      41.626 -16.897   0.376  1.00  0.00     0.255 C 
HETATM    4  N   UNL     1      41.078 -15.611  -0.236  1.00  0.00    -0.066 N 
HETATM    5  H   UNL     1      40.088 -15.575   0.029  1.00  0.00     0.280 HD
HETATM    6  C   UNL     1      41.688 -14.351   0.317  1.00  0.00     0.237 C 
HETATM    7  C   UNL     1      41.753 -14.295   1.841  1.00  0.00     0.047 C 
HETATM    8  C   UNL     1      40.605 -14.978   2.581  1.00  0.00     0.126 C 
ENDROOT
BRANCH   4   9
HETATM    9  C   UNL     1      41.007 -15.624  -1.754  1.00  0.00     0.276 C 
BRANCH   9  10
HETATM   10  C   UNL     1      40.524 -14.373  -2.434  1.00  0.00     0.002 A 
HETATM   11  C   UNL     1      41.419 -13.525  -3.102  1.00  0.00     0.091 A 
HETATM   12  C   UNL     1      40.981 -12.336  -3.695  1.00  0.00     0.044 A 
HETATM   13 BR   UNL     1      42.200 -11.195  -4.589  1.00  0.00    -0.048 Br
HETATM   14  C   UNL     1      39.637 -11.979  -3.631  1.00  0.00     0.022 A 
HETATM   15  C   UNL     1      38.734 -12.813  -2.974  1.00  0.00     0.002 A 
HETATM   16  C   UNL     1      39.172 -14.001  -2.380  1.00  0.00     0.012 A 
BRANCH  11  17
HETATM   17  O   UNL     1      42.738 -13.895  -3.155  1.00  0.00    -0.359 OA
HETATM   18  H   UNL     1      43.029 -13.791  -4.085  1.00  0.00     0.218 HD
ENDBRANCH  11  17
ENDBRANCH   9  10
ENDBRANCH   4   9
BRANCH   1  19
HETATM   19  C   UNL     1      41.822 -16.794   3.660  1.00  0.00     0.147 A 
HETATM   20  N   UNL     1      41.960 -16.109   4.814  1.00  0.00    -0.132 NA
HETATM   21  N   UNL     1      42.938 -16.432   5.727  1.00  0.00    -0.153 NA
HETATM   22  C   UNL     1      43.792 -17.443   5.470  1.00  0.00     0.053 A 
HETATM   23  C   UNL     1      44.872 -17.726   6.466  1.00  0.00     0.072 C 
HETATM   24  C   UNL     1      43.687 -18.177   4.303  1.00  0.00     0.032 A 
HETATM   25  C   UNL     1      42.687 -17.848   3.391  1.00  0.00     0.054 A 
ENDBRANCH   1  19
TORSDOF 4
ENDMDL
MODEL 8
REMARK VINA RESULT:      -6.8      2.785      3.840
REMARK  4 active torsions:
REMARK  status: ('A' for Active; 'I' for Inactive)
REMARK    1  A    between atoms: C_5  and  N_6 
REMARK    2  A    between atoms: N_9  and  C_11 
REMARK    3  A    between atoms: C_11  and  C_12 
REMARK    4  A    between atoms: C_13  and  O_14 
ROOT
HETATM    1  N   UNL     1      40.666 -16.822   2.481  1.00  0.00    -0.363 N 
HETATM    2  C   UNL     1      40.895 -17.309   1.115  1.00  0.00     0.152 C 
HETATM    3  C   UNL     1      41.913 -16.482   0.303  1.00  0.00     0.255 C 
HETATM    4  N   UNL     1      41.320 -15.111  -0.003  1.00  0.00    -0.066 N 
HETATM    5  H   UNL     1      40.302 -15.227   0.051  1.00  0.00     0.280 HD
HETATM    6  C   UNL     1      41.656 -14.048   1.009  1.00  0.00     0.237 C 
HETATM    7  C   UNL     1      41.446 -14.469   2.461  1.00  0.00     0.047 C 
HETATM    8  C   UNL     1      40.284 -15.426   2.715  1.00  0.00     0.126 C 
ENDROOT
BRANCH   4   9
HETATM    9  C   UNL     1      41.517 -14.652  -1.438  1.00  0.00     0.276 C 
BRANCH   9  10
HETATM   10  C   UNL     1      40.367 -14.841  -2.388  1.00  0.00     0.002 A 
HETATM   11  C   UNL     1      39.352 -13.877  -2.493  1.00  0.00     0.091 A 
HETATM   12  C   UNL     1      38.257 -14.071  -3.341  1.00  0.00     0.044 A 
HETATM   13 BR   UNL     1      36.890 -12.766  -3.469  1.00  0.00    -0.048 Br
HETATM   14  C   UNL     1      38.161 -15.233  -4.101  1.00  0.00     0.022 A 
HETATM   15  C   UNL     1      39.162 -16.198  -4.013  1.00  0.00     0.002 A 
HETATM   16  C   UNL     1      40.257 -16.006  -3.164  1.00  0.00     0.012 A 
BRANCH  11  17
HETATM   17  O   UNL     1      39.467 -12.739  -1.736  1.00  0.00    -0.359 OA
HETATM   18  H   UNL     1      39.292 -11.980  -2.331  1.00  0.00     0.218 HD
ENDBRANCH  11  17
ENDBRANCH   9  10
ENDBRANCH   4   9
BRANCH   1  19
HETATM   19  C   UNL     1      41.518 -17.401   3.438  1.00  0.00     0.147 A 
HETATM   20  N   UNL     1      42.518 -18.217   3.044  1.00  0.00    -0.132 NA
HETATM   21  N   UNL     1      43.349 -18.825   3.957  1.00  0.00    -0.153 NA
HETATM   22  C   UNL     1      43.165 -18.620   5.276  1.00  0.00     0.053 A 
HETATM   23  C   UNL     1      44.059 -19.342   6.234  1.00  0.00     0.072 C 
HETATM   24  C   UNL     1      42.157 -17.789   5.728  1.00  0.00     0.032 A 
HETATM   25  C   UNL     1      41.328 -17.171   4.795  1.00  0.00     0.054 A 
ENDBRANCH   1  19
TORSDOF 4
ENDMDL
MODEL 9
REMARK VINA RESULT:      -6.8      1.447      1.909
REMARK  4 active torsions:
REMARK  status: ('A' for Active; 'I' for Inactive)
REMARK    1  A    between atoms: C_5  and  N_6 
REMARK    2  A    between atoms: N_9  and  C_11 
REMARK    3  A    between atoms: C_11  and  C_12 
REMARK    4  A    between atoms: C_13  and  O_14 
ROOT
HETATM    1  N   UNL     1      43.609 -17.199   2.882  1.00  0.00    -0.363 N 
HETATM    2  C   UNL     1      43.054 -16.279   3.883  1.00  0.00     0.152 C 
HETATM    3  C   UNL     1      41.518 -16.329   4.017  1.00  0.00     0.255 C 
HETATM    4  N   UNL     1      40.882 -15.758   2.754  1.00  0.00    -0.066 N 
HETATM    5  H   UNL     1      41.592 -15.147   2.335  1.00  0.00     0.280 HD
HETATM    6  C   UNL     1      40.564 -16.784   1.700  1.00  0.00     0.237 C 
HETATM    7  C   UNL     1      41.702 -17.755   1.397  1.00  0.00     0.047 C 
HETATM    8  C   UNL     1      43.113 -17.179   1.503  1.00  0.00     0.126 C 
ENDROOT
BRANCH   4   9
HETATM    9  C   UNL     1      39.737 -14.794   3.013  1.00  0.00     0.276 C 
BRANCH   9  10
HETATM   10  C   UNL     1      40.058 -13.325   3.019  1.00  0.00     0.002 A 
HETATM   11  C   UNL     1      40.574 -12.695   1.877  1.00  0.00     0.091 A 
HETATM   12  C   UNL     1      40.918 -11.339   1.892  1.00  0.00     0.044 A 
HETATM   13 BR   UNL     1      41.621 -10.502   0.346  1.00  0.00    -0.048 Br
HETATM   14  C   UNL     1      40.748 -10.591   3.053  1.00  0.00     0.022 A 
HETATM   15  C   UNL     1      40.233 -11.199   4.196  1.00  0.00     0.002 A 
HETATM   16  C   UNL     1      39.890 -12.556   4.181  1.00  0.00     0.012 A 
BRANCH  11  17
HETATM   17  O   UNL     1      40.733 -13.451   0.743  1.00  0.00    -0.359 OA
HETATM   18  H   UNL     1      40.538 -14.379   0.987  1.00  0.00     0.218 HD
ENDBRANCH  11  17
ENDBRANCH   9  10
ENDBRANCH   4   9
BRANCH   1  19
HETATM   19  C   UNL     1      43.949 -18.462   3.401  1.00  0.00     0.147 A 
HETATM   20  N   UNL     1      44.033 -18.641   4.736  1.00  0.00    -0.132 NA
HETATM   21  N   UNL     1      44.394 -19.854   5.274  1.00  0.00    -0.153 NA
HETATM   22  C   UNL     1      44.685 -20.891   4.464  1.00  0.00     0.053 A 
HETATM   23  C   UNL     1      45.122 -22.177   5.092  1.00  0.00     0.072 C 
HETATM   24  C   UNL     1      44.607 -20.758   3.090  1.00  0.00     0.032 A 
HETATM   25  C   UNL     1      44.231 -19.528   2.556  1.00  0.00     0.054 A 
ENDBRANCH   1  19
TORSDOF 4
ENDMDL
MODEL 10
REMARK VINA RESULT:      -6.7      3.609      7.770
REMARK  4 active torsions:
REMARK  status: ('A' for Active; 'I' for Inactive)
REMARK    1  A    between atoms: C_5  and  N_6 
REMARK    2  A    between atoms: N_9  and  C_11 
REMARK    3  A    between atoms: C_11  and  C_12 
REMARK    4  A    between atoms: C_13  and  O_14 
ROOT
HETATM    1  N   UNL     1      40.232 -13.234  -0.561  1.00  0.00    -0.363 N 
HETATM    2  C   UNL     1      39.967 -13.453   0.867  1.00  0.00     0.152 C 
HETATM    3  C   UNL     1      40.841 -14.542   1.521  1.00  0.00     0.255 C 
HETATM    4  N   UNL     1      40.445 -15.907   0.969  1.00  0.00    -0.066 N 
HETATM    5  H   UNL     1      39.483 -15.804   0.630  1.00  0.00     0.280 HD
HETATM    6  C   UNL     1      41.246 -16.350  -0.227  1.00  0.00     0.237 C 
HETATM    7  C   UNL     1      41.389 -15.293  -1.319  1.00  0.00     0.047 C 
HETATM    8  C   UNL     1      40.195 -14.358  -1.501  1.00  0.00     0.126 C 
ENDROOT
BRANCH   4   9
HETATM    9  C   UNL     1      40.302 -16.990   2.025  1.00  0.00     0.276 C 
BRANCH   9  10
HETATM   10  C   UNL     1      41.512 -17.306   2.860  1.00  0.00     0.002 A 
HETATM   11  C   UNL     1      41.593 -16.888   4.197  1.00  0.00     0.091 A 
HETATM   12  C   UNL     1      42.737 -17.138   4.963  1.00  0.00     0.044 A 
HETATM   13 BR   UNL     1      42.838 -16.564   6.765  1.00  0.00    -0.048 Br
HETATM   14  C   UNL     1      43.817 -17.814   4.403  1.00  0.00     0.022 A 
HETATM   15  C   UNL     1      43.751 -18.240   3.078  1.00  0.00     0.002 A 
HETATM   16  C   UNL     1      42.608 -17.989   2.310  1.00  0.00     0.012 A 
BRANCH  11  17
HETATM   17  O   UNL     1      40.518 -16.225   4.730  1.00  0.00    -0.359 OA
HETATM   18  H   UNL     1      39.785 -16.872   4.797  1.00  0.00     0.218 HD
ENDBRANCH  11  17
ENDBRANCH   9  10
ENDBRANCH   4   9
BRANCH   1  19
HETATM   19  C   UNL     1      41.203 -12.248  -0.811  1.00  0.00     0.147 A 
HETATM   20  N   UNL     1      42.173 -12.011   0.098  1.00  0.00    -0.132 NA
HETATM   21  N   UNL     1      43.119 -11.032  -0.103  1.00  0.00    -0.153 NA
HETATM   22  C   UNL     1      43.081 -10.277  -1.218  1.00  0.00     0.053 A 
HETATM   23  C   UNL     1      44.098  -9.190  -1.370  1.00  0.00     0.072 C 
HETATM   24  C   UNL     1      42.110 -10.486  -2.180  1.00  0.00     0.032 A 
HETATM   25  C   UNL     1      41.164 -11.487  -1.972  1.00  0.00     0.054 A 
ENDBRANCH   1  19
TORSDOF 4
ENDMDL
