MODEL 1
REMARK VINA RESULT:      -8.8      0.000      0.000
REMARK  8 active torsions:
REMARK  status: ('A' for Active; 'I' for Inactive)
REMARK    1  A    between atoms: C_4  and  N_5 
REMARK    2  A    between atoms: N_8  and  C_10 
REMARK    3  A    between atoms: C_10  and  C_11 
REMARK    4  A    between atoms: C_11  and  C_12 
REMARK       I    between atoms: C_12  and  N_13 
REMARK    5  A    between atoms: N_13  and  N_14 
REMARK    6  A    between atoms: N_14  and  C_15 
REMARK    7  A    between atoms: C_15  and  N_16 
REMARK    8  A    between atoms: N_16  and  C_17 
ROOT
HETATM    1  C   UNL     1      43.988 -13.401   7.517  1.00  0.00     0.237 C 
HETATM    2  N   UNL     1      43.768 -12.454   8.485  1.00  0.00    -0.268 N 
HETATM    3  O   UNL     1      44.824 -14.287   7.666  1.00  0.00    -0.272 OA
HETATM    4  H   UNL     1      44.460 -12.377   9.233  1.00  0.00     0.190 HD
ENDROOT
BRANCH   1   5
HETATM    5  C   UNL     1      43.100 -13.382   6.296  1.00  0.00     0.132 C 
BRANCH   5   6
HETATM    6  C   UNL     1      43.801 -14.128   5.176  1.00  0.00     0.244 C 
BRANCH   6   7
HETATM    7  N   UNL     1      42.878 -15.116   4.488  1.00  0.00    -0.068 N 
HETATM    8  C   UNL     1      43.415 -15.468   3.088  1.00  0.00     0.254 C 
HETATM    9  C   UNL     1      42.482 -16.465   2.370  1.00  0.00     0.150 C 
HETATM   10  N   UNL     1      42.225 -17.654   3.200  1.00  0.00    -0.378 N 
HETATM   11  C   UNL     1      41.675 -17.343   4.534  1.00  0.00     0.150 C 
HETATM   12  C   UNL     1      42.622 -16.394   5.301  1.00  0.00     0.254 C 
HETATM   13  H   UNL     1      41.967 -14.657   4.344  1.00  0.00     0.280 HD
BRANCH  10  14
HETATM   14  C   UNL     1      43.026 -18.793   3.094  1.00  0.00     0.030 A 
HETATM   15  C   UNL     1      44.026 -19.126   4.021  1.00  0.00     0.029 A 
HETATM   16  C   UNL     1      44.812 -20.278   3.877  1.00  0.00     0.002 A 
HETATM   17  C   UNL     1      44.631 -21.119   2.785  1.00  0.00     0.000 A 
HETATM   18  C   UNL     1      43.672 -20.801   1.834  1.00  0.00     0.002 A 
HETATM   19  C   UNL     1      42.888 -19.651   1.988  1.00  0.00     0.029 A 
ENDBRANCH  10  14
ENDBRANCH   6   7
ENDBRANCH   5   6
ENDBRANCH   1   5
BRANCH   2  20
HETATM   20  N   UNL     1      42.886 -11.379   8.296  1.00  0.00    -0.274 N 
HETATM   21  H   UNL     1      42.286 -11.483   7.482  1.00  0.00     0.189 HD
BRANCH  20  22
HETATM   22  C   UNL     1      42.244 -10.806   9.364  1.00  0.00     0.191 C 
HETATM   23  S   UNL     1      41.152  -9.541   9.253  1.00  0.00    -0.039 SA
BRANCH  22  24
HETATM   24  N   UNL     1      42.398 -11.391  10.592  1.00  0.00    -0.331 N 
HETATM   25  H   UNL     1      42.844 -12.301  10.497  1.00  0.00     0.168 HD
BRANCH  24  26
HETATM   26  C   UNL     1      42.390 -10.857  11.906  1.00  0.00     0.056 A 
HETATM   27  C   UNL     1      41.411 -11.033  12.900  1.00  0.00     0.060 A 
HETATM   28 CL   UNL     1      40.093 -12.147  12.767  1.00  0.00    -0.082 Cl
HETATM   29  C   UNL     1      41.528 -10.381  14.137  1.00  0.00     0.026 A 
HETATM   30  C   UNL     1      42.632  -9.580  14.414  1.00  0.00     0.002 A 
HETATM   31  C   UNL     1      43.639  -9.450  13.467  1.00  0.00     0.002 A 
HETATM   32  C   UNL     1      43.526 -10.095  12.232  1.00  0.00     0.031 A 
ENDBRANCH  24  26
ENDBRANCH  22  24
ENDBRANCH  20  22
ENDBRANCH   2  20
TORSDOF 8
ENDMDL
MODEL 2
REMARK VINA RESULT:      -8.6      5.925      9.242
REMARK  8 active torsions:
REMARK  status: ('A' for Active; 'I' for Inactive)
REMARK    1  A    between atoms: C_4  and  N_5 
REMARK    2  A    between atoms: N_8  and  C_10 
REMARK    3  A    between atoms: C_10  and  C_11 
REMARK    4  A    between atoms: C_11  and  C_12 
REMARK       I    between atoms: C_12  and  N_13 
REMARK    5  A    between atoms: N_13  and  N_14 
REMARK    6  A    between atoms: N_14  and  C_15 
REMARK    7  A    between atoms: C_15  and  N_16 
REMARK    8  A    between atoms: N_16  and  C_17 
ROOT
HETATM    1  C   UNL     1      41.151 -14.781  -0.802  1.00  0.00     0.237 C 
HETATM    2  N   UNL     1      41.353 -16.125  -0.619  1.00  0.00    -0.268 N 
HETATM    3  O   UNL     1      40.327 -14.361  -1.609  1.00  0.00    -0.272 OA
HETATM    4  H   UNL     1      40.960 -16.759  -1.318  1.00  0.00     0.190 HD
ENDROOT
BRANCH   1   5
HETATM    5  C   UNL     1      41.903 -13.825   0.093  1.00  0.00     0.132 C 
BRANCH   5   6
HETATM    6  C   UNL     1      41.019 -13.467   1.272  1.00  0.00     0.244 C 
BRANCH   6   7
HETATM    7  N   UNL     1      41.829 -13.172   2.521  1.00  0.00    -0.068 N 
HETATM    8  C   UNL     1      40.915 -13.135   3.758  1.00  0.00     0.254 C 
HETATM    9  C   UNL     1      41.722 -12.826   5.036  1.00  0.00     0.150 C 
HETATM   10  N   UNL     1      42.858 -13.752   5.191  1.00  0.00    -0.378 N 
HETATM   11  C   UNL     1      43.769 -13.777   4.030  1.00  0.00     0.150 C 
HETATM   12  C   UNL     1      42.996 -14.146   2.745  1.00  0.00     0.254 C 
HETATM   13  H   UNL     1      42.231 -12.229   2.426  1.00  0.00     0.280 HD
BRANCH  10  14
HETATM   14  C   UNL     1      42.727 -14.935   5.922  1.00  0.00     0.030 A 
HETATM   15  C   UNL     1      41.581 -15.744   5.889  1.00  0.00     0.029 A 
HETATM   16  C   UNL     1      41.488 -16.924   6.641  1.00  0.00     0.002 A 
HETATM   17  C   UNL     1      42.537 -17.315   7.465  1.00  0.00     0.000 A 
HETATM   18  C   UNL     1      43.671 -16.521   7.544  1.00  0.00     0.002 A 
HETATM   19  C   UNL     1      43.758 -15.347   6.786  1.00  0.00     0.029 A 
ENDBRANCH  10  14
ENDBRANCH   6   7
ENDBRANCH   5   6
ENDBRANCH   1   5
BRANCH   2  20
HETATM   20  N   UNL     1      42.354 -16.625   0.228  1.00  0.00    -0.274 N 
HETATM   21  H   UNL     1      43.082 -15.948   0.442  1.00  0.00     0.189 HD
BRANCH  20  22
HETATM   22  C   UNL     1      42.031 -17.420   1.298  1.00  0.00     0.191 C 
HETATM   23  S   UNL     1      40.718 -17.170   2.308  1.00  0.00    -0.039 SA
BRANCH  22  24
HETATM   24  N   UNL     1      42.744 -18.574   1.476  1.00  0.00    -0.331 N 
HETATM   25  H   UNL     1      42.965 -18.995   0.577  1.00  0.00     0.168 HD
BRANCH  24  26
HETATM   26  C   UNL     1      43.496 -19.066   2.574  1.00  0.00     0.056 A 
HETATM   27  C   UNL     1      43.988 -20.369   2.764  1.00  0.00     0.060 A 
HETATM   28 CL   UNL     1      43.947 -21.601   1.549  1.00  0.00    -0.082 Cl
HETATM   29  C   UNL     1      44.667 -20.708   3.944  1.00  0.00     0.026 A 
HETATM   30  C   UNL     1      44.897 -19.752   4.929  1.00  0.00     0.002 A 
HETATM   31  C   UNL     1      44.475 -18.444   4.726  1.00  0.00     0.002 A 
HETATM   32  C   UNL     1      43.795 -18.102   3.554  1.00  0.00     0.031 A 
ENDBRANCH  24  26
ENDBRANCH  22  24
ENDBRANCH  20  22
ENDBRANCH   2  20
TORSDOF 8
ENDMDL
MODEL 3
REMARK VINA RESULT:      -8.6      1.191      1.697
REMARK  8 active torsions:
REMARK  status: ('A' for Active; 'I' for Inactive)
REMARK    1  A    between atoms: C_4  and  N_5 
REMARK    2  A    between atoms: N_8  and  C_10 
REMARK    3  A    between atoms: C_10  and  C_11 
REMARK    4  A    between atoms: C_11  and  C_12 
REMARK       I    between atoms: C_12  and  N_13 
REMARK    5  A    between atoms: N_13  and  N_14 
REMARK    6  A    between atoms: N_14  and  C_15 
REMARK    7  A    between atoms: C_15  and  N_16 
REMARK    8  A    between atoms: N_16  and  C_17 
ROOT
HETATM    1  C   UNL     1      44.980 -12.447   8.451  1.00  0.00     0.237 C 
HETATM    2  N   UNL     1      44.392 -11.392   9.100  1.00  0.00    -0.268 N 
HETATM    3  O   UNL     1      46.085 -12.867   8.783  1.00  0.00    -0.272 OA
HETATM    4  H   UNL     1      44.982 -10.832   9.720  1.00  0.00     0.190 HD
ENDROOT
BRANCH   1   5
HETATM    5  C   UNL     1      44.186 -13.144   7.372  1.00  0.00     0.132 C 
BRANCH   5   6
HETATM    6  C   UNL     1      44.729 -14.550   7.204  1.00  0.00     0.244 C 
BRANCH   6   7
HETATM    7  N   UNL     1      43.636 -15.542   6.852  1.00  0.00    -0.068 N 
HETATM    8  C   UNL     1      43.212 -15.376   5.382  1.00  0.00     0.254 C 
HETATM    9  C   UNL     1      42.093 -16.371   5.010  1.00  0.00     0.150 C 
HETATM   10  N   UNL     1      42.473 -17.755   5.343  1.00  0.00    -0.378 N 
HETATM   11  C   UNL     1      42.849 -17.947   6.758  1.00  0.00     0.150 C 
HETATM   12  C   UNL     1      44.011 -17.004   7.140  1.00  0.00     0.254 C 
HETATM   13  H   UNL     1      42.808 -15.321   7.422  1.00  0.00     0.280 HD
BRANCH  10  14
HETATM   14  C   UNL     1      43.101 -18.575   4.403  1.00  0.00     0.030 A 
HETATM   15  C   UNL     1      42.797 -18.556   3.033  1.00  0.00     0.029 A 
HETATM   16  C   UNL     1      43.447 -19.399   2.121  1.00  0.00     0.002 A 
HETATM   17  C   UNL     1      44.410 -20.300   2.561  1.00  0.00     0.000 A 
HETATM   18  C   UNL     1      44.711 -20.365   3.914  1.00  0.00     0.002 A 
HETATM   19  C   UNL     1      44.060 -19.517   4.817  1.00  0.00     0.029 A 
ENDBRANCH  10  14
ENDBRANCH   6   7
ENDBRANCH   5   6
ENDBRANCH   1   5
BRANCH   2  20
HETATM   20  N   UNL     1      43.175 -10.835   8.678  1.00  0.00    -0.274 N 
HETATM   21  H   UNL     1      42.918 -11.091   7.728  1.00  0.00     0.189 HD
BRANCH  20  22
HETATM   22  C   UNL     1      42.100 -10.779   9.527  1.00  0.00     0.191 C 
HETATM   23  S   UNL     1      40.586 -10.193   9.111  1.00  0.00    -0.039 SA
BRANCH  22  24
HETATM   24  N   UNL     1      42.224 -11.366  10.757  1.00  0.00    -0.331 N 
HETATM   25  H   UNL     1      42.621 -12.299  10.665  1.00  0.00     0.168 HD
BRANCH  24  26
HETATM   26  C   UNL     1      42.247 -10.828  12.069  1.00  0.00     0.056 A 
HETATM   27  C   UNL     1      41.288 -10.994  13.083  1.00  0.00     0.060 A 
HETATM   28 CL   UNL     1      39.961 -12.099  12.982  1.00  0.00    -0.082 Cl
HETATM   29  C   UNL     1      41.435 -10.338  14.315  1.00  0.00     0.026 A 
HETATM   30  C   UNL     1      42.550  -9.543  14.567  1.00  0.00     0.002 A 
HETATM   31  C   UNL     1      43.538  -9.423  13.598  1.00  0.00     0.002 A 
HETATM   32  C   UNL     1      43.394 -10.072  12.368  1.00  0.00     0.031 A 
ENDBRANCH  24  26
ENDBRANCH  22  24
ENDBRANCH  20  22
ENDBRANCH   2  20
TORSDOF 8
ENDMDL
MODEL 4
REMARK VINA RESULT:      -8.5      1.711      2.055
REMARK  8 active torsions:
REMARK  status: ('A' for Active; 'I' for Inactive)
REMARK    1  A    between atoms: C_4  and  N_5 
REMARK    2  A    between atoms: N_8  and  C_10 
REMARK    3  A    between atoms: C_10  and  C_11 
REMARK    4  A    between atoms: C_11  and  C_12 
REMARK       I    between atoms: C_12  and  N_13 
REMARK    5  A    between atoms: N_13  and  N_14 
REMARK    6  A    between atoms: N_14  and  C_15 
REMARK    7  A    between atoms: C_15  and  N_16 
REMARK    8  A    between atoms: N_16  and  C_17 
ROOT
HETATM    1  C   UNL     1      44.194 -14.773   6.897  1.00  0.00     0.237 C 
HETATM    2  N   UNL     1      44.211 -14.090   8.085  1.00  0.00    -0.268 N 
HETATM    3  O   UNL     1      44.307 -15.995   6.859  1.00  0.00    -0.272 OA
HETATM    4  H   UNL     1      44.532 -14.595   8.914  1.00  0.00     0.190 HD
ENDROOT
BRANCH   1   5
HETATM    5  C   UNL     1      43.933 -13.988   5.634  1.00  0.00     0.132 C 
BRANCH   5   6
HETATM    6  C   UNL     1      42.441 -13.988   5.363  1.00  0.00     0.244 C 
BRANCH   6   7
HETATM    7  N   UNL     1      42.073 -14.911   4.216  1.00  0.00    -0.068 N 
HETATM    8  C   UNL     1      43.292 -15.153   3.308  1.00  0.00     0.254 C 
HETATM    9  C   UNL     1      42.932 -16.083   2.130  1.00  0.00     0.150 C 
HETATM   10  N   UNL     1      42.313 -17.333   2.602  1.00  0.00    -0.378 N 
HETATM   11  C   UNL     1      41.119 -17.126   3.446  1.00  0.00     0.150 C 
HETATM   12  C   UNL     1      41.467 -16.248   4.668  1.00  0.00     0.254 C 
HETATM   13  H   UNL     1      41.368 -14.435   3.636  1.00  0.00     0.280 HD
BRANCH  10  14
HETATM   14  C   UNL     1      43.087 -18.465   2.865  1.00  0.00     0.030 A 
HETATM   15  C   UNL     1      43.301 -19.491   1.932  1.00  0.00     0.029 A 
HETATM   16  C   UNL     1      44.083 -20.614   2.236  1.00  0.00     0.002 A 
HETATM   17  C   UNL     1      44.658 -20.750   3.494  1.00  0.00     0.000 A 
HETATM   18  C   UNL     1      44.439 -19.767   4.450  1.00  0.00     0.002 A 
HETATM   19  C   UNL     1      43.661 -18.647   4.136  1.00  0.00     0.029 A 
ENDBRANCH  10  14
ENDBRANCH   6   7
ENDBRANCH   5   6
ENDBRANCH   1   5
BRANCH   2  20
HETATM   20  N   UNL     1      44.179 -12.689   8.146  1.00  0.00    -0.274 N 
HETATM   21  H   UNL     1      43.437 -12.274   7.587  1.00  0.00     0.189 HD
BRANCH  20  22
HETATM   22  C   UNL     1      44.381 -12.036   9.335  1.00  0.00     0.191 C 
HETATM   23  S   UNL     1      45.706 -11.069   9.677  1.00  0.00    -0.039 SA
BRANCH  22  24
HETATM   24  N   UNL     1      43.372 -12.060  10.259  1.00  0.00    -0.331 N 
HETATM   25  H   UNL     1      43.129 -13.021  10.491  1.00  0.00     0.168 HD
BRANCH  24  26
HETATM   26  C   UNL     1      42.886 -11.080  11.161  1.00  0.00     0.056 A 
HETATM   27  C   UNL     1      42.240  -9.870  10.850  1.00  0.00     0.060 A 
HETATM   28 CL   UNL     1      41.711  -9.442   9.259  1.00  0.00    -0.082 Cl
HETATM   29  C   UNL     1      41.873  -8.977  11.869  1.00  0.00     0.026 A 
HETATM   30  C   UNL     1      42.109  -9.290  13.205  1.00  0.00     0.002 A 
HETATM   31  C   UNL     1      42.686 -10.511  13.531  1.00  0.00     0.002 A 
HETATM   32  C   UNL     1      43.057 -11.402  12.519  1.00  0.00     0.031 A 
ENDBRANCH  24  26
ENDBRANCH  22  24
ENDBRANCH  20  22
ENDBRANCH   2  20
TORSDOF 8
ENDMDL
MODEL 5
REMARK VINA RESULT:      -8.4      2.176      2.778
REMARK  8 active torsions:
REMARK  status: ('A' for Active; 'I' for Inactive)
REMARK    1  A    between atoms: C_4  and  N_5 
REMARK    2  A    between atoms: N_8  and  C_10 
REMARK    3  A    between atoms: C_10  and  C_11 
REMARK    4  A    between atoms: C_11  and  C_12 
REMARK       I    between atoms: C_12  and  N_13 
REMARK    5  A    between atoms: N_13  and  N_14 
REMARK    6  A    between atoms: N_14  and  C_15 
REMARK    7  A    between atoms: C_15  and  N_16 
REMARK    8  A    between atoms: N_16  and  C_17 
ROOT
HETATM    1  C   UNL     1      39.953 -12.533   6.468  1.00  0.00     0.237 C 
HETATM    2  N   UNL     1      39.618 -11.985   7.680  1.00  0.00    -0.268 N 
HETATM    3  O   UNL     1      39.114 -13.084   5.761  1.00  0.00    -0.272 OA
HETATM    4  H   UNL     1      38.707 -12.233   8.073  1.00  0.00     0.190 HD
ENDROOT
BRANCH   1   5
HETATM    5  C   UNL     1      41.370 -12.354   5.979  1.00  0.00     0.132 C 
BRANCH   5   6
HETATM    6  C   UNL     1      41.673 -13.439   4.964  1.00  0.00     0.244 C 
BRANCH   6   7
HETATM    7  N   UNL     1      41.844 -14.797   5.618  1.00  0.00    -0.068 N 
HETATM    8  C   UNL     1      40.966 -15.847   4.915  1.00  0.00     0.254 C 
HETATM    9  C   UNL     1      41.120 -17.233   5.575  1.00  0.00     0.150 C 
HETATM   10  N   UNL     1      42.535 -17.633   5.659  1.00  0.00    -0.378 N 
HETATM   11  C   UNL     1      43.391 -16.657   6.361  1.00  0.00     0.150 C 
HETATM   12  C   UNL     1      43.303 -15.273   5.681  1.00  0.00     0.254 C 
HETATM   13  H   UNL     1      41.501 -14.731   6.587  1.00  0.00     0.280 HD
BRANCH  10  14
HETATM   14  C   UNL     1      43.132 -18.385   4.643  1.00  0.00     0.030 A 
HETATM   15  C   UNL     1      42.809 -18.245   3.285  1.00  0.00     0.029 A 
HETATM   16  C   UNL     1      43.429 -19.022   2.296  1.00  0.00     0.002 A 
HETATM   17  C   UNL     1      44.376 -19.977   2.644  1.00  0.00     0.000 A 
HETATM   18  C   UNL     1      44.694 -20.162   3.982  1.00  0.00     0.002 A 
HETATM   19  C   UNL     1      44.075 -19.378   4.963  1.00  0.00     0.029 A 
ENDBRANCH  10  14
ENDBRANCH   6   7
ENDBRANCH   5   6
ENDBRANCH   1   5
BRANCH   2  20
HETATM   20  N   UNL     1      40.576 -11.435   8.546  1.00  0.00    -0.274 N 
HETATM   21  H   UNL     1      41.289 -10.889   8.069  1.00  0.00     0.189 HD
BRANCH  20  22
HETATM   22  C   UNL     1      40.201 -10.893   9.748  1.00  0.00     0.191 C 
HETATM   23  S   UNL     1      38.989  -9.754   9.944  1.00  0.00    -0.039 SA
BRANCH  22  24
HETATM   24  N   UNL     1      40.758 -11.412  10.886  1.00  0.00    -0.331 N 
HETATM   25  H   UNL     1      40.824 -12.425  10.815  1.00  0.00     0.168 HD
BRANCH  24  26
HETATM   26  C   UNL     1      41.538 -10.827  11.915  1.00  0.00     0.056 A 
HETATM   27  C   UNL     1      42.875 -10.397  11.841  1.00  0.00     0.060 A 
HETATM   28 CL   UNL     1      43.777 -10.305  10.368  1.00  0.00    -0.082 Cl
HETATM   29  C   UNL     1      43.522  -9.890  12.979  1.00  0.00     0.026 A 
HETATM   30  C   UNL     1      42.842  -9.770  14.187  1.00  0.00     0.002 A 
HETATM   31  C   UNL     1      41.502 -10.129  14.258  1.00  0.00     0.002 A 
HETATM   32  C   UNL     1      40.854 -10.638  13.129  1.00  0.00     0.031 A 
ENDBRANCH  24  26
ENDBRANCH  22  24
ENDBRANCH  20  22
ENDBRANCH   2  20
TORSDOF 8
ENDMDL
MODEL 6
REMARK VINA RESULT:      -8.3      5.488      8.060
REMARK  8 active torsions:
REMARK  status: ('A' for Active; 'I' for Inactive)
REMARK    1  A    between atoms: C_4  and  N_5 
REMARK    2  A    between atoms: N_8  and  C_10 
REMARK    3  A    between atoms: C_10  and  C_11 
REMARK    4  A    between atoms: C_11  and  C_12 
REMARK       I    between atoms: C_12  and  N_13 
REMARK    5  A    between atoms: N_13  and  N_14 
REMARK    6  A    between atoms: N_14  and  C_15 
REMARK    7  A    between atoms: C_15  and  N_16 
REMARK    8  A    between atoms: N_16  and  C_17 
ROOT
HETATM    1  C   UNL     1      42.549 -13.154   3.280  1.00  0.00     0.237 C 
HETATM    2  N   UNL     1      42.067 -12.268   2.352  1.00  0.00    -0.268 N 
HETATM    3  O   UNL     1      43.706 -13.561   3.237  1.00  0.00    -0.272 OA
HETATM    4  H   UNL     1      42.623 -12.123   1.506  1.00  0.00     0.190 HD
ENDROOT
BRANCH   1   5
HETATM    5  C   UNL     1      41.642 -13.543   4.423  1.00  0.00     0.132 C 
BRANCH   5   6
HETATM    6  C   UNL     1      42.430 -13.461   5.716  1.00  0.00     0.244 C 
BRANCH   6   7
HETATM    7  N   UNL     1      42.531 -14.810   6.405  1.00  0.00    -0.068 N 
HETATM    8  C   UNL     1      41.549 -15.812   5.772  1.00  0.00     0.254 C 
HETATM    9  C   UNL     1      41.633 -17.186   6.468  1.00  0.00     0.150 C 
HETATM   10  N   UNL     1      43.017 -17.687   6.504  1.00  0.00    -0.378 N 
HETATM   11  C   UNL     1      43.972 -16.757   7.140  1.00  0.00     0.150 C 
HETATM   12  C   UNL     1      43.954 -15.390   6.422  1.00  0.00     0.254 C 
HETATM   13  H   UNL     1      42.237 -14.692   7.385  1.00  0.00     0.280 HD
BRANCH  10  14
HETATM   14  C   UNL     1      43.512 -18.509   5.488  1.00  0.00     0.030 A 
HETATM   15  C   UNL     1      44.489 -19.494   5.696  1.00  0.00     0.029 A 
HETATM   16  C   UNL     1      44.963 -20.297   4.648  1.00  0.00     0.002 A 
HETATM   17  C   UNL     1      44.483 -20.119   3.356  1.00  0.00     0.000 A 
HETATM   18  C   UNL     1      43.538 -19.132   3.112  1.00  0.00     0.002 A 
HETATM   19  C   UNL     1      43.068 -18.338   4.165  1.00  0.00     0.029 A 
ENDBRANCH  10  14
ENDBRANCH   6   7
ENDBRANCH   5   6
ENDBRANCH   1   5
BRANCH   2  20
HETATM   20  N   UNL     1      40.723 -11.863   2.327  1.00  0.00    -0.274 N 
HETATM   21  H   UNL     1      40.569 -10.939   2.723  1.00  0.00     0.189 HD
BRANCH  20  22
HETATM   22  C   UNL     1      39.938 -12.113   1.231  1.00  0.00     0.191 C 
HETATM   23  S   UNL     1      39.677 -11.031  -0.021  1.00  0.00    -0.039 SA
BRANCH  22  24
HETATM   24  N   UNL     1      39.441 -13.378   1.074  1.00  0.00    -0.331 N 
HETATM   25  H   UNL     1      38.496 -13.342   0.697  1.00  0.00     0.168 HD
BRANCH  24  26
HETATM   26  C   UNL     1      40.074 -14.645   0.996  1.00  0.00     0.056 A 
HETATM   27  C   UNL     1      41.020 -15.076   0.049  1.00  0.00     0.060 A 
HETATM   28 CL   UNL     1      41.769 -14.031  -1.109  1.00  0.00    -0.082 Cl
HETATM   29  C   UNL     1      41.506 -16.392   0.078  1.00  0.00     0.026 A 
HETATM   30  C   UNL     1      41.089 -17.280   1.066  1.00  0.00     0.002 A 
HETATM   31  C   UNL     1      40.206 -16.848   2.047  1.00  0.00     0.002 A 
HETATM   32  C   UNL     1      39.715 -15.539   2.020  1.00  0.00     0.031 A 
ENDBRANCH  24  26
ENDBRANCH  22  24
ENDBRANCH  20  22
ENDBRANCH   2  20
TORSDOF 8
ENDMDL
MODEL 7
REMARK VINA RESULT:      -8.2      5.624      9.076
REMARK  8 active torsions:
REMARK  status: ('A' for Active; 'I' for Inactive)
REMARK    1  A    between atoms: C_4  and  N_5 
REMARK    2  A    between atoms: N_8  and  C_10 
REMARK    3  A    between atoms: C_10  and  C_11 
REMARK    4  A    between atoms: C_11  and  C_12 
REMARK       I    between atoms: C_12  and  N_13 
REMARK    5  A    between atoms: N_13  and  N_14 
REMARK    6  A    between atoms: N_14  and  C_15 
REMARK    7  A    between atoms: C_15  and  N_16 
REMARK    8  A    between atoms: N_16  and  C_17 
ROOT
HETATM    1  C   UNL     1      43.840 -14.728   6.069  1.00  0.00     0.237 C 
HETATM    2  N   UNL     1      44.043 -16.023   6.471  1.00  0.00    -0.268 N 
HETATM    3  O   UNL     1      44.017 -13.784   6.834  1.00  0.00    -0.272 OA
HETATM    4  H   UNL     1      44.135 -16.195   7.474  1.00  0.00     0.190 HD
ENDROOT
BRANCH   1   5
HETATM    5  C   UNL     1      43.484 -14.485   4.621  1.00  0.00     0.132 C 
BRANCH   5   6
HETATM    6  C   UNL     1      41.979 -14.333   4.511  1.00  0.00     0.244 C 
BRANCH   6   7
HETATM    7  N   UNL     1      41.408 -15.155   3.370  1.00  0.00    -0.068 N 
HETATM    8  C   UNL     1      40.319 -14.360   2.628  1.00  0.00     0.254 C 
HETATM    9  C   UNL     1      39.720 -15.186   1.471  1.00  0.00     0.150 C 
HETATM   10  N   UNL     1      40.771 -15.693   0.572  1.00  0.00    -0.378 N 
HETATM   11  C   UNL     1      41.808 -16.489   1.256  1.00  0.00     0.150 C 
HETATM   12  C   UNL     1      42.469 -15.663   2.382  1.00  0.00     0.254 C 
HETATM   13  H   UNL     1      40.943 -15.981   3.773  1.00  0.00     0.280 HD
BRANCH  10  14
HETATM   14  C   UNL     1      41.168 -14.966  -0.553  1.00  0.00     0.030 A 
HETATM   15  C   UNL     1      41.798 -13.713  -0.484  1.00  0.00     0.029 A 
HETATM   16  C   UNL     1      42.178 -13.014  -1.638  1.00  0.00     0.002 A 
HETATM   17  C   UNL     1      41.920 -13.543  -2.896  1.00  0.00     0.000 A 
HETATM   18  C   UNL     1      41.271 -14.765  -2.999  1.00  0.00     0.002 A 
HETATM   19  C   UNL     1      40.899 -15.459  -1.842  1.00  0.00     0.029 A 
ENDBRANCH  10  14
ENDBRANCH   6   7
ENDBRANCH   5   6
ENDBRANCH   1   5
BRANCH   2  20
HETATM   20  N   UNL     1      43.756 -17.120   5.644  1.00  0.00    -0.274 N 
HETATM   21  H   UNL     1      43.839 -16.914   4.652  1.00  0.00     0.189 HD
BRANCH  20  22
HETATM   22  C   UNL     1      44.201 -18.376   5.969  1.00  0.00     0.191 C 
HETATM   23  S   UNL     1      43.781 -19.204   7.364  1.00  0.00    -0.039 SA
BRANCH  22  24
HETATM   24  N   UNL     1      44.927 -19.060   5.033  1.00  0.00    -0.331 N 
HETATM   25  H   UNL     1      45.907 -19.097   5.304  1.00  0.00     0.168 HD
BRANCH  24  26
HETATM   26  C   UNL     1      44.547 -19.976   4.019  1.00  0.00     0.056 A 
HETATM   27  C   UNL     1      44.720 -21.371   4.011  1.00  0.00     0.060 A 
HETATM   28 CL   UNL     1      45.256 -22.283   5.381  1.00  0.00    -0.082 Cl
HETATM   29  C   UNL     1      44.339 -22.129   2.894  1.00  0.00     0.026 A 
HETATM   30  C   UNL     1      43.749 -21.518   1.790  1.00  0.00     0.002 A 
HETATM   31  C   UNL     1      43.511 -20.150   1.811  1.00  0.00     0.002 A 
HETATM   32  C   UNL     1      43.893 -19.390   2.920  1.00  0.00     0.031 A 
ENDBRANCH  24  26
ENDBRANCH  22  24
ENDBRANCH  20  22
ENDBRANCH   2  20
TORSDOF 8
ENDMDL
MODEL 8
REMARK VINA RESULT:      -8.2      6.288      9.596
REMARK  8 active torsions:
REMARK  status: ('A' for Active; 'I' for Inactive)
REMARK    1  A    between atoms: C_4  and  N_5 
REMARK    2  A    between atoms: N_8  and  C_10 
REMARK    3  A    between atoms: C_10  and  C_11 
REMARK    4  A    between atoms: C_11  and  C_12 
REMARK       I    between atoms: C_12  and  N_13 
REMARK    5  A    between atoms: N_13  and  N_14 
REMARK    6  A    between atoms: N_14  and  C_15 
REMARK    7  A    between atoms: C_15  and  N_16 
REMARK    8  A    between atoms: N_16  and  C_17 
ROOT
HETATM    1  C   UNL     1      41.177 -15.965   5.350  1.00  0.00     0.237 C 
HETATM    2  N   UNL     1      41.523 -17.062   6.096  1.00  0.00    -0.268 N 
HETATM    3  O   UNL     1      40.472 -15.073   5.813  1.00  0.00    -0.272 OA
HETATM    4  H   UNL     1      41.008 -17.223   6.965  1.00  0.00     0.190 HD
ENDROOT
BRANCH   1   5
HETATM    5  C   UNL     1      41.771 -15.835   3.968  1.00  0.00     0.132 C 
BRANCH   5   6
HETATM    6  C   UNL     1      40.664 -16.014   2.947  1.00  0.00     0.244 C 
BRANCH   6   7
HETATM    7  N   UNL     1      40.671 -14.912   1.904  1.00  0.00    -0.068 N 
HETATM    8  C   UNL     1      41.575 -15.297   0.719  1.00  0.00     0.254 C 
HETATM    9  C   UNL     1      41.601 -14.182  -0.346  1.00  0.00     0.150 C 
HETATM   10  N   UNL     1      40.239 -13.807  -0.764  1.00  0.00    -0.378 N 
HETATM   11  C   UNL     1      39.364 -13.398   0.352  1.00  0.00     0.150 C 
HETATM   12  C   UNL     1      39.270 -14.524   1.405  1.00  0.00     0.254 C 
HETATM   13  H   UNL     1      41.088 -14.072   2.329  1.00  0.00     0.280 HD
BRANCH  10  14
HETATM   14  C   UNL     1      39.627 -14.423  -1.859  1.00  0.00     0.030 A 
HETATM   15  C   UNL     1      40.300 -15.284  -2.740  1.00  0.00     0.029 A 
HETATM   16  C   UNL     1      39.650 -15.879  -3.830  1.00  0.00     0.002 A 
HETATM   17  C   UNL     1      38.309 -15.612  -4.079  1.00  0.00     0.000 A 
HETATM   18  C   UNL     1      37.624 -14.741  -3.244  1.00  0.00     0.002 A 
HETATM   19  C   UNL     1      38.279 -14.154  -2.156  1.00  0.00     0.029 A 
ENDBRANCH  10  14
ENDBRANCH   6   7
ENDBRANCH   5   6
ENDBRANCH   1   5
BRANCH   2  20
HETATM   20  N   UNL     1      42.248 -18.137   5.559  1.00  0.00    -0.274 N 
HETATM   21  H   UNL     1      42.177 -18.210   4.547  1.00  0.00     0.189 HD
BRANCH  20  22
HETATM   22  C   UNL     1      43.499 -18.443   6.032  1.00  0.00     0.191 C 
HETATM   23  S   UNL     1      43.922 -18.480   7.652  1.00  0.00    -0.039 SA
BRANCH  22  24
HETATM   24  N   UNL     1      44.433 -18.881   5.133  1.00  0.00    -0.331 N 
HETATM   25  H   UNL     1      45.366 -18.600   5.428  1.00  0.00     0.168 HD
BRANCH  24  26
HETATM   26  C   UNL     1      44.394 -19.891   4.138  1.00  0.00     0.056 A 
HETATM   27  C   UNL     1      44.078 -19.743   2.775  1.00  0.00     0.060 A 
HETATM   28 CL   UNL     1      43.880 -18.212   1.993  1.00  0.00    -0.082 Cl
HETATM   29  C   UNL     1      44.027 -20.863   1.932  1.00  0.00     0.026 A 
HETATM   30  C   UNL     1      44.323 -22.133   2.420  1.00  0.00     0.002 A 
HETATM   31  C   UNL     1      44.701 -22.285   3.748  1.00  0.00     0.002 A 
HETATM   32  C   UNL     1      44.750 -21.172   4.594  1.00  0.00     0.031 A 
ENDBRANCH  24  26
ENDBRANCH  22  24
ENDBRANCH  20  22
ENDBRANCH   2  20
TORSDOF 8
ENDMDL
MODEL 9
REMARK VINA RESULT:      -8.2      1.879      2.141
REMARK  8 active torsions:
REMARK  status: ('A' for Active; 'I' for Inactive)
REMARK    1  A    between atoms: C_4  and  N_5 
REMARK    2  A    between atoms: N_8  and  C_10 
REMARK    3  A    between atoms: C_10  and  C_11 
REMARK    4  A    between atoms: C_11  and  C_12 
REMARK       I    between atoms: C_12  and  N_13 
REMARK    5  A    between atoms: N_13  and  N_14 
REMARK    6  A    between atoms: N_14  and  C_15 
REMARK    7  A    between atoms: C_15  and  N_16 
REMARK    8  A    between atoms: N_16  and  C_17 
ROOT
HETATM    1  C   UNL     1      39.712 -12.360   6.612  1.00  0.00     0.237 C 
HETATM    2  N   UNL     1      39.931 -11.579   7.716  1.00  0.00    -0.268 N 
HETATM    3  O   UNL     1      38.577 -12.581   6.198  1.00  0.00    -0.272 OA
HETATM    4  H   UNL     1      39.126 -11.363   8.308  1.00  0.00     0.190 HD
ENDROOT
BRANCH   1   5
HETATM    5  C   UNL     1      40.915 -12.867   5.854  1.00  0.00     0.132 C 
BRANCH   5   6
HETATM    6  C   UNL     1      40.716 -14.341   5.557  1.00  0.00     0.244 C 
BRANCH   6   7
HETATM    7  N   UNL     1      41.365 -14.750   4.248  1.00  0.00    -0.068 N 
HETATM    8  C   UNL     1      42.888 -14.896   4.426  1.00  0.00     0.254 C 
HETATM    9  C   UNL     1      43.566 -15.301   3.101  1.00  0.00     0.150 C 
HETATM   10  N   UNL     1      42.939 -16.502   2.522  1.00  0.00    -0.378 N 
HETATM   11  C   UNL     1      41.484 -16.372   2.308  1.00  0.00     0.150 C 
HETATM   12  C   UNL     1      40.772 -16.027   3.635  1.00  0.00     0.254 C 
HETATM   13  H   UNL     1      41.223 -13.989   3.569  1.00  0.00     0.280 HD
BRANCH  10  14
HETATM   14  C   UNL     1      43.427 -17.778   2.812  1.00  0.00     0.030 A 
HETATM   15  C   UNL     1      43.953 -18.142   4.061  1.00  0.00     0.029 A 
HETATM   16  C   UNL     1      44.436 -19.434   4.311  1.00  0.00     0.002 A 
HETATM   17  C   UNL     1      44.423 -20.394   3.307  1.00  0.00     0.000 A 
HETATM   18  C   UNL     1      43.938 -20.058   2.051  1.00  0.00     0.002 A 
HETATM   19  C   UNL     1      43.453 -18.767   1.811  1.00  0.00     0.029 A 
ENDBRANCH  10  14
ENDBRANCH   6   7
ENDBRANCH   5   6
ENDBRANCH   1   5
BRANCH   2  20
HETATM   20  N   UNL     1      41.211 -11.391   8.261  1.00  0.00    -0.274 N 
HETATM   21  H   UNL     1      41.941 -11.288   7.560  1.00  0.00     0.189 HD
BRANCH  20  22
HETATM   22  C   UNL     1      41.396 -10.577   9.349  1.00  0.00     0.191 C 
HETATM   23  S   UNL     1      40.622  -9.109   9.582  1.00  0.00    -0.039 SA
BRANCH  22  24
HETATM   24  N   UNL     1      42.156 -11.051  10.382  1.00  0.00    -0.331 N 
HETATM   25  H   UNL     1      42.947 -11.582  10.024  1.00  0.00     0.168 HD
BRANCH  24  26
HETATM   26  C   UNL     1      42.255 -10.668  11.744  1.00  0.00     0.056 A 
HETATM   27  C   UNL     1      41.350 -10.946  12.784  1.00  0.00     0.060 A 
HETATM   28 CL   UNL     1      40.008 -12.028  12.629  1.00  0.00    -0.082 Cl
HETATM   29  C   UNL     1      41.569 -10.436  14.073  1.00  0.00     0.026 A 
HETATM   30  C   UNL     1      42.703  -9.680  14.353  1.00  0.00     0.002 A 
HETATM   31  C   UNL     1      43.639  -9.453  13.352  1.00  0.00     0.002 A 
HETATM   32  C   UNL     1      43.424  -9.955  12.065  1.00  0.00     0.031 A 
ENDBRANCH  24  26
ENDBRANCH  22  24
ENDBRANCH  20  22
ENDBRANCH   2  20
TORSDOF 8
ENDMDL
MODEL 10
REMARK VINA RESULT:      -8.1      6.640      9.985
REMARK  8 active torsions:
REMARK  status: ('A' for Active; 'I' for Inactive)
REMARK    1  A    between atoms: C_4  and  N_5 
REMARK    2  A    between atoms: N_8  and  C_10 
REMARK    3  A    between atoms: C_10  and  C_11 
REMARK    4  A    between atoms: C_11  and  C_12 
REMARK       I    between atoms: C_12  and  N_13 
REMARK    5  A    between atoms: N_13  and  N_14 
REMARK    6  A    between atoms: N_14  and  C_15 
REMARK    7  A    between atoms: C_15  and  N_16 
REMARK    8  A    between atoms: N_16  and  C_17 
ROOT
HETATM    1  C   UNL     1      39.884 -15.320   2.170  1.00  0.00     0.237 C 
HETATM    2  N   UNL     1      39.983 -15.637   3.501  1.00  0.00    -0.268 N 
HETATM    3  O   UNL     1      39.227 -14.356   1.789  1.00  0.00    -0.272 OA
HETATM    4  H   UNL     1      39.330 -15.183   4.143  1.00  0.00     0.190 HD
ENDROOT
BRANCH   1   5
HETATM    5  C   UNL     1      40.689 -16.137   1.188  1.00  0.00     0.132 C 
BRANCH   5   6
HETATM    6  C   UNL     1      41.947 -15.368   0.835  1.00  0.00     0.244 C 
BRANCH   6   7
HETATM    7  N   UNL     1      41.993 -15.001  -0.637  1.00  0.00    -0.068 N 
HETATM    8  C   UNL     1      41.023 -15.884  -1.442  1.00  0.00     0.254 C 
HETATM    9  C   UNL     1      41.065 -15.530  -2.943  1.00  0.00     0.150 C 
HETATM   10  N   UNL     1      40.844 -14.090  -3.162  1.00  0.00    -0.378 N 
HETATM   11  C   UNL     1      41.787 -13.224  -2.428  1.00  0.00     0.150 C 
HETATM   12  C   UNL     1      41.720 -13.515  -0.912  1.00  0.00     0.254 C 
HETATM   13  H   UNL     1      42.938 -15.209  -0.989  1.00  0.00     0.280 HD
BRANCH  10  14
HETATM   14  C   UNL     1      39.562 -13.585  -3.388  1.00  0.00     0.030 A 
HETATM   15  C   UNL     1      38.422 -14.394  -3.519  1.00  0.00     0.029 A 
HETATM   16  C   UNL     1      37.152 -13.847  -3.749  1.00  0.00     0.002 A 
HETATM   17  C   UNL     1      36.991 -12.473  -3.873  1.00  0.00     0.000 A 
HETATM   18  C   UNL     1      38.103 -11.647  -3.779  1.00  0.00     0.002 A 
HETATM   19  C   UNL     1      39.367 -12.201  -3.545  1.00  0.00     0.029 A 
ENDBRANCH  10  14
ENDBRANCH   6   7
ENDBRANCH   5   6
ENDBRANCH   1   5
BRANCH   2  20
HETATM   20  N   UNL     1      40.649 -16.787   3.951  1.00  0.00    -0.274 N 
HETATM   21  H   UNL     1      40.606 -17.565   3.297  1.00  0.00     0.189 HD
BRANCH  20  22
HETATM   22  C   UNL     1      41.860 -16.689   4.588  1.00  0.00     0.191 C 
HETATM   23  S   UNL     1      42.060 -16.271   6.197  1.00  0.00    -0.039 SA
BRANCH  22  24
HETATM   24  N   UNL     1      42.976 -17.093   3.906  1.00  0.00    -0.331 N 
HETATM   25  H   UNL     1      43.651 -16.333   3.853  1.00  0.00     0.168 HD
BRANCH  24  26
HETATM   26  C   UNL     1      43.489 -18.379   3.600  1.00  0.00     0.056 A 
HETATM   27  C   UNL     1      44.386 -19.150   4.361  1.00  0.00     0.060 A 
HETATM   28 CL   UNL     1      44.879 -18.746   5.970  1.00  0.00    -0.082 Cl
HETATM   29  C   UNL     1      44.845 -20.387   3.881  1.00  0.00     0.026 A 
HETATM   30  C   UNL     1      44.391 -20.887   2.664  1.00  0.00     0.002 A 
HETATM   31  C   UNL     1      43.455 -20.167   1.933  1.00  0.00     0.002 A 
HETATM   32  C   UNL     1      42.998 -18.933   2.404  1.00  0.00     0.031 A 
ENDBRANCH  24  26
ENDBRANCH  22  24
ENDBRANCH  20  22
ENDBRANCH   2  20
TORSDOF 8
ENDMDL
