MODEL 1
REMARK VINA RESULT:      -8.3      0.000      0.000
REMARK  6 active torsions:
REMARK  status: ('A' for Active; 'I' for Inactive)
REMARK    1  A    between atoms: C_7  and  C_8 
REMARK    2  A    between atoms: C_8  and  C_9 
REMARK       I    between atoms: C_9  and  N_10 
REMARK    3  A    between atoms: N_10  and  C_11 
REMARK    4  A    between atoms: C_11  and  C_12 
REMARK    5  A    between atoms: C_19  and  C_20 
REMARK    6  A    between atoms: C_23  and  O_24 
ROOT
HETATM    1  C   UNL     1      43.218 -14.111   5.647  1.00  0.00     0.151 C 
HETATM    2  O   UNL     1      41.775 -14.310   5.709  1.00  0.00    -0.343 OA
HETATM    3  C   UNL     1      41.376 -14.375   4.404  1.00  0.00     0.075 A 
HETATM    4  C   UNL     1      42.415 -14.402   3.497  1.00  0.00    -0.021 A 
HETATM    5  C   UNL     1      43.707 -14.386   4.214  1.00  0.00     0.075 C 
HETATM    6  C   UNL     1      40.062 -14.447   3.996  1.00  0.00     0.038 A 
HETATM    7  C   UNL     1      39.801 -14.543   2.624  1.00  0.00     0.016 A 
HETATM    8  C   UNL     1      40.844 -14.571   1.663  1.00  0.00    -0.005 A 
HETATM    9  C   UNL     1      42.172 -14.501   2.136  1.00  0.00     0.024 A 
ENDROOT
BRANCH   1  10
HETATM   10  C   UNL     1      43.871 -15.033   6.687  1.00  0.00     0.155 C 
BRANCH  10  11
HETATM   11  N   UNL     1      44.034 -16.414   6.268  1.00  0.00    -0.359 N 
HETATM   12  C   UNL     1      43.049 -17.359   6.458  1.00  0.00     0.219 C 
HETATM   13  O   UNL     1      41.992 -17.118   7.028  1.00  0.00    -0.274 OA
HETATM   14  H   UNL     1      44.831 -16.645   5.687  1.00  0.00     0.162 HD
BRANCH  12  15
HETATM   15  C   UNL     1      43.409 -18.712   5.882  1.00  0.00     0.128 C 
BRANCH  15  16
HETATM   16  C   UNL     1      43.768 -18.642   4.394  1.00  0.00     0.094 C 
HETATM   17  N   UNL     1      44.047 -19.984   3.886  1.00  0.00    -0.362 N 
HETATM   18  C   UNL     1      43.932 -20.346   2.584  1.00  0.00     0.168 C 
HETATM   19  H   UNL     1      44.615 -20.612   4.443  1.00  0.00     0.162 HD
HETATM   20  N   UNL     1      43.318 -19.481   1.742  1.00  0.00    -0.363 N 
HETATM   21  S   UNL     1      44.488 -21.817   2.054  1.00  0.00    -0.041 SA
HETATM   22  C   UNL     1      42.980 -18.111   2.079  1.00  0.00     0.081 C 
HETATM   23  H   UNL     1      43.269 -19.772   0.772  1.00  0.00     0.162 HD
HETATM   24  C   UNL     1      44.098 -17.162   1.653  1.00  0.00     0.032 C 
HETATM   25  C   UNL     1      42.646 -18.003   3.566  1.00  0.00     0.050 C 
ENDBRANCH  15  16
ENDBRANCH  12  15
ENDBRANCH  10  11
ENDBRANCH   1  10
BRANCH   8  26
HETATM   26  C   UNL     1      40.574 -14.693   0.216  1.00  0.00     0.089 A 
HETATM   27  N   UNL     1      39.550 -13.946  -0.265  1.00  0.00    -0.147 NA
HETATM   28  N   UNL     1      39.216 -13.984  -1.597  1.00  0.00    -0.124 NA
HETATM   29  C   UNL     1      39.912 -14.776  -2.434  1.00  0.00     0.185 A 
HETATM   30  C   UNL     1      40.959 -15.559  -1.994  1.00  0.00     0.062 A 
HETATM   31  C   UNL     1      41.295 -15.519  -0.642  1.00  0.00     0.038 A 
BRANCH  29  32
HETATM   32  O   UNL     1      39.603 -14.837  -3.777  1.00  0.00    -0.338 OA
HETATM   33  C   UNL     1      38.935 -16.044  -4.136  1.00  0.00     0.211 C 
ENDBRANCH  29  32
ENDBRANCH   8  26
TORSDOF 6
ENDMDL
MODEL 2
REMARK VINA RESULT:      -8.2      5.095      8.386
REMARK  6 active torsions:
REMARK  status: ('A' for Active; 'I' for Inactive)
REMARK    1  A    between atoms: C_7  and  C_8 
REMARK    2  A    between atoms: C_8  and  C_9 
REMARK       I    between atoms: C_9  and  N_10 
REMARK    3  A    between atoms: N_10  and  C_11 
REMARK    4  A    between atoms: C_11  and  C_12 
REMARK    5  A    between atoms: C_19  and  C_20 
REMARK    6  A    between atoms: C_23  and  O_24 
ROOT
HETATM    1  C   UNL     1      40.644 -12.604   5.293  1.00  0.00     0.151 C 
HETATM    2  O   UNL     1      40.212 -13.666   6.192  1.00  0.00    -0.343 OA
HETATM    3  C   UNL     1      40.766 -14.804   5.680  1.00  0.00     0.075 A 
HETATM    4  C   UNL     1      41.644 -14.585   4.639  1.00  0.00    -0.021 A 
HETATM    5  C   UNL     1      41.768 -13.134   4.384  1.00  0.00     0.075 C 
HETATM    6  C   UNL     1      40.521 -16.072   6.160  1.00  0.00     0.038 A 
HETATM    7  C   UNL     1      41.187 -17.147   5.557  1.00  0.00     0.016 A 
HETATM    8  C   UNL     1      42.094 -16.958   4.484  1.00  0.00    -0.005 A 
HETATM    9  C   UNL     1      42.313 -15.638   4.035  1.00  0.00     0.024 A 
ENDROOT
BRANCH   1  10
HETATM   10  C   UNL     1      41.085 -11.406   6.147  1.00  0.00     0.155 C 
BRANCH  10  11
HETATM   11  N   UNL     1      40.620 -11.427   7.523  1.00  0.00    -0.359 N 
HETATM   12  C   UNL     1      41.140 -10.588   8.485  1.00  0.00     0.219 C 
HETATM   13  O   UNL     1      42.054  -9.803   8.265  1.00  0.00    -0.274 OA
HETATM   14  H   UNL     1      39.789 -11.966   7.737  1.00  0.00     0.162 HD
BRANCH  12  15
HETATM   15  C   UNL     1      40.458 -10.736   9.829  1.00  0.00     0.128 C 
BRANCH  15  16
HETATM   16  C   UNL     1      41.456 -10.874  10.983  1.00  0.00     0.094 C 
HETATM   17  N   UNL     1      42.707 -11.450  10.494  1.00  0.00    -0.362 N 
HETATM   18  C   UNL     1      43.912 -11.280  11.092  1.00  0.00     0.168 C 
HETATM   19  H   UNL     1      42.669 -12.235   9.854  1.00  0.00     0.162 HD
HETATM   20  N   UNL     1      44.002 -10.349  12.073  1.00  0.00    -0.363 N 
HETATM   21  S   UNL     1      45.238 -12.152  10.609  1.00  0.00    -0.041 SA
HETATM   22  C   UNL     1      42.862  -9.688  12.681  1.00  0.00     0.081 C 
HETATM   23  H   UNL     1      44.909 -10.263  12.515  1.00  0.00     0.162 HD
HETATM   24  C   UNL     1      42.413 -10.437  13.934  1.00  0.00     0.032 C 
HETATM   25  C   UNL     1      41.741  -9.525  11.655  1.00  0.00     0.050 C 
ENDBRANCH  15  16
ENDBRANCH  12  15
ENDBRANCH  10  11
ENDBRANCH   1  10
BRANCH   8  26
HETATM   26  C   UNL     1      42.814 -18.086   3.859  1.00  0.00     0.089 A 
HETATM   27  N   UNL     1      43.617 -18.810   4.679  1.00  0.00    -0.147 NA
HETATM   28  N   UNL     1      44.331 -19.881   4.199  1.00  0.00    -0.124 NA
HETATM   29  C   UNL     1      44.235 -20.215   2.899  1.00  0.00     0.185 A 
HETATM   30  C   UNL     1      43.437 -19.508   2.023  1.00  0.00     0.062 A 
HETATM   31  C   UNL     1      42.715 -18.421   2.512  1.00  0.00     0.038 A 
BRANCH  29  32
HETATM   32  O   UNL     1      44.937 -21.284   2.386  1.00  0.00    -0.338 OA
HETATM   33  C   UNL     1      44.167 -22.067   1.477  1.00  0.00     0.211 C 
ENDBRANCH  29  32
ENDBRANCH   8  26
TORSDOF 6
ENDMDL
MODEL 3
REMARK VINA RESULT:      -8.1      5.599      8.712
REMARK  6 active torsions:
REMARK  status: ('A' for Active; 'I' for Inactive)
REMARK    1  A    between atoms: C_7  and  C_8 
REMARK    2  A    between atoms: C_8  and  C_9 
REMARK       I    between atoms: C_9  and  N_10 
REMARK    3  A    between atoms: N_10  and  C_11 
REMARK    4  A    between atoms: C_11  and  C_12 
REMARK    5  A    between atoms: C_19  and  C_20 
REMARK    6  A    between atoms: C_23  and  O_24 
ROOT
HETATM    1  C   UNL     1      41.623 -12.127   5.278  1.00  0.00     0.151 C 
HETATM    2  O   UNL     1      40.490 -12.801   4.655  1.00  0.00    -0.343 OA
HETATM    3  C   UNL     1      40.980 -14.012   4.256  1.00  0.00     0.075 A 
HETATM    4  C   UNL     1      42.263 -14.272   4.690  1.00  0.00    -0.021 A 
HETATM    5  C   UNL     1      42.750 -13.148   5.517  1.00  0.00     0.075 C 
HETATM    6  C   UNL     1      40.270 -14.931   3.517  1.00  0.00     0.038 A 
HETATM    7  C   UNL     1      40.888 -16.150   3.208  1.00  0.00     0.016 A 
HETATM    8  C   UNL     1      42.206 -16.449   3.636  1.00  0.00    -0.005 A 
HETATM    9  C   UNL     1      42.887 -15.474   4.395  1.00  0.00     0.024 A 
ENDROOT
BRANCH   1  10
HETATM   10  C   UNL     1      41.132 -11.467   6.574  1.00  0.00     0.155 C 
BRANCH  10  11
HETATM   11  N   UNL     1      42.001 -11.648   7.724  1.00  0.00    -0.359 N 
HETATM   12  C   UNL     1      42.415 -10.589   8.504  1.00  0.00     0.219 C 
HETATM   13  O   UNL     1      42.120  -9.425   8.262  1.00  0.00    -0.274 OA
HETATM   14  H   UNL     1      42.179 -12.593   8.043  1.00  0.00     0.162 HD
BRANCH  12  15
HETATM   15  C   UNL     1      43.257 -11.020   9.686  1.00  0.00     0.128 C 
BRANCH  15  16
HETATM   16  C   UNL     1      42.815 -10.360  10.996  1.00  0.00     0.094 C 
HETATM   17  N   UNL     1      41.369 -10.145  10.981  1.00  0.00    -0.362 N 
HETATM   18  C   UNL     1      40.602 -10.035  12.094  1.00  0.00     0.168 C 
HETATM   19  H   UNL     1      40.935  -9.781  10.141  1.00  0.00     0.162 HD
HETATM   20  N   UNL     1      41.167 -10.358  13.282  1.00  0.00    -0.363 N 
HETATM   21  S   UNL     1      39.015  -9.562  11.995  1.00  0.00    -0.041 SA
HETATM   22  C   UNL     1      42.586 -10.592  13.477  1.00  0.00     0.081 C 
HETATM   23  H   UNL     1      40.575 -10.243  14.097  1.00  0.00     0.162 HD
HETATM   24  C   UNL     1      43.288  -9.305  13.907  1.00  0.00     0.032 C 
HETATM   25  C   UNL     1      43.195 -11.205  12.217  1.00  0.00     0.050 C 
ENDBRANCH  15  16
ENDBRANCH  12  15
ENDBRANCH  10  11
ENDBRANCH   1  10
BRANCH   8  26
HETATM   26  C   UNL     1      42.855 -17.740   3.330  1.00  0.00     0.089 A 
HETATM   27  N   UNL     1      43.591 -18.290   4.328  1.00  0.00    -0.147 NA
HETATM   28  N   UNL     1      44.236 -19.490   4.149  1.00  0.00    -0.124 NA
HETATM   29  C   UNL     1      44.137 -20.127   2.968  1.00  0.00     0.185 A 
HETATM   30  C   UNL     1      43.406 -19.608   1.920  1.00  0.00     0.062 A 
HETATM   31  C   UNL     1      42.754 -18.390   2.103  1.00  0.00     0.038 A 
BRANCH  29  32
HETATM   32  O   UNL     1      44.771 -21.333   2.756  1.00  0.00    -0.338 OA
HETATM   33  C   UNL     1      44.257 -22.037   1.628  1.00  0.00     0.211 C 
ENDBRANCH  29  32
ENDBRANCH   8  26
TORSDOF 6
ENDMDL
MODEL 4
REMARK VINA RESULT:      -8.0      3.262      6.508
REMARK  6 active torsions:
REMARK  status: ('A' for Active; 'I' for Inactive)
REMARK    1  A    between atoms: C_7  and  C_8 
REMARK    2  A    between atoms: C_8  and  C_9 
REMARK       I    between atoms: C_9  and  N_10 
REMARK    3  A    between atoms: N_10  and  C_11 
REMARK    4  A    between atoms: C_11  and  C_12 
REMARK    5  A    between atoms: C_19  and  C_20 
REMARK    6  A    between atoms: C_23  and  O_24 
ROOT
HETATM    1  C   UNL     1      41.093 -12.804   1.242  1.00  0.00     0.151 C 
HETATM    2  O   UNL     1      40.033 -13.786   1.437  1.00  0.00    -0.343 OA
HETATM    3  C   UNL     1      40.683 -14.942   1.763  1.00  0.00     0.075 A 
HETATM    4  C   UNL     1      42.039 -14.789   1.960  1.00  0.00    -0.021 A 
HETATM    5  C   UNL     1      42.415 -13.370   1.792  1.00  0.00     0.075 C 
HETATM    6  C   UNL     1      40.065 -16.162   1.924  1.00  0.00     0.038 A 
HETATM    7  C   UNL     1      40.853 -17.259   2.293  1.00  0.00     0.016 A 
HETATM    8  C   UNL     1      42.251 -17.139   2.502  1.00  0.00    -0.005 A 
HETATM    9  C   UNL     1      42.833 -15.865   2.329  1.00  0.00     0.024 A 
ENDROOT
BRANCH   1  10
HETATM   10  C   UNL     1      40.669 -11.501   1.935  1.00  0.00     0.155 C 
BRANCH  10  11
HETATM   11  N   UNL     1      41.140 -11.348   3.301  1.00  0.00    -0.359 N 
HETATM   12  C   UNL     1      40.505 -11.948   4.367  1.00  0.00     0.219 C 
HETATM   13  O   UNL     1      39.481 -12.609   4.249  1.00  0.00    -0.274 OA
HETATM   14  H   UNL     1      42.045 -10.916   3.447  1.00  0.00     0.162 HD
BRANCH  12  15
HETATM   15  C   UNL     1      41.210 -11.708   5.685  1.00  0.00     0.128 C 
BRANCH  15  16
HETATM   16  C   UNL     1      41.990 -12.936   6.167  1.00  0.00     0.094 C 
HETATM   17  N   UNL     1      41.140 -14.123   6.101  1.00  0.00    -0.362 N 
HETATM   18  C   UNL     1      41.607 -15.392   5.994  1.00  0.00     0.168 C 
HETATM   19  H   UNL     1      40.182 -14.060   6.426  1.00  0.00     0.162 HD
HETATM   20  N   UNL     1      42.922 -15.556   5.713  1.00  0.00    -0.363 N 
HETATM   21  S   UNL     1      40.592 -16.693   6.159  1.00  0.00    -0.041 SA
HETATM   22  C   UNL     1      43.906 -14.490   5.743  1.00  0.00     0.081 C 
HETATM   23  H   UNL     1      43.244 -16.516   5.662  1.00  0.00     0.162 HD
HETATM   24  C   UNL     1      44.581 -14.421   7.112  1.00  0.00     0.032 C 
HETATM   25  C   UNL     1      43.258 -13.167   5.336  1.00  0.00     0.050 C 
ENDBRANCH  15  16
ENDBRANCH  12  15
ENDBRANCH  10  11
ENDBRANCH   1  10
BRANCH   8  26
HETATM   26  C   UNL     1      43.084 -18.288   2.911  1.00  0.00     0.089 A 
HETATM   27  N   UNL     1      43.679 -18.191   4.126  1.00  0.00    -0.147 NA
HETATM   28  N   UNL     1      44.474 -19.205   4.603  1.00  0.00    -0.124 NA
HETATM   29  C   UNL     1      44.667 -20.307   3.854  1.00  0.00     0.185 A 
HETATM   30  C   UNL     1      44.088 -20.451   2.610  1.00  0.00     0.062 A 
HETATM   31  C   UNL     1      43.283 -19.421   2.128  1.00  0.00     0.038 A 
BRANCH  29  32
HETATM   32  O   UNL     1      45.458 -21.342   4.304  1.00  0.00    -0.338 OA
HETATM   33  C   UNL     1      44.805 -22.155   5.275  1.00  0.00     0.211 C 
ENDBRANCH  29  32
ENDBRANCH   8  26
TORSDOF 6
ENDMDL
MODEL 5
REMARK VINA RESULT:      -7.8      4.831      8.315
REMARK  6 active torsions:
REMARK  status: ('A' for Active; 'I' for Inactive)
REMARK    1  A    between atoms: C_7  and  C_8 
REMARK    2  A    between atoms: C_8  and  C_9 
REMARK       I    between atoms: C_9  and  N_10 
REMARK    3  A    between atoms: N_10  and  C_11 
REMARK    4  A    between atoms: C_11  and  C_12 
REMARK    5  A    between atoms: C_19  and  C_20 
REMARK    6  A    between atoms: C_23  and  O_24 
ROOT
HETATM    1  C   UNL     1      42.189 -12.482   4.305  1.00  0.00     0.151 C 
HETATM    2  O   UNL     1      41.897 -12.877   2.933  1.00  0.00    -0.343 OA
HETATM    3  C   UNL     1      42.311 -14.176   2.849  1.00  0.00     0.075 A 
HETATM    4  C   UNL     1      42.694 -14.726   4.054  1.00  0.00    -0.021 A 
HETATM    5  C   UNL     1      42.512 -13.736   5.137  1.00  0.00     0.075 C 
HETATM    6  C   UNL     1      42.324 -14.913   1.685  1.00  0.00     0.038 A 
HETATM    7  C   UNL     1      42.743 -16.247   1.753  1.00  0.00     0.016 A 
HETATM    8  C   UNL     1      43.146 -16.844   2.974  1.00  0.00    -0.005 A 
HETATM    9  C   UNL     1      43.108 -16.046   4.137  1.00  0.00     0.024 A 
ENDROOT
BRANCH   1  10
HETATM   10  C   UNL     1      40.980 -11.704   4.846  1.00  0.00     0.155 C 
BRANCH  10  11
HETATM   11  N   UNL     1      41.302 -10.625   5.763  1.00  0.00    -0.359 N 
HETATM   12  C   UNL     1      40.836 -10.601   7.059  1.00  0.00     0.219 C 
HETATM   13  O   UNL     1      40.087 -11.455   7.517  1.00  0.00    -0.274 OA
HETATM   14  H   UNL     1      42.010  -9.957   5.482  1.00  0.00     0.162 HD
BRANCH  12  15
HETATM   15  C   UNL     1      41.354  -9.419   7.851  1.00  0.00     0.128 C 
BRANCH  15  16
HETATM   16  C   UNL     1      42.087  -9.841   9.128  1.00  0.00     0.094 C 
HETATM   17  N   UNL     1      41.120 -10.254  10.144  1.00  0.00    -0.362 N 
HETATM   18  C   UNL     1      41.400 -11.098  11.167  1.00  0.00     0.168 C 
HETATM   19  H   UNL     1      40.286  -9.695  10.284  1.00  0.00     0.162 HD
HETATM   20  N   UNL     1      42.577 -11.768  11.127  1.00  0.00    -0.363 N 
HETATM   21  S   UNL     1      40.318 -11.332  12.403  1.00  0.00    -0.041 SA
HETATM   22  C   UNL     1      43.650 -11.480  10.193  1.00  0.00     0.081 C 
HETATM   23  H   UNL     1      42.766 -12.373  11.917  1.00  0.00     0.162 HD
HETATM   24  C   UNL     1      44.647 -10.500  10.809  1.00  0.00     0.032 C 
HETATM   25  C   UNL     1      43.075 -10.985   8.868  1.00  0.00     0.050 C 
ENDBRANCH  15  16
ENDBRANCH  12  15
ENDBRANCH  10  11
ENDBRANCH   1  10
BRANCH   8  26
HETATM   26  C   UNL     1      43.569 -18.257   3.055  1.00  0.00     0.089 A 
HETATM   27  N   UNL     1      44.139 -18.644   4.224  1.00  0.00    -0.147 NA
HETATM   28  N   UNL     1      44.567 -19.937   4.404  1.00  0.00    -0.124 NA
HETATM   29  C   UNL     1      44.422 -20.830   3.407  1.00  0.00     0.185 A 
HETATM   30  C   UNL     1      43.855 -20.485   2.198  1.00  0.00     0.062 A 
HETATM   31  C   UNL     1      43.422 -19.173   2.017  1.00  0.00     0.038 A 
BRANCH  29  32
HETATM   32  O   UNL     1      44.841 -22.135   3.556  1.00  0.00    -0.338 OA
HETATM   33  C   UNL     1      45.034 -22.502   4.920  1.00  0.00     0.211 C 
ENDBRANCH  29  32
ENDBRANCH   8  26
TORSDOF 6
ENDMDL
MODEL 6
REMARK VINA RESULT:      -7.7      2.787      6.813
REMARK  6 active torsions:
REMARK  status: ('A' for Active; 'I' for Inactive)
REMARK    1  A    between atoms: C_7  and  C_8 
REMARK    2  A    between atoms: C_8  and  C_9 
REMARK       I    between atoms: C_9  and  N_10 
REMARK    3  A    between atoms: N_10  and  C_11 
REMARK    4  A    between atoms: C_11  and  C_12 
REMARK    5  A    between atoms: C_19  and  C_20 
REMARK    6  A    between atoms: C_23  and  O_24 
ROOT
HETATM    1  C   UNL     1      39.855 -13.010   5.630  1.00  0.00     0.151 C 
HETATM    2  O   UNL     1      41.262 -12.718   5.873  1.00  0.00    -0.343 OA
HETATM    3  C   UNL     1      41.905 -13.904   5.661  1.00  0.00     0.075 A 
HETATM    4  C   UNL     1      41.100 -14.900   5.152  1.00  0.00    -0.021 A 
HETATM    5  C   UNL     1      39.732 -14.380   4.940  1.00  0.00     0.075 C 
HETATM    6  C   UNL     1      43.248 -14.111   5.891  1.00  0.00     0.038 A 
HETATM    7  C   UNL     1      43.782 -15.372   5.596  1.00  0.00     0.016 A 
HETATM    8  C   UNL     1      42.982 -16.420   5.074  1.00  0.00    -0.005 A 
HETATM    9  C   UNL     1      41.614 -16.152   4.852  1.00  0.00     0.024 A 
ENDROOT
BRANCH   1  10
HETATM   10  C   UNL     1      39.268 -11.866   4.790  1.00  0.00     0.155 C 
BRANCH  10  11
HETATM   11  N   UNL     1      39.063 -12.176   3.386  1.00  0.00    -0.359 N 
HETATM   12  C   UNL     1      40.052 -11.996   2.443  1.00  0.00     0.219 C 
HETATM   13  O   UNL     1      41.150 -11.524   2.708  1.00  0.00    -0.274 OA
HETATM   14  H   UNL     1      38.222 -12.679   3.127  1.00  0.00     0.162 HD
BRANCH  12  15
HETATM   15  C   UNL     1      39.638 -12.450   1.059  1.00  0.00     0.128 C 
BRANCH  15  16
HETATM   16  C   UNL     1      39.989 -13.916   0.791  1.00  0.00     0.094 C 
HETATM   17  N   UNL     1      40.182 -14.128  -0.642  1.00  0.00    -0.362 N 
HETATM   18  C   UNL     1      40.931 -15.127  -1.173  1.00  0.00     0.168 C 
HETATM   19  H   UNL     1      39.527 -13.710  -1.293  1.00  0.00     0.162 HD
HETATM   20  N   UNL     1      41.720 -15.837  -0.331  1.00  0.00    -0.363 N 
HETATM   21  S   UNL     1      40.911 -15.436  -2.803  1.00  0.00    -0.041 SA
HETATM   22  C   UNL     1      41.652 -15.758   1.116  1.00  0.00     0.081 C 
HETATM   23  H   UNL     1      42.249 -16.590  -0.755  1.00  0.00     0.162 HD
HETATM   24  C   UNL     1      40.719 -16.834   1.669  1.00  0.00     0.032 C 
HETATM   25  C   UNL     1      41.251 -14.348   1.547  1.00  0.00     0.050 C 
ENDBRANCH  15  16
ENDBRANCH  12  15
ENDBRANCH  10  11
ENDBRANCH   1  10
BRANCH   8  26
HETATM   26  C   UNL     1      43.544 -17.745   4.742  1.00  0.00     0.089 A 
HETATM   27  N   UNL     1      43.989 -18.483   5.790  1.00  0.00    -0.147 NA
HETATM   28  N   UNL     1      44.529 -19.731   5.593  1.00  0.00    -0.124 NA
HETATM   29  C   UNL     1      44.621 -20.226   4.344  1.00  0.00     0.185 A 
HETATM   30  C   UNL     1      44.188 -19.512   3.245  1.00  0.00     0.062 A 
HETATM   31  C   UNL     1      43.641 -18.247   3.448  1.00  0.00     0.038 A 
BRANCH  29  32
HETATM   32  O   UNL     1      45.157 -21.474   4.111  1.00  0.00    -0.338 OA
HETATM   33  C   UNL     1      45.059 -22.337   5.241  1.00  0.00     0.211 C 
ENDBRANCH  29  32
ENDBRANCH   8  26
TORSDOF 6
ENDMDL
MODEL 7
REMARK VINA RESULT:      -7.5      4.910      8.407
REMARK  6 active torsions:
REMARK  status: ('A' for Active; 'I' for Inactive)
REMARK    1  A    between atoms: C_7  and  C_8 
REMARK    2  A    between atoms: C_8  and  C_9 
REMARK       I    between atoms: C_9  and  N_10 
REMARK    3  A    between atoms: N_10  and  C_11 
REMARK    4  A    between atoms: C_11  and  C_12 
REMARK    5  A    between atoms: C_19  and  C_20 
REMARK    6  A    between atoms: C_23  and  O_24 
ROOT
HETATM    1  C   UNL     1      42.105 -12.467   4.725  1.00  0.00     0.151 C 
HETATM    2  O   UNL     1      41.820 -12.781   3.330  1.00  0.00    -0.343 OA
HETATM    3  C   UNL     1      42.256 -14.065   3.166  1.00  0.00     0.075 A 
HETATM    4  C   UNL     1      42.646 -14.682   4.335  1.00  0.00    -0.021 A 
HETATM    5  C   UNL     1      42.447 -13.766   5.477  1.00  0.00     0.075 C 
HETATM    6  C   UNL     1      42.282 -14.727   1.958  1.00  0.00     0.038 A 
HETATM    7  C   UNL     1      42.722 -16.056   1.943  1.00  0.00     0.016 A 
HETATM    8  C   UNL     1      43.133 -16.722   3.126  1.00  0.00    -0.005 A 
HETATM    9  C   UNL     1      43.082 -15.999   4.337  1.00  0.00     0.024 A 
ENDROOT
BRANCH   1  10
HETATM   10  C   UNL     1      40.883 -11.744   5.310  1.00  0.00     0.155 C 
BRANCH  10  11
HETATM   11  N   UNL     1      41.160 -10.898   6.458  1.00  0.00    -0.359 N 
HETATM   12  C   UNL     1      40.269 -10.762   7.501  1.00  0.00     0.219 C 
HETATM   13  O   UNL     1      39.170 -11.303   7.516  1.00  0.00    -0.274 OA
HETATM   14  H   UNL     1      42.095 -10.523   6.558  1.00  0.00     0.162 HD
BRANCH  12  15
HETATM   15  C   UNL     1      40.796  -9.886   8.618  1.00  0.00     0.128 C 
BRANCH  15  16
HETATM   16  C   UNL     1      41.066 -10.672   9.904  1.00  0.00     0.094 C 
HETATM   17  N   UNL     1      42.435 -11.185   9.895  1.00  0.00    -0.362 N 
HETATM   18  C   UNL     1      43.142 -11.496  11.010  1.00  0.00     0.168 C 
HETATM   19  H   UNL     1      42.798 -11.601   9.045  1.00  0.00     0.162 HD
HETATM   20  N   UNL     1      42.635 -11.106  12.205  1.00  0.00    -0.363 N 
HETATM   21  S   UNL     1      44.596 -12.287  10.908  1.00  0.00    -0.041 SA
HETATM   22  C   UNL     1      41.294 -10.586  12.395  1.00  0.00     0.081 C 
HETATM   23  H   UNL     1      43.176 -11.373  13.020  1.00  0.00     0.162 HD
HETATM   24  C   UNL     1      40.330 -11.712  12.766  1.00  0.00     0.032 C 
HETATM   25  C   UNL     1      40.850  -9.812  11.155  1.00  0.00     0.050 C 
ENDBRANCH  15  16
ENDBRANCH  12  15
ENDBRANCH  10  11
ENDBRANCH   1  10
BRANCH   8  26
HETATM   26  C   UNL     1      43.580 -18.129   3.119  1.00  0.00     0.089 A 
HETATM   27  N   UNL     1      44.192 -18.568   4.247  1.00  0.00    -0.147 NA
HETATM   28  N   UNL     1      44.645 -19.861   4.346  1.00  0.00    -0.124 NA
HETATM   29  C   UNL     1      44.481 -20.703   3.309  1.00  0.00     0.185 A 
HETATM   30  C   UNL     1      43.870 -20.305   2.138  1.00  0.00     0.062 A 
HETATM   31  C   UNL     1      43.413 -18.993   2.040  1.00  0.00     0.038 A 
BRANCH  29  32
HETATM   32  O   UNL     1      44.923 -22.007   3.376  1.00  0.00    -0.338 OA
HETATM   33  C   UNL     1      44.619 -22.631   4.621  1.00  0.00     0.211 C 
ENDBRANCH  29  32
ENDBRANCH   8  26
TORSDOF 6
ENDMDL
MODEL 8
REMARK VINA RESULT:      -7.5      2.657      6.966
REMARK  6 active torsions:
REMARK  status: ('A' for Active; 'I' for Inactive)
REMARK    1  A    between atoms: C_7  and  C_8 
REMARK    2  A    between atoms: C_8  and  C_9 
REMARK       I    between atoms: C_9  and  N_10 
REMARK    3  A    between atoms: N_10  and  C_11 
REMARK    4  A    between atoms: C_11  and  C_12 
REMARK    5  A    between atoms: C_19  and  C_20 
REMARK    6  A    between atoms: C_23  and  O_24 
ROOT
HETATM    1  C   UNL     1      40.251 -12.879   4.657  1.00  0.00     0.151 C 
HETATM    2  O   UNL     1      41.464 -12.647   3.882  1.00  0.00    -0.343 OA
HETATM    3  C   UNL     1      42.068 -13.870   3.806  1.00  0.00     0.075 A 
HETATM    4  C   UNL     1      41.309 -14.906   4.306  1.00  0.00    -0.021 A 
HETATM    5  C   UNL     1      40.002 -14.394   4.767  1.00  0.00     0.075 C 
HETATM    6  C   UNL     1      43.310 -14.089   3.252  1.00  0.00     0.038 A 
HETATM    7  C   UNL     1      43.793 -15.403   3.211  1.00  0.00     0.016 A 
HETATM    8  C   UNL     1      43.040 -16.493   3.718  1.00  0.00    -0.005 A 
HETATM    9  C   UNL     1      41.772 -16.213   4.269  1.00  0.00     0.024 A 
ENDROOT
BRANCH   1  10
HETATM   10  C   UNL     1      39.097 -12.134   3.971  1.00  0.00     0.155 C 
BRANCH  10  11
HETATM   11  N   UNL     1      39.326 -11.795   2.577  1.00  0.00    -0.359 N 
HETATM   12  C   UNL     1      38.908 -12.609   1.546  1.00  0.00     0.219 C 
HETATM   13  O   UNL     1      38.359 -13.689   1.728  1.00  0.00    -0.274 OA
HETATM   14  H   UNL     1      39.665 -10.865   2.362  1.00  0.00     0.162 HD
BRANCH  12  15
HETATM   15  C   UNL     1      39.191 -12.024   0.179  1.00  0.00     0.128 C 
BRANCH  15  16
HETATM   16  C   UNL     1      40.384 -12.692  -0.511  1.00  0.00     0.094 C 
HETATM   17  N   UNL     1      40.602 -14.024   0.051  1.00  0.00    -0.362 N 
HETATM   18  C   UNL     1      41.224 -15.036  -0.603  1.00  0.00     0.168 C 
HETATM   19  H   UNL     1      40.555 -14.146   1.056  1.00  0.00     0.162 HD
HETATM   20  N   UNL     1      41.463 -14.877  -1.927  1.00  0.00    -0.363 N 
HETATM   21  S   UNL     1      41.637 -16.437   0.185  1.00  0.00    -0.041 SA
HETATM   22  C   UNL     1      41.310 -13.624  -2.642  1.00  0.00     0.081 C 
HETATM   23  H   UNL     1      41.949 -15.642  -2.381  1.00  0.00     0.162 HD
HETATM   24  C   UNL     1      42.635 -12.865  -2.683  1.00  0.00     0.032 C 
HETATM   25  C   UNL     1      40.177 -12.804  -2.027  1.00  0.00     0.050 C 
ENDBRANCH  15  16
ENDBRANCH  12  15
ENDBRANCH  10  11
ENDBRANCH   1  10
BRANCH   8  26
HETATM   26  C   UNL     1      43.536 -17.883   3.659  1.00  0.00     0.089 A 
HETATM   27  N   UNL     1      43.925 -18.428   4.838  1.00  0.00    -0.147 NA
HETATM   28  N   UNL     1      44.401 -19.716   4.895  1.00  0.00    -0.124 NA
HETATM   29  C   UNL     1      44.484 -20.444   3.766  1.00  0.00     0.185 A 
HETATM   30  C   UNL     1      44.106 -19.934   2.542  1.00  0.00     0.062 A 
HETATM   31  C   UNL     1      43.625 -18.627   2.486  1.00  0.00     0.038 A 
BRANCH  29  32
HETATM   32  O   UNL     1      44.956 -21.739   3.789  1.00  0.00    -0.338 OA
HETATM   33  C   UNL     1      44.987 -22.294   5.101  1.00  0.00     0.211 C 
ENDBRANCH  29  32
ENDBRANCH   8  26
TORSDOF 6
ENDMDL
MODEL 9
REMARK VINA RESULT:      -7.4      4.798      7.027
REMARK  6 active torsions:
REMARK  status: ('A' for Active; 'I' for Inactive)
REMARK    1  A    between atoms: C_7  and  C_8 
REMARK    2  A    between atoms: C_8  and  C_9 
REMARK       I    between atoms: C_9  and  N_10 
REMARK    3  A    between atoms: N_10  and  C_11 
REMARK    4  A    between atoms: C_11  and  C_12 
REMARK    5  A    between atoms: C_19  and  C_20 
REMARK    6  A    between atoms: C_23  and  O_24 
ROOT
HETATM    1  C   UNL     1      43.283 -14.274   6.251  1.00  0.00     0.151 C 
HETATM    2  O   UNL     1      43.703 -15.533   5.647  1.00  0.00    -0.343 OA
HETATM    3  C   UNL     1      43.156 -15.519   4.396  1.00  0.00     0.075 A 
HETATM    4  C   UNL     1      42.559 -14.324   4.054  1.00  0.00    -0.021 A 
HETATM    5  C   UNL     1      42.713 -13.353   5.158  1.00  0.00     0.075 C 
HETATM    6  C   UNL     1      43.209 -16.575   3.514  1.00  0.00     0.038 A 
HETATM    7  C   UNL     1      42.633 -16.409   2.248  1.00  0.00     0.016 A 
HETATM    8  C   UNL     1      42.009 -15.195   1.864  1.00  0.00    -0.005 A 
HETATM    9  C   UNL     1      41.987 -14.143   2.804  1.00  0.00     0.024 A 
ENDROOT
BRANCH   1  10
HETATM   10  C   UNL     1      44.494 -13.663   6.972  1.00  0.00     0.155 C 
BRANCH  10  11
HETATM   11  N   UNL     1      44.378 -13.593   8.418  1.00  0.00    -0.359 N 
HETATM   12  C   UNL     1      44.688 -12.450   9.124  1.00  0.00     0.219 C 
HETATM   13  O   UNL     1      45.123 -11.435   8.595  1.00  0.00    -0.274 OA
HETATM   14  H   UNL     1      43.912 -14.355   8.896  1.00  0.00     0.162 HD
BRANCH  12  15
HETATM   15  C   UNL     1      44.426 -12.584  10.609  1.00  0.00     0.128 C 
BRANCH  15  16
HETATM   16  C   UNL     1      43.520 -11.473  11.149  1.00  0.00     0.094 C 
HETATM   17  N   UNL     1      42.293 -11.404  10.358  1.00  0.00    -0.362 N 
HETATM   18  C   UNL     1      41.119 -10.899  10.812  1.00  0.00     0.168 C 
HETATM   19  H   UNL     1      42.355 -11.463   9.348  1.00  0.00     0.162 HD
HETATM   20  N   UNL     1      41.015 -10.645  12.139  1.00  0.00    -0.363 N 
HETATM   21  S   UNL     1      39.843 -10.643   9.783  1.00  0.00    -0.041 SA
HETATM   22  C   UNL     1      42.132 -10.658  13.066  1.00  0.00     0.081 C 
HETATM   23  H   UNL     1      40.133 -10.247  12.443  1.00  0.00     0.162 HD
HETATM   24  C   UNL     1      42.722  -9.258  13.215  1.00  0.00     0.032 C 
HETATM   25  C   UNL     1      43.166 -11.693  12.625  1.00  0.00     0.050 C 
ENDBRANCH  15  16
ENDBRANCH  12  15
ENDBRANCH  10  11
ENDBRANCH   1  10
BRANCH   8  26
HETATM   26  C   UNL     1      41.418 -15.007   0.524  1.00  0.00     0.089 A 
HETATM   27  N   UNL     1      40.763 -13.836   0.318  1.00  0.00    -0.147 NA
HETATM   28  N   UNL     1      40.178 -13.560  -0.894  1.00  0.00    -0.124 NA
HETATM   29  C   UNL     1      40.252 -14.463  -1.889  1.00  0.00     0.185 A 
HETATM   30  C   UNL     1      40.901 -15.670  -1.729  1.00  0.00     0.062 A 
HETATM   31  C   UNL     1      41.493 -15.948  -0.499  1.00  0.00     0.038 A 
BRANCH  29  32
HETATM   32  O   UNL     1      39.677 -14.217  -3.117  1.00  0.00    -0.338 OA
HETATM   33  C   UNL     1      38.287 -14.531  -3.149  1.00  0.00     0.211 C 
ENDBRANCH  29  32
ENDBRANCH   8  26
TORSDOF 6
ENDMDL
MODEL 10
REMARK VINA RESULT:      -7.2      3.228      4.977
REMARK  6 active torsions:
REMARK  status: ('A' for Active; 'I' for Inactive)
REMARK    1  A    between atoms: C_7  and  C_8 
REMARK    2  A    between atoms: C_8  and  C_9 
REMARK       I    between atoms: C_9  and  N_10 
REMARK    3  A    between atoms: N_10  and  C_11 
REMARK    4  A    between atoms: C_11  and  C_12 
REMARK    5  A    between atoms: C_19  and  C_20 
REMARK    6  A    between atoms: C_23  and  O_24 
ROOT
HETATM    1  C   UNL     1      42.062 -18.065   5.348  1.00  0.00     0.151 C 
HETATM    2  O   UNL     1      43.240 -18.078   4.490  1.00  0.00    -0.343 OA
HETATM    3  C   UNL     1      42.810 -17.566   3.299  1.00  0.00     0.075 A 
HETATM    4  C   UNL     1      41.523 -17.071   3.329  1.00  0.00    -0.021 A 
HETATM    5  C   UNL     1      40.966 -17.206   4.691  1.00  0.00     0.075 C 
HETATM    6  C   UNL     1      43.580 -17.502   2.158  1.00  0.00     0.038 A 
HETATM    7  C   UNL     1      43.018 -16.919   1.015  1.00  0.00     0.016 A 
HETATM    8  C   UNL     1      41.698 -16.402   1.010  1.00  0.00    -0.005 A 
HETATM    9  C   UNL     1      40.956 -16.489   2.207  1.00  0.00     0.024 A 
ENDROOT
BRANCH   1  10
HETATM   10  C   UNL     1      42.482 -17.539   6.728  1.00  0.00     0.155 C 
BRANCH  10  11
HETATM   11  N   UNL     1      42.658 -16.100   6.812  1.00  0.00    -0.359 N 
HETATM   12  C   UNL     1      43.898 -15.506   6.724  1.00  0.00     0.219 C 
HETATM   13  O   UNL     1      44.939 -16.143   6.617  1.00  0.00    -0.274 OA
HETATM   14  H   UNL     1      41.830 -15.516   6.780  1.00  0.00     0.162 HD
BRANCH  12  15
HETATM   15  C   UNL     1      43.834 -13.994   6.767  1.00  0.00     0.128 C 
BRANCH  15  16
HETATM   16  C   UNL     1      42.582 -13.439   6.081  1.00  0.00     0.094 C 
HETATM   17  N   UNL     1      42.170 -12.195   6.728  1.00  0.00    -0.362 N 
HETATM   18  C   UNL     1      41.436 -11.227   6.125  1.00  0.00     0.168 C 
HETATM   19  H   UNL     1      42.171 -12.144   7.741  1.00  0.00     0.162 HD
HETATM   20  N   UNL     1      41.259 -11.314   4.785  1.00  0.00    -0.363 N 
HETATM   21  S   UNL     1      40.816  -9.957   6.995  1.00  0.00    -0.041 SA
HETATM   22  C   UNL     1      41.601 -12.478   3.988  1.00  0.00     0.081 C 
HETATM   23  H   UNL     1      40.687 -10.588   4.369  1.00  0.00     0.162 HD
HETATM   24  C   UNL     1      40.392 -13.401   3.841  1.00  0.00     0.032 C 
HETATM   25  C   UNL     1      42.815 -13.186   4.587  1.00  0.00     0.050 C 
ENDBRANCH  15  16
ENDBRANCH  12  15
ENDBRANCH  10  11
ENDBRANCH   1  10
BRANCH   8  26
HETATM   26  C   UNL     1      41.109 -15.769  -0.187  1.00  0.00     0.089 A 
HETATM   27  N   UNL     1      40.312 -14.694   0.037  1.00  0.00    -0.147 NA
HETATM   28  N   UNL     1      39.715 -14.030  -1.007  1.00  0.00    -0.124 NA
HETATM   29  C   UNL     1      39.922 -14.453  -2.268  1.00  0.00     0.185 A 
HETATM   30  C   UNL     1      40.719 -15.543  -2.549  1.00  0.00     0.062 A 
HETATM   31  C   UNL     1      41.322 -16.216  -1.488  1.00  0.00     0.038 A 
BRANCH  29  32
HETATM   32  O   UNL     1      39.338 -13.808  -3.338  1.00  0.00    -0.338 OA
HETATM   33  C   UNL     1      37.964 -14.146  -3.505  1.00  0.00     0.211 C 
ENDBRANCH  29  32
ENDBRANCH   8  26
TORSDOF 6
ENDMDL
