MODEL 1
REMARK VINA RESULT:     -10.4      0.000      0.000
REMARK  6 active torsions:
REMARK  status: ('A' for Active; 'I' for Inactive)
REMARK       I    between atoms: N_1  and  C_2 
REMARK    1  A    between atoms: C_2  and  C_4 
REMARK    2  A    between atoms: C_7  and  N_8 
REMARK       I    between atoms: N_8  and  C_9 
REMARK       I    between atoms: C_9  and  N_11 
REMARK    3  A    between atoms: N_11  and  C_12 
REMARK    4  A    between atoms: C_12  and  C_13 
REMARK    5  A    between atoms: C_17  and  C_19 
REMARK       I    between atoms: C_19  and  N_21 
REMARK    6  A    between atoms: N_21  and  C_22 
ROOT
HETATM    1  C   UNL     1      43.518 -13.224   6.887  1.00  0.00    -0.040 A 
HETATM    2  C   UNL     1      42.514 -12.285   6.611  1.00  0.00     0.009 A 
HETATM    3  C   UNL     1      41.487 -12.595   5.723  1.00  0.00     0.002 A 
HETATM    4  C   UNL     1      41.445 -13.851   5.117  1.00  0.00     0.017 A 
HETATM    5  C   UNL     1      42.426 -14.814   5.396  1.00  0.00     0.032 A 
HETATM    6  C   UNL     1      43.468 -14.489   6.275  1.00  0.00     0.026 A 
ENDROOT
BRANCH   1   7
HETATM    7  C   UNL     1      44.622 -12.894   7.860  1.00  0.00     0.162 C 
BRANCH   7   8
HETATM    8  N   UNL     1      44.146 -12.943   9.225  1.00  0.00    -0.339 N 
HETATM    9  C   UNL     1      43.895 -11.788   9.935  1.00  0.00     0.320 C 
HETATM   10  N   UNL     1      43.415 -12.085  11.192  1.00  0.00    -0.309 N 
HETATM   11  O   UNL     1      44.059 -10.674   9.455  1.00  0.00    -0.247 OA
HETATM   12  H   UNL     1      43.245 -13.062  11.374  1.00  0.00     0.170 HD
HETATM   13  H   UNL     1      44.404 -13.760   9.757  1.00  0.00     0.164 HD
BRANCH  10  14
HETATM   14  C   UNL     1      42.999 -11.183  12.194  1.00  0.00     0.036 A 
HETATM   15  C   UNL     1      43.791 -10.144  12.686  1.00  0.00     0.030 A 
HETATM   16  C   UNL     1      43.295  -9.270  13.663  1.00  0.00     0.019 A 
HETATM   17  C   UNL     1      41.996  -9.428  14.157  1.00  0.00     0.032 A 
HETATM   18  C   UNL     1      41.211 -10.486  13.688  1.00  0.00     0.019 A 
HETATM   19  C   UNL     1      41.710 -11.355  12.711  1.00  0.00     0.030 A 
BRANCH  17  20
HETATM   20  C   UNL     1      41.417  -8.518  15.180  1.00  0.00     0.249 C 
HETATM   21  N   UNL     1      42.192  -8.207  16.262  1.00  0.00    -0.366 N 
HETATM   22  H   UNL     1      41.821  -7.504  16.890  1.00  0.00     0.159 HD
HETATM   23  H   UNL     1      43.184  -8.389  16.296  1.00  0.00     0.159 HD
HETATM   24  O   UNL     1      40.302  -8.028  15.046  1.00  0.00    -0.268 OA
ENDBRANCH  17  20
ENDBRANCH  10  14
ENDBRANCH   7   8
ENDBRANCH   1   7
BRANCH   5  25
HETATM   25  C   UNL     1      42.309 -16.140   4.710  1.00  0.00     0.256 C 
HETATM   26  O   UNL     1      41.199 -16.661   4.671  1.00  0.00    -0.267 OA
HETATM   27  N   UNL     1      43.480 -16.673   4.197  1.00  0.00    -0.323 N 
HETATM   28  H   UNL     1      44.332 -16.143   4.313  1.00  0.00     0.169 HD
BRANCH  27  29
HETATM   29  C   UNL     1      43.637 -17.926   3.562  1.00  0.00     0.035 A 
HETATM   30  C   UNL     1      43.331 -18.166   2.222  1.00  0.00     0.030 A 
HETATM   31  C   UNL     1      43.492 -19.441   1.671  1.00  0.00     0.010 A 
HETATM   32  C   UNL     1      43.980 -20.495   2.448  1.00  0.00    -0.048 A 
HETATM   33  C   UNL     1      44.105 -21.878   1.860  1.00  0.00     0.069 C 
HETATM   34  C   UNL     1      44.288 -20.274   3.800  1.00  0.00    -0.022 A 
HETATM   35  C   UNL     1      45.008 -22.786   2.702  1.00  0.00     0.274 C 
HETATM   36  N   UNL     1      44.639 -22.728   4.119  1.00  0.00     0.087 N 
HETATM   37  C   UNL     1      44.871 -21.379   4.650  1.00  0.00     0.308 C 
HETATM   38  H   UNL     1      45.207 -23.390   4.645  1.00  0.00     0.316 HD
HETATM   39  C   UNL     1      44.118 -18.987   4.343  1.00  0.00     0.039 A 
ENDBRANCH  27  29
ENDBRANCH   5  25
TORSDOF 6
ENDMDL
MODEL 2
REMARK VINA RESULT:     -10.1      2.180     12.217
REMARK  6 active torsions:
REMARK  status: ('A' for Active; 'I' for Inactive)
REMARK       I    between atoms: N_1  and  C_2 
REMARK    1  A    between atoms: C_2  and  C_4 
REMARK    2  A    between atoms: C_7  and  N_8 
REMARK       I    between atoms: N_8  and  C_9 
REMARK       I    between atoms: C_9  and  N_11 
REMARK    3  A    between atoms: N_11  and  C_12 
REMARK    4  A    between atoms: C_12  and  C_13 
REMARK    5  A    between atoms: C_17  and  C_19 
REMARK       I    between atoms: C_19  and  N_21 
REMARK    6  A    between atoms: N_21  and  C_22 
ROOT
HETATM    1  C   UNL     1      40.704 -12.864   4.925  1.00  0.00    -0.040 A 
HETATM    2  C   UNL     1      40.588 -12.067   3.779  1.00  0.00     0.009 A 
HETATM    3  C   UNL     1      40.822 -10.694   3.849  1.00  0.00     0.002 A 
HETATM    4  C   UNL     1      41.189 -10.113   5.063  1.00  0.00     0.017 A 
HETATM    5  C   UNL     1      41.333 -10.895   6.219  1.00  0.00     0.032 A 
HETATM    6  C   UNL     1      41.077 -12.271   6.145  1.00  0.00     0.026 A 
ENDROOT
BRANCH   1   7
HETATM    7  C   UNL     1      40.466 -14.351   4.846  1.00  0.00     0.162 C 
BRANCH   7   8
HETATM    8  N   UNL     1      41.575 -15.023   4.206  1.00  0.00    -0.339 N 
HETATM    9  C   UNL     1      41.753 -16.384   4.332  1.00  0.00     0.320 C 
HETATM   10  N   UNL     1      42.848 -16.801   3.607  1.00  0.00    -0.309 N 
HETATM   11  O   UNL     1      40.992 -17.089   4.983  1.00  0.00    -0.247 OA
HETATM   12  H   UNL     1      43.293 -16.093   3.044  1.00  0.00     0.170 HD
HETATM   13  H   UNL     1      42.401 -14.467   4.048  1.00  0.00     0.164 HD
BRANCH  10  14
HETATM   14  C   UNL     1      43.327 -18.118   3.443  1.00  0.00     0.036 A 
HETATM   15  C   UNL     1      44.112 -18.786   4.385  1.00  0.00     0.030 A 
HETATM   16  C   UNL     1      44.526 -20.105   4.163  1.00  0.00     0.019 A 
HETATM   17  C   UNL     1      44.155 -20.773   2.991  1.00  0.00     0.032 A 
HETATM   18  C   UNL     1      43.394 -20.097   2.032  1.00  0.00     0.019 A 
HETATM   19  C   UNL     1      42.982 -18.780   2.259  1.00  0.00     0.030 A 
BRANCH  17  20
HETATM   20  C   UNL     1      44.553 -22.179   2.715  1.00  0.00     0.249 C 
HETATM   21  N   UNL     1      44.830 -22.981   3.786  1.00  0.00    -0.366 N 
HETATM   22  H   UNL     1      44.993 -23.959   3.582  1.00  0.00     0.159 HD
HETATM   23  H   UNL     1      44.581 -22.736   4.734  1.00  0.00     0.159 HD
HETATM   24  O   UNL     1      44.594 -22.621   1.574  1.00  0.00    -0.268 OA
ENDBRANCH  17  20
ENDBRANCH  10  14
ENDBRANCH   7   8
ENDBRANCH   1   7
BRANCH   5  25
HETATM   25  C   UNL     1      41.735 -10.197   7.481  1.00  0.00     0.256 C 
HETATM   26  O   UNL     1      41.928  -8.988   7.422  1.00  0.00    -0.267 OA
HETATM   27  N   UNL     1      41.874 -10.993   8.606  1.00  0.00    -0.323 N 
HETATM   28  H   UNL     1      41.699 -11.983   8.510  1.00  0.00     0.169 HD
BRANCH  27  29
HETATM   29  C   UNL     1      42.296 -10.582   9.891  1.00  0.00     0.035 A 
HETATM   30  C   UNL     1      43.617 -10.644  10.335  1.00  0.00     0.030 A 
HETATM   31  C   UNL     1      43.954 -10.240  11.631  1.00  0.00     0.010 A 
HETATM   32  C   UNL     1      42.976  -9.749  12.499  1.00  0.00    -0.048 A 
HETATM   33  C   UNL     1      43.338  -9.360  13.910  1.00  0.00     0.069 C 
HETATM   34  C   UNL     1      41.640  -9.685  12.072  1.00  0.00    -0.022 A 
HETATM   35  C   UNL     1      42.260  -8.491  14.567  1.00  0.00     0.274 C 
HETATM   36  N   UNL     1      40.930  -9.080  14.391  1.00  0.00     0.087 N 
HETATM   37  C   UNL     1      40.569  -9.105  12.968  1.00  0.00     0.308 C 
HETATM   38  H   UNL     1      40.243  -8.521  14.893  1.00  0.00     0.316 HD
HETATM   39  C   UNL     1      41.314 -10.098  10.767  1.00  0.00     0.039 A 
ENDBRANCH  27  29
ENDBRANCH   5  25
TORSDOF 6
ENDMDL
MODEL 3
REMARK VINA RESULT:      -9.9      3.567      5.160
REMARK  6 active torsions:
REMARK  status: ('A' for Active; 'I' for Inactive)
REMARK       I    between atoms: N_1  and  C_2 
REMARK    1  A    between atoms: C_2  and  C_4 
REMARK    2  A    between atoms: C_7  and  N_8 
REMARK       I    between atoms: N_8  and  C_9 
REMARK       I    between atoms: C_9  and  N_11 
REMARK    3  A    between atoms: N_11  and  C_12 
REMARK    4  A    between atoms: C_12  and  C_13 
REMARK    5  A    between atoms: C_17  and  C_19 
REMARK       I    between atoms: C_19  and  N_21 
REMARK    6  A    between atoms: N_21  and  C_22 
ROOT
HETATM    1  C   UNL     1      44.374 -14.383   6.734  1.00  0.00    -0.040 A 
HETATM    2  C   UNL     1      44.366 -15.766   6.956  1.00  0.00     0.009 A 
HETATM    3  C   UNL     1      43.786 -16.625   6.024  1.00  0.00     0.002 A 
HETATM    4  C   UNL     1      43.225 -16.108   4.857  1.00  0.00     0.017 A 
HETATM    5  C   UNL     1      43.241 -14.729   4.602  1.00  0.00     0.032 A 
HETATM    6  C   UNL     1      43.809 -13.869   5.553  1.00  0.00     0.026 A 
ENDROOT
BRANCH   1   7
HETATM    7  C   UNL     1      45.015 -13.455   7.735  1.00  0.00     0.162 C 
BRANCH   7   8
HETATM    8  N   UNL     1      44.022 -12.652   8.412  1.00  0.00    -0.339 N 
HETATM    9  C   UNL     1      44.152 -12.331   9.747  1.00  0.00     0.320 C 
HETATM   10  N   UNL     1      43.110 -11.529  10.159  1.00  0.00    -0.309 N 
HETATM   11  O   UNL     1      45.104 -12.702  10.422  1.00  0.00    -0.247 OA
HETATM   12  H   UNL     1      42.473 -11.236   9.434  1.00  0.00     0.170 HD
HETATM   13  H   UNL     1      43.085 -12.698   8.043  1.00  0.00     0.164 HD
BRANCH  10  14
HETATM   14  C   UNL     1      42.911 -10.954  11.431  1.00  0.00     0.036 A 
HETATM   15  C   UNL     1      43.787 -10.040  12.020  1.00  0.00     0.030 A 
HETATM   16  C   UNL     1      43.506  -9.490  13.278  1.00  0.00     0.019 A 
HETATM   17  C   UNL     1      42.339  -9.849  13.960  1.00  0.00     0.032 A 
HETATM   18  C   UNL     1      41.475 -10.787  13.386  1.00  0.00     0.019 A 
HETATM   19  C   UNL     1      41.758 -11.333  12.130  1.00  0.00     0.030 A 
BRANCH  17  20
HETATM   20  C   UNL     1      41.986  -9.282  15.288  1.00  0.00     0.249 C 
HETATM   21  N   UNL     1      42.282  -7.967  15.515  1.00  0.00    -0.366 N 
HETATM   22  H   UNL     1      41.938  -7.574  16.381  1.00  0.00     0.159 HD
HETATM   23  H   UNL     1      42.530  -7.326  14.775  1.00  0.00     0.159 HD
HETATM   24  O   UNL     1      41.411  -9.950  16.138  1.00  0.00    -0.268 OA
ENDBRANCH  17  20
ENDBRANCH  10  14
ENDBRANCH   7   8
ENDBRANCH   1   7
BRANCH   5  25
HETATM   25  C   UNL     1      42.624 -14.252   3.325  1.00  0.00     0.256 C 
HETATM   26  O   UNL     1      43.177 -13.327   2.740  1.00  0.00    -0.267 OA
HETATM   27  N   UNL     1      41.461 -14.891   2.927  1.00  0.00    -0.323 N 
HETATM   28  H   UNL     1      41.103 -15.631   3.515  1.00  0.00     0.169 HD
BRANCH  27  29
HETATM   29  C   UNL     1      40.667 -14.586   1.798  1.00  0.00     0.035 A 
HETATM   30  C   UNL     1      39.425 -13.955   1.865  1.00  0.00     0.030 A 
HETATM   31  C   UNL     1      38.686 -13.707   0.704  1.00  0.00     0.010 A 
HETATM   32  C   UNL     1      39.188 -14.072  -0.548  1.00  0.00    -0.048 A 
HETATM   33  C   UNL     1      38.365 -13.846  -1.791  1.00  0.00     0.069 C 
HETATM   34  C   UNL     1      40.433 -14.714  -0.635  1.00  0.00    -0.022 A 
HETATM   35  C   UNL     1      39.208 -13.929  -3.067  1.00  0.00     0.274 C 
HETATM   36  N   UNL     1      40.045 -15.132  -3.069  1.00  0.00     0.087 N 
HETATM   37  C   UNL     1      41.027 -15.069  -1.979  1.00  0.00     0.308 C 
HETATM   38  H   UNL     1      40.543 -15.198  -3.955  1.00  0.00     0.316 HD
HETATM   39  C   UNL     1      41.164 -14.960   0.541  1.00  0.00     0.039 A 
ENDBRANCH  27  29
ENDBRANCH   5  25
TORSDOF 6
ENDMDL
MODEL 4
REMARK VINA RESULT:      -9.8      1.592      2.187
REMARK  6 active torsions:
REMARK  status: ('A' for Active; 'I' for Inactive)
REMARK       I    between atoms: N_1  and  C_2 
REMARK    1  A    between atoms: C_2  and  C_4 
REMARK    2  A    between atoms: C_7  and  N_8 
REMARK       I    between atoms: N_8  and  C_9 
REMARK       I    between atoms: C_9  and  N_11 
REMARK    3  A    between atoms: N_11  and  C_12 
REMARK    4  A    between atoms: C_12  and  C_13 
REMARK    5  A    between atoms: C_17  and  C_19 
REMARK       I    between atoms: C_19  and  N_21 
REMARK    6  A    between atoms: N_21  and  C_22 
ROOT
HETATM    1  C   UNL     1      41.097 -11.816   5.804  1.00  0.00    -0.040 A 
HETATM    2  C   UNL     1      40.044 -11.511   4.930  1.00  0.00     0.009 A 
HETATM    3  C   UNL     1      39.462 -12.511   4.153  1.00  0.00     0.002 A 
HETATM    4  C   UNL     1      39.916 -13.825   4.257  1.00  0.00     0.017 A 
HETATM    5  C   UNL     1      40.953 -14.159   5.141  1.00  0.00     0.032 A 
HETATM    6  C   UNL     1      41.548 -13.145   5.904  1.00  0.00     0.026 A 
ENDROOT
BRANCH   1   7
HETATM    7  C   UNL     1      41.717 -10.737   6.655  1.00  0.00     0.162 C 
BRANCH   7   8
HETATM    8  N   UNL     1      42.096 -11.251   7.953  1.00  0.00    -0.339 N 
HETATM    9  C   UNL     1      41.958 -10.485   9.091  1.00  0.00     0.320 C 
HETATM   10  N   UNL     1      42.345 -11.196  10.206  1.00  0.00    -0.309 N 
HETATM   11  O   UNL     1      41.512  -9.345   9.066  1.00  0.00    -0.247 OA
HETATM   12  H   UNL     1      42.584 -12.163  10.045  1.00  0.00     0.170 HD
HETATM   13  H   UNL     1      42.819 -11.953   7.960  1.00  0.00     0.164 HD
BRANCH  10  14
HETATM   14  C   UNL     1      42.305 -10.782  11.554  1.00  0.00     0.036 A 
HETATM   15  C   UNL     1      43.322 -10.056  12.177  1.00  0.00     0.030 A 
HETATM   16  C   UNL     1      43.198  -9.654  13.513  1.00  0.00     0.019 A 
HETATM   17  C   UNL     1      42.047  -9.975  14.241  1.00  0.00     0.032 A 
HETATM   18  C   UNL     1      41.040 -10.728  13.630  1.00  0.00     0.019 A 
HETATM   19  C   UNL     1      41.168 -11.125  12.295  1.00  0.00     0.030 A 
BRANCH  17  20
HETATM   20  C   UNL     1      41.858  -9.558  15.656  1.00  0.00     0.249 C 
HETATM   21  N   UNL     1      42.786  -8.714  16.198  1.00  0.00    -0.366 N 
HETATM   22  H   UNL     1      42.582  -8.359  17.123  1.00  0.00     0.159 HD
HETATM   23  H   UNL     1      43.459  -8.209  15.640  1.00  0.00     0.159 HD
HETATM   24  O   UNL     1      40.885  -9.920  16.306  1.00  0.00    -0.268 OA
ENDBRANCH  17  20
ENDBRANCH  10  14
ENDBRANCH   7   8
ENDBRANCH   1   7
BRANCH   5  25
HETATM   25  C   UNL     1      41.381 -15.592   5.198  1.00  0.00     0.256 C 
HETATM   26  O   UNL     1      40.640 -16.381   5.776  1.00  0.00    -0.267 OA
HETATM   27  N   UNL     1      42.596 -15.896   4.606  1.00  0.00    -0.323 N 
HETATM   28  H   UNL     1      43.115 -15.143   4.177  1.00  0.00     0.169 HD
BRANCH  27  29
HETATM   29  C   UNL     1      43.237 -17.156   4.580  1.00  0.00     0.035 A 
HETATM   30  C   UNL     1      44.085 -17.621   5.585  1.00  0.00     0.030 A 
HETATM   31  C   UNL     1      44.702 -18.871   5.477  1.00  0.00     0.010 A 
HETATM   32  C   UNL     1      44.466 -19.686   4.366  1.00  0.00    -0.048 A 
HETATM   33  C   UNL     1      45.172 -21.012   4.233  1.00  0.00     0.069 C 
HETATM   34  C   UNL     1      43.621 -19.232   3.341  1.00  0.00    -0.022 A 
HETATM   35  C   UNL     1      44.507 -21.920   3.193  1.00  0.00     0.274 C 
HETATM   36  N   UNL     1      44.267 -21.199   1.940  1.00  0.00     0.087 N 
HETATM   37  C   UNL     1      43.301 -20.114   2.156  1.00  0.00     0.308 C 
HETATM   38  H   UNL     1      43.888 -21.841   1.246  1.00  0.00     0.316 HD
HETATM   39  C   UNL     1      43.009 -17.971   3.461  1.00  0.00     0.039 A 
ENDBRANCH  27  29
ENDBRANCH   5  25
TORSDOF 6
ENDMDL
MODEL 5
REMARK VINA RESULT:      -9.4      4.092      6.089
REMARK  6 active torsions:
REMARK  status: ('A' for Active; 'I' for Inactive)
REMARK       I    between atoms: N_1  and  C_2 
REMARK    1  A    between atoms: C_2  and  C_4 
REMARK    2  A    between atoms: C_7  and  N_8 
REMARK       I    between atoms: N_8  and  C_9 
REMARK       I    between atoms: C_9  and  N_11 
REMARK    3  A    between atoms: N_11  and  C_12 
REMARK    4  A    between atoms: C_12  and  C_13 
REMARK    5  A    between atoms: C_17  and  C_19 
REMARK       I    between atoms: C_19  and  N_21 
REMARK    6  A    between atoms: N_21  and  C_22 
ROOT
HETATM    1  C   UNL     1      41.472 -13.154  -0.395  1.00  0.00    -0.040 A 
HETATM    2  C   UNL     1      41.098 -13.433  -1.716  1.00  0.00     0.009 A 
HETATM    3  C   UNL     1      40.957 -14.751  -2.145  1.00  0.00     0.002 A 
HETATM    4  C   UNL     1      41.171 -15.800  -1.251  1.00  0.00     0.017 A 
HETATM    5  C   UNL     1      41.524 -15.545   0.083  1.00  0.00     0.032 A 
HETATM    6  C   UNL     1      41.684 -14.217   0.502  1.00  0.00     0.026 A 
ENDROOT
BRANCH   1   7
HETATM    7  C   UNL     1      41.611 -11.727   0.073  1.00  0.00     0.162 C 
BRANCH   7   8
HETATM    8  N   UNL     1      41.966 -11.670   1.473  1.00  0.00    -0.339 N 
HETATM    9  C   UNL     1      41.004 -11.502   2.447  1.00  0.00     0.320 C 
HETATM   10  N   UNL     1      41.573 -11.517   3.702  1.00  0.00    -0.309 N 
HETATM   11  O   UNL     1      39.813 -11.395   2.183  1.00  0.00    -0.247 OA
HETATM   12  H   UNL     1      42.560 -11.724   3.730  1.00  0.00     0.170 HD
HETATM   13  H   UNL     1      42.892 -11.333   1.684  1.00  0.00     0.164 HD
BRANCH  10  14
HETATM   14  C   UNL     1      40.922 -11.426   4.949  1.00  0.00     0.036 A 
HETATM   15  C   UNL     1      40.096 -12.422   5.473  1.00  0.00     0.030 A 
HETATM   16  C   UNL     1      39.506 -12.270   6.735  1.00  0.00     0.019 A 
HETATM   17  C   UNL     1      39.739 -11.114   7.487  1.00  0.00     0.032 A 
HETATM   18  C   UNL     1      40.540 -10.101   6.952  1.00  0.00     0.019 A 
HETATM   19  C   UNL     1      41.129 -10.258   5.693  1.00  0.00     0.030 A 
BRANCH  17  20
HETATM   20  C   UNL     1      39.150 -10.911   8.838  1.00  0.00     0.249 C 
HETATM   21  N   UNL     1      39.668 -11.641   9.871  1.00  0.00    -0.366 N 
HETATM   22  H   UNL     1      39.328 -11.410  10.796  1.00  0.00     0.159 HD
HETATM   23  H   UNL     1      40.543 -12.140   9.805  1.00  0.00     0.159 HD
HETATM   24  O   UNL     1      38.262 -10.091   9.033  1.00  0.00    -0.268 OA
ENDBRANCH  17  20
ENDBRANCH  10  14
ENDBRANCH   7   8
ENDBRANCH   1   7
BRANCH   5  25
HETATM   25  C   UNL     1      41.731 -16.724   0.982  1.00  0.00     0.256 C 
HETATM   26  O   UNL     1      40.739 -17.366   1.311  1.00  0.00    -0.267 OA
HETATM   27  N   UNL     1      43.034 -16.971   1.382  1.00  0.00    -0.323 N 
HETATM   28  H   UNL     1      43.757 -16.350   1.049  1.00  0.00     0.169 HD
BRANCH  27  29
HETATM   29  C   UNL     1      43.474 -17.981   2.269  1.00  0.00     0.035 A 
HETATM   30  C   UNL     1      43.827 -17.752   3.599  1.00  0.00     0.030 A 
HETATM   31  C   UNL     1      44.276 -18.800   4.408  1.00  0.00     0.010 A 
HETATM   32  C   UNL     1      44.362 -20.100   3.904  1.00  0.00    -0.048 A 
HETATM   33  C   UNL     1      44.893 -21.216   4.768  1.00  0.00     0.069 C 
HETATM   34  C   UNL     1      44.018 -20.349   2.566  1.00  0.00    -0.022 A 
HETATM   35  C   UNL     1      44.547 -22.599   4.205  1.00  0.00     0.274 C 
HETATM   36  N   UNL     1      44.877 -22.686   2.780  1.00  0.00     0.087 N 
HETATM   37  C   UNL     1      44.046 -21.754   2.009  1.00  0.00     0.308 C 
HETATM   38  H   UNL     1      44.701 -23.633   2.449  1.00  0.00     0.316 HD
HETATM   39  C   UNL     1      43.570 -19.285   1.762  1.00  0.00     0.039 A 
ENDBRANCH  27  29
ENDBRANCH   5  25
TORSDOF 6
ENDMDL
MODEL 6
REMARK VINA RESULT:      -9.4      2.193      2.859
REMARK  6 active torsions:
REMARK  status: ('A' for Active; 'I' for Inactive)
REMARK       I    between atoms: N_1  and  C_2 
REMARK    1  A    between atoms: C_2  and  C_4 
REMARK    2  A    between atoms: C_7  and  N_8 
REMARK       I    between atoms: N_8  and  C_9 
REMARK       I    between atoms: C_9  and  N_11 
REMARK    3  A    between atoms: N_11  and  C_12 
REMARK    4  A    between atoms: C_12  and  C_13 
REMARK    5  A    between atoms: C_17  and  C_19 
REMARK       I    between atoms: C_19  and  N_21 
REMARK    6  A    between atoms: N_21  and  C_22 
ROOT
HETATM    1  C   UNL     1      40.597 -11.579   4.098  1.00  0.00    -0.040 A 
HETATM    2  C   UNL     1      39.446 -11.175   3.407  1.00  0.00     0.009 A 
HETATM    3  C   UNL     1      38.795 -12.058   2.548  1.00  0.00     0.002 A 
HETATM    4  C   UNL     1      39.279 -13.356   2.386  1.00  0.00     0.017 A 
HETATM    5  C   UNL     1      40.416 -13.790   3.084  1.00  0.00     0.032 A 
HETATM    6  C   UNL     1      41.078 -12.890   3.931  1.00  0.00     0.026 A 
ENDROOT
BRANCH   1   7
HETATM    7  C   UNL     1      41.294 -10.629   5.039  1.00  0.00     0.162 C 
BRANCH   7   8
HETATM    8  N   UNL     1      41.604 -11.273   6.295  1.00  0.00    -0.339 N 
HETATM    9  C   UNL     1      41.877 -10.535   7.427  1.00  0.00     0.320 C 
HETATM   10  N   UNL     1      42.104 -11.362   8.506  1.00  0.00    -0.309 N 
HETATM   11  O   UNL     1      41.872  -9.310   7.430  1.00  0.00    -0.247 OA
HETATM   12  H   UNL     1      41.960 -12.347   8.337  1.00  0.00     0.170 HD
HETATM   13  H   UNL     1      42.022 -12.188   6.235  1.00  0.00     0.164 HD
BRANCH  10  14
HETATM   14  C   UNL     1      42.366 -10.992   9.841  1.00  0.00     0.036 A 
HETATM   15  C   UNL     1      43.623 -10.610  10.312  1.00  0.00     0.030 A 
HETATM   16  C   UNL     1      43.799 -10.227  11.649  1.00  0.00     0.019 A 
HETATM   17  C   UNL     1      42.712 -10.220  12.529  1.00  0.00     0.032 A 
HETATM   18  C   UNL     1      41.457 -10.631  12.067  1.00  0.00     0.019 A 
HETATM   19  C   UNL     1      41.286 -11.011  10.732  1.00  0.00     0.030 A 
BRANCH  17  20
HETATM   20  C   UNL     1      42.841  -9.806  13.951  1.00  0.00     0.249 C 
HETATM   21  N   UNL     1      43.573  -8.683  14.220  1.00  0.00    -0.366 N 
HETATM   22  H   UNL     1      43.559  -8.360  15.179  1.00  0.00     0.159 HD
HETATM   23  H   UNL     1      43.846  -8.023  13.507  1.00  0.00     0.159 HD
HETATM   24  O   UNL     1      42.281 -10.419  14.851  1.00  0.00    -0.268 OA
ENDBRANCH  17  20
ENDBRANCH  10  14
ENDBRANCH   7   8
ENDBRANCH   1   7
BRANCH   5  25
HETATM   25  C   UNL     1      40.871 -15.198   2.861  1.00  0.00     0.256 C 
HETATM   26  O   UNL     1      40.047 -15.997   2.427  1.00  0.00    -0.267 OA
HETATM   27  N   UNL     1      42.187 -15.480   3.187  1.00  0.00    -0.323 N 
HETATM   28  H   UNL     1      42.755 -14.729   3.552  1.00  0.00     0.169 HD
BRANCH  27  29
HETATM   29  C   UNL     1      42.830 -16.738   3.121  1.00  0.00     0.035 A 
HETATM   30  C   UNL     1      43.204 -17.360   1.930  1.00  0.00     0.030 A 
HETATM   31  C   UNL     1      43.816 -18.617   1.945  1.00  0.00     0.010 A 
HETATM   32  C   UNL     1      44.081 -19.265   3.154  1.00  0.00    -0.048 A 
HETATM   33  C   UNL     1      44.697 -20.641   3.160  1.00  0.00     0.069 C 
HETATM   34  C   UNL     1      43.705 -18.657   4.362  1.00  0.00    -0.022 A 
HETATM   35  C   UNL     1      45.270 -21.014   4.532  1.00  0.00     0.274 C 
HETATM   36  N   UNL     1      44.301 -20.747   5.598  1.00  0.00     0.087 N 
HETATM   37  C   UNL     1      44.030 -19.306   5.689  1.00  0.00     0.308 C 
HETATM   38  H   UNL     1      44.679 -21.065   6.488  1.00  0.00     0.316 HD
HETATM   39  C   UNL     1      43.087 -17.393   4.334  1.00  0.00     0.039 A 
ENDBRANCH  27  29
ENDBRANCH   5  25
TORSDOF 6
ENDMDL
MODEL 7
REMARK VINA RESULT:      -9.2      2.704     11.861
REMARK  6 active torsions:
REMARK  status: ('A' for Active; 'I' for Inactive)
REMARK       I    between atoms: N_1  and  C_2 
REMARK    1  A    between atoms: C_2  and  C_4 
REMARK    2  A    between atoms: C_7  and  N_8 
REMARK       I    between atoms: N_8  and  C_9 
REMARK       I    between atoms: C_9  and  N_11 
REMARK    3  A    between atoms: N_11  and  C_12 
REMARK    4  A    between atoms: C_12  and  C_13 
REMARK    5  A    between atoms: C_17  and  C_19 
REMARK       I    between atoms: C_19  and  N_21 
REMARK    6  A    between atoms: N_21  and  C_22 
ROOT
HETATM    1  C   UNL     1      40.859 -11.695   3.400  1.00  0.00    -0.040 A 
HETATM    2  C   UNL     1      39.458 -11.734   3.383  1.00  0.00     0.009 A 
HETATM    3  C   UNL     1      38.728 -11.268   4.475  1.00  0.00     0.002 A 
HETATM    4  C   UNL     1      39.392 -10.746   5.584  1.00  0.00     0.017 A 
HETATM    5  C   UNL     1      40.793 -10.676   5.614  1.00  0.00     0.032 A 
HETATM    6  C   UNL     1      41.521 -11.164   4.521  1.00  0.00     0.026 A 
ENDROOT
BRANCH   1   7
HETATM    7  C   UNL     1      41.648 -12.185   2.212  1.00  0.00     0.162 C 
BRANCH   7   8
HETATM    8  N   UNL     1      42.654 -13.142   2.614  1.00  0.00    -0.339 N 
HETATM    9  C   UNL     1      42.417 -14.499   2.544  1.00  0.00     0.320 C 
HETATM   10  N   UNL     1      43.530 -15.209   2.941  1.00  0.00    -0.309 N 
HETATM   11  O   UNL     1      41.357 -14.961   2.143  1.00  0.00    -0.247 OA
HETATM   12  H   UNL     1      44.351 -14.658   3.137  1.00  0.00     0.170 HD
HETATM   13  H   UNL     1      43.314 -12.830   3.309  1.00  0.00     0.164 HD
BRANCH  10  14
HETATM   14  C   UNL     1      43.700 -16.609   2.963  1.00  0.00     0.036 A 
HETATM   15  C   UNL     1      43.623 -17.386   4.120  1.00  0.00     0.030 A 
HETATM   16  C   UNL     1      43.775 -18.778   4.057  1.00  0.00     0.019 A 
HETATM   17  C   UNL     1      44.005 -19.407   2.830  1.00  0.00     0.032 A 
HETATM   18  C   UNL     1      44.113 -18.629   1.673  1.00  0.00     0.019 A 
HETATM   19  C   UNL     1      43.958 -17.240   1.740  1.00  0.00     0.030 A 
BRANCH  17  20
HETATM   20  C   UNL     1      44.156 -20.881   2.706  1.00  0.00     0.249 C 
HETATM   21  N   UNL     1      43.833 -21.453   1.507  1.00  0.00    -0.366 N 
HETATM   22  H   UNL     1      44.044 -22.438   1.411  1.00  0.00     0.159 HD
HETATM   23  H   UNL     1      43.701 -20.917   0.662  1.00  0.00     0.159 HD
HETATM   24  O   UNL     1      44.594 -21.560   3.627  1.00  0.00    -0.268 OA
ENDBRANCH  17  20
ENDBRANCH  10  14
ENDBRANCH   7   8
ENDBRANCH   1   7
BRANCH   5  25
HETATM   25  C   UNL     1      41.432 -10.097   6.838  1.00  0.00     0.256 C 
HETATM   26  O   UNL     1      41.926  -8.979   6.743  1.00  0.00    -0.267 OA
HETATM   27  N   UNL     1      41.425 -10.893   7.971  1.00  0.00    -0.323 N 
HETATM   28  H   UNL     1      40.995 -11.805   7.906  1.00  0.00     0.169 HD
BRANCH  27  29
HETATM   29  C   UNL     1      42.011 -10.595   9.223  1.00  0.00     0.035 A 
HETATM   30  C   UNL     1      43.327 -10.907   9.562  1.00  0.00     0.030 A 
HETATM   31  C   UNL     1      43.829 -10.601  10.831  1.00  0.00     0.010 A 
HETATM   32  C   UNL     1      43.025  -9.960  11.777  1.00  0.00    -0.048 A 
HETATM   33  C   UNL     1      43.558  -9.676  13.159  1.00  0.00     0.069 C 
HETATM   34  C   UNL     1      41.696  -9.644  11.456  1.00  0.00    -0.022 A 
HETATM   35  C   UNL     1      42.710  -8.641  13.905  1.00  0.00     0.274 C 
HETATM   36  N   UNL     1      41.285  -8.973  13.829  1.00  0.00     0.087 N 
HETATM   37  C   UNL     1      40.820  -8.899  12.438  1.00  0.00     0.308 C 
HETATM   38  H   UNL     1      40.752  -8.309  14.388  1.00  0.00     0.316 HD
HETATM   39  C   UNL     1      41.203  -9.960  10.178  1.00  0.00     0.039 A 
ENDBRANCH  27  29
ENDBRANCH   5  25
TORSDOF 6
ENDMDL
MODEL 8
REMARK VINA RESULT:      -9.1      2.495     12.394
REMARK  6 active torsions:
REMARK  status: ('A' for Active; 'I' for Inactive)
REMARK       I    between atoms: N_1  and  C_2 
REMARK    1  A    between atoms: C_2  and  C_4 
REMARK    2  A    between atoms: C_7  and  N_8 
REMARK       I    between atoms: N_8  and  C_9 
REMARK       I    between atoms: C_9  and  N_11 
REMARK    3  A    between atoms: N_11  and  C_12 
REMARK    4  A    between atoms: C_12  and  C_13 
REMARK    5  A    between atoms: C_17  and  C_19 
REMARK       I    between atoms: C_19  and  N_21 
REMARK    6  A    between atoms: N_21  and  C_22 
ROOT
HETATM    1  C   UNL     1      40.429 -13.034   4.836  1.00  0.00    -0.040 A 
HETATM    2  C   UNL     1      41.027 -12.002   4.100  1.00  0.00     0.009 A 
HETATM    3  C   UNL     1      41.296 -10.773   4.700  1.00  0.00     0.002 A 
HETATM    4  C   UNL     1      40.985 -10.574   6.045  1.00  0.00     0.017 A 
HETATM    5  C   UNL     1      40.408 -11.599   6.808  1.00  0.00     0.032 A 
HETATM    6  C   UNL     1      40.122 -12.826   6.192  1.00  0.00     0.026 A 
ENDROOT
BRANCH   1   7
HETATM    7  C   UNL     1      40.152 -14.368   4.190  1.00  0.00     0.162 C 
BRANCH   7   8
HETATM    8  N   UNL     1      41.379 -15.019   3.792  1.00  0.00    -0.339 N 
HETATM    9  C   UNL     1      41.531 -16.386   3.902  1.00  0.00     0.320 C 
HETATM   10  N   UNL     1      42.763 -16.779   3.426  1.00  0.00    -0.309 N 
HETATM   11  O   UNL     1      40.646 -17.112   4.336  1.00  0.00    -0.247 OA
HETATM   12  H   UNL     1      43.320 -16.051   3.006  1.00  0.00     0.170 HD
HETATM   13  H   UNL     1      42.217 -14.461   3.845  1.00  0.00     0.164 HD
BRANCH  10  14
HETATM   14  C   UNL     1      43.272 -18.090   3.323  1.00  0.00     0.036 A 
HETATM   15  C   UNL     1      44.122 -18.673   4.266  1.00  0.00     0.030 A 
HETATM   16  C   UNL     1      44.564 -19.993   4.108  1.00  0.00     0.019 A 
HETATM   17  C   UNL     1      44.156 -20.747   3.003  1.00  0.00     0.032 A 
HETATM   18  C   UNL     1      43.330 -20.156   2.042  1.00  0.00     0.019 A 
HETATM   19  C   UNL     1      42.889 -18.838   2.203  1.00  0.00     0.030 A 
BRANCH  17  20
HETATM   20  C   UNL     1      44.583 -22.156   2.798  1.00  0.00     0.249 C 
HETATM   21  N   UNL     1      44.769 -22.930   3.910  1.00  0.00    -0.366 N 
HETATM   22  H   UNL     1      44.954 -23.911   3.746  1.00  0.00     0.159 HD
HETATM   23  H   UNL     1      44.440 -22.661   4.825  1.00  0.00     0.159 HD
HETATM   24  O   UNL     1      44.723 -22.627   1.676  1.00  0.00    -0.268 OA
ENDBRANCH  17  20
ENDBRANCH  10  14
ENDBRANCH   7   8
ENDBRANCH   1   7
BRANCH   5  25
HETATM   25  C   UNL     1      40.109 -11.309   8.246  1.00  0.00     0.256 C 
HETATM   26  O   UNL     1      39.081 -11.783   8.717  1.00  0.00    -0.267 OA
HETATM   27  N   UNL     1      41.019 -10.506   8.913  1.00  0.00    -0.323 N 
HETATM   28  H   UNL     1      41.819 -10.167   8.398  1.00  0.00     0.169 HD
BRANCH  27  29
HETATM   29  C   UNL     1      40.929 -10.046  10.248  1.00  0.00     0.035 A 
HETATM   30  C   UNL     1      39.763  -9.540  10.821  1.00  0.00     0.030 A 
HETATM   31  C   UNL     1      39.758  -9.082  12.143  1.00  0.00     0.010 A 
HETATM   32  C   UNL     1      40.918  -9.141  12.919  1.00  0.00    -0.048 A 
HETATM   33  C   UNL     1      40.918  -8.602  14.327  1.00  0.00     0.069 C 
HETATM   34  C   UNL     1      42.103  -9.642  12.357  1.00  0.00    -0.022 A 
HETATM   35  C   UNL     1      42.118  -9.102  15.139  1.00  0.00     0.274 C 
HETATM   36  N   UNL     1      43.367  -8.931  14.393  1.00  0.00     0.087 N 
HETATM   37  C   UNL     1      43.359  -9.772  13.189  1.00  0.00     0.308 C 
HETATM   38  H   UNL     1      44.153  -9.207  14.979  1.00  0.00     0.316 HD
HETATM   39  C   UNL     1      42.095 -10.096  11.025  1.00  0.00     0.039 A 
ENDBRANCH  27  29
ENDBRANCH   5  25
TORSDOF 6
ENDMDL
MODEL 9
REMARK VINA RESULT:      -9.0      2.262     12.892
REMARK  6 active torsions:
REMARK  status: ('A' for Active; 'I' for Inactive)
REMARK       I    between atoms: N_1  and  C_2 
REMARK    1  A    between atoms: C_2  and  C_4 
REMARK    2  A    between atoms: C_7  and  N_8 
REMARK       I    between atoms: N_8  and  C_9 
REMARK       I    between atoms: C_9  and  N_11 
REMARK    3  A    between atoms: N_11  and  C_12 
REMARK    4  A    between atoms: C_12  and  C_13 
REMARK    5  A    between atoms: C_17  and  C_19 
REMARK       I    between atoms: C_19  and  N_21 
REMARK    6  A    between atoms: N_21  and  C_22 
ROOT
HETATM    1  C   UNL     1      44.539 -13.018   7.770  1.00  0.00    -0.040 A 
HETATM    2  C   UNL     1      45.899 -12.711   7.625  1.00  0.00     0.009 A 
HETATM    3  C   UNL     1      46.585 -12.054   8.645  1.00  0.00     0.002 A 
HETATM    4  C   UNL     1      45.921 -11.715   9.823  1.00  0.00     0.017 A 
HETATM    5  C   UNL     1      44.566 -12.033  10.001  1.00  0.00     0.032 A 
HETATM    6  C   UNL     1      43.877 -12.675   8.963  1.00  0.00     0.026 A 
ENDROOT
BRANCH   1   7
HETATM    7  C   UNL     1      43.800 -13.742   6.672  1.00  0.00     0.162 C 
BRANCH   7   8
HETATM    8  N   UNL     1      44.003 -15.170   6.762  1.00  0.00    -0.339 N 
HETATM    9  C   UNL     1      43.863 -15.982   5.657  1.00  0.00     0.320 C 
HETATM   10  N   UNL     1      44.142 -17.293   5.976  1.00  0.00    -0.309 N 
HETATM   11  O   UNL     1      43.565 -15.543   4.553  1.00  0.00    -0.247 OA
HETATM   12  H   UNL     1      44.476 -17.451   6.915  1.00  0.00     0.170 HD
HETATM   13  H   UNL     1      43.825 -15.590   7.662  1.00  0.00     0.164 HD
BRANCH  10  14
HETATM   14  C   UNL     1      44.158 -18.409   5.115  1.00  0.00     0.036 A 
HETATM   15  C   UNL     1      43.814 -18.356   3.762  1.00  0.00     0.030 A 
HETATM   16  C   UNL     1      43.882 -19.504   2.962  1.00  0.00     0.019 A 
HETATM   17  C   UNL     1      44.299 -20.722   3.510  1.00  0.00     0.032 A 
HETATM   18  C   UNL     1      44.615 -20.785   4.871  1.00  0.00     0.019 A 
HETATM   19  C   UNL     1      44.547 -19.636   5.666  1.00  0.00     0.030 A 
BRANCH  17  20
HETATM   20  C   UNL     1      44.405 -21.965   2.701  1.00  0.00     0.249 C 
HETATM   21  N   UNL     1      44.110 -21.881   1.369  1.00  0.00    -0.366 N 
HETATM   22  H   UNL     1      44.291 -22.710   0.818  1.00  0.00     0.159 HD
HETATM   23  H   UNL     1      44.029 -21.002   0.880  1.00  0.00     0.159 HD
HETATM   24  O   UNL     1      44.784 -23.020   3.194  1.00  0.00    -0.268 OA
ENDBRANCH  17  20
ENDBRANCH  10  14
ENDBRANCH   7   8
ENDBRANCH   1   7
BRANCH   5  25
HETATM   25  C   UNL     1      43.926 -11.640  11.296  1.00  0.00     0.256 C 
HETATM   26  O   UNL     1      43.899 -12.479  12.190  1.00  0.00    -0.267 OA
HETATM   27  N   UNL     1      43.398 -10.361  11.359  1.00  0.00    -0.323 N 
HETATM   28  H   UNL     1      43.475  -9.777  10.539  1.00  0.00     0.169 HD
BRANCH  27  29
HETATM   29  C   UNL     1      42.699  -9.782  12.443  1.00  0.00     0.035 A 
HETATM   30  C   UNL     1      43.233  -9.629  13.723  1.00  0.00     0.030 A 
HETATM   31  C   UNL     1      42.470  -9.067  14.751  1.00  0.00     0.010 A 
HETATM   32  C   UNL     1      41.164  -8.632  14.511  1.00  0.00    -0.048 A 
HETATM   33  C   UNL     1      40.330  -8.071  15.635  1.00  0.00     0.069 C 
HETATM   34  C   UNL     1      40.608  -8.784  13.231  1.00  0.00    -0.022 A 
HETATM   35  C   UNL     1      39.112  -7.296  15.124  1.00  0.00     0.274 C 
HETATM   36  N   UNL     1      38.381  -8.069  14.115  1.00  0.00     0.087 N 
HETATM   37  C   UNL     1      39.218  -8.271  12.926  1.00  0.00     0.308 C 
HETATM   38  H   UNL     1      37.542  -7.562  13.842  1.00  0.00     0.316 HD
HETATM   39  C   UNL     1      41.385  -9.354  12.206  1.00  0.00     0.039 A 
ENDBRANCH  27  29
ENDBRANCH   5  25
TORSDOF 6
ENDMDL
MODEL 10
REMARK VINA RESULT:      -8.8      6.136     11.232
REMARK  6 active torsions:
REMARK  status: ('A' for Active; 'I' for Inactive)
REMARK       I    between atoms: N_1  and  C_2 
REMARK    1  A    between atoms: C_2  and  C_4 
REMARK    2  A    between atoms: C_7  and  N_8 
REMARK       I    between atoms: N_8  and  C_9 
REMARK       I    between atoms: C_9  and  N_11 
REMARK    3  A    between atoms: N_11  and  C_12 
REMARK    4  A    between atoms: C_12  and  C_13 
REMARK    5  A    between atoms: C_17  and  C_19 
REMARK       I    between atoms: C_19  and  N_21 
REMARK    6  A    between atoms: N_21  and  C_22 
ROOT
HETATM    1  C   UNL     1      39.843 -12.496   3.609  1.00  0.00    -0.040 A 
HETATM    2  C   UNL     1      40.594 -11.553   4.323  1.00  0.00     0.009 A 
HETATM    3  C   UNL     1      41.615 -11.966   5.177  1.00  0.00     0.002 A 
HETATM    4  C   UNL     1      41.904 -13.323   5.310  1.00  0.00     0.017 A 
HETATM    5  C   UNL     1      41.181 -14.285   4.589  1.00  0.00     0.032 A 
HETATM    6  C   UNL     1      40.142 -13.864   3.747  1.00  0.00     0.026 A 
ENDROOT
BRANCH   1   7
HETATM    7  C   UNL     1      38.748 -12.048   2.674  1.00  0.00     0.162 C 
BRANCH   7   8
HETATM    8  N   UNL     1      39.069 -12.374   1.302  1.00  0.00    -0.339 N 
HETATM    9  C   UNL     1      38.080 -12.682   0.392  1.00  0.00     0.320 C 
HETATM   10  N   UNL     1      38.620 -12.918  -0.853  1.00  0.00    -0.309 N 
HETATM   11  O   UNL     1      36.893 -12.695   0.691  1.00  0.00    -0.247 OA
HETATM   12  H   UNL     1      39.613 -12.756  -0.935  1.00  0.00     0.170 HD
HETATM   13  H   UNL     1      39.979 -12.777   1.141  1.00  0.00     0.164 HD
BRANCH  10  14
HETATM   14  C   UNL     1      37.937 -13.213  -2.051  1.00  0.00     0.036 A 
HETATM   15  C   UNL     1      37.906 -14.478  -2.641  1.00  0.00     0.030 A 
HETATM   16  C   UNL     1      37.180 -14.700  -3.819  1.00  0.00     0.019 A 
HETATM   17  C   UNL     1      36.473 -13.652  -4.419  1.00  0.00     0.032 A 
HETATM   18  C   UNL     1      36.527 -12.377  -3.848  1.00  0.00     0.019 A 
HETATM   19  C   UNL     1      37.252 -12.161  -2.671  1.00  0.00     0.030 A 
BRANCH  17  20
HETATM   20  C   UNL     1      35.674 -13.838  -5.659  1.00  0.00     0.249 C 
HETATM   21  N   UNL     1      35.904 -12.978  -6.696  1.00  0.00    -0.366 N 
HETATM   22  H   UNL     1      35.429 -13.188  -7.564  1.00  0.00     0.159 HD
HETATM   23  H   UNL     1      36.711 -12.374  -6.738  1.00  0.00     0.159 HD
HETATM   24  O   UNL     1      34.867 -14.753  -5.770  1.00  0.00    -0.268 OA
ENDBRANCH  17  20
ENDBRANCH  10  14
ENDBRANCH   7   8
ENDBRANCH   1   7
BRANCH   5  25
HETATM   25  C   UNL     1      41.554 -15.722   4.782  1.00  0.00     0.256 C 
HETATM   26  O   UNL     1      40.826 -16.404   5.495  1.00  0.00    -0.267 OA
HETATM   27  N   UNL     1      42.710 -16.148   4.149  1.00  0.00    -0.323 N 
HETATM   28  H   UNL     1      43.226 -15.473   3.602  1.00  0.00     0.169 HD
BRANCH  27  29
HETATM   29  C   UNL     1      43.297 -17.432   4.225  1.00  0.00     0.035 A 
HETATM   30  C   UNL     1      44.044 -17.885   5.312  1.00  0.00     0.030 A 
HETATM   31  C   UNL     1      44.614 -19.162   5.304  1.00  0.00     0.010 A 
HETATM   32  C   UNL     1      44.430 -20.015   4.213  1.00  0.00    -0.048 A 
HETATM   33  C   UNL     1      45.087 -21.372   4.190  1.00  0.00     0.069 C 
HETATM   34  C   UNL     1      43.686 -19.574   3.107  1.00  0.00    -0.022 A 
HETATM   35  C   UNL     1      44.467 -22.299   3.140  1.00  0.00     0.274 C 
HETATM   36  N   UNL     1      44.354 -21.625   1.843  1.00  0.00     0.087 N 
HETATM   37  C   UNL     1      43.422 -20.495   1.937  1.00  0.00     0.308 C 
HETATM   38  H   UNL     1      44.004 -22.282   1.149  1.00  0.00     0.316 HD
HETATM   39  C   UNL     1      43.121 -18.286   3.127  1.00  0.00     0.039 A 
ENDBRANCH  27  29
ENDBRANCH   5  25
TORSDOF 6
ENDMDL
