MODEL 1
REMARK VINA RESULT:      -8.4      0.000      0.000
REMARK  6 active torsions:
REMARK  status: ('A' for Active; 'I' for Inactive)
REMARK       I    between atoms: N_2  and  C_3 
REMARK    1  A    between atoms: N_2  and  C_19 
REMARK       I    between atoms: C_3  and  N_4 
REMARK    2  A    between atoms: N_4  and  C_5 
REMARK    3  A    between atoms: C_12  and  C_13 
REMARK       I    between atoms: C_13  and  N_14 
REMARK    4  A    between atoms: C_19  and  C_20 
REMARK    5  A    between atoms: C_20  and  O_21 
REMARK    6  A    between atoms: O_21  and  C_22 
ROOT
HETATM    1  C   UNL     1      43.879 -14.119   5.545  1.00  0.00     0.154 C 
HETATM    2  N   UNL     1      42.880 -14.951   4.888  1.00  0.00    -0.336 N 
HETATM    3  C   UNL     1      42.332 -14.425   3.710  1.00  0.00     0.322 C 
HETATM    4  N   UNL     1      41.493 -15.291   3.047  1.00  0.00    -0.309 N 
HETATM    5  O   UNL     1      42.632 -13.304   3.308  1.00  0.00    -0.247 OA
HETATM    6  H   UNL     1      41.679 -16.267   3.208  1.00  0.00     0.170 HD
ENDROOT
BRANCH   4   7
HETATM    7  C   UNL     1      40.640 -14.986   1.966  1.00  0.00     0.037 A 
HETATM    8  C   UNL     1      41.082 -14.926   0.637  1.00  0.00     0.046 A 
HETATM    9  C   UNL     1      40.176 -14.568  -0.384  1.00  0.00     0.030 A 
HETATM   10  C   UNL     1      38.855 -14.304  -0.045  1.00  0.00     0.063 A 
HETATM   11  C   UNL     1      40.244 -14.367  -1.795  1.00  0.00     0.156 A 
HETATM   12  N   UNL     1      38.230 -14.013  -1.225  1.00  0.00    -0.277 N 
HETATM   13  C   UNL     1      38.380 -14.353   1.268  1.00  0.00     0.034 A 
HETATM   14  H   UNL     1      37.254 -13.780  -1.360  1.00  0.00     0.189 HD
HETATM   15  N   UNL     1      39.033 -14.039  -2.302  1.00  0.00    -0.168 NA
HETATM   16  C   UNL     1      39.305 -14.686   2.266  1.00  0.00     0.032 A 
BRANCH  11  17
HETATM   17  C   UNL     1      41.430 -14.468  -2.658  1.00  0.00     0.270 C 
HETATM   18  N   UNL     1      42.422 -13.577  -2.348  1.00  0.00    -0.365 N 
HETATM   19  H   UNL     1      42.287 -12.958  -1.557  1.00  0.00     0.159 HD
HETATM   20  H   UNL     1      43.289 -13.598  -2.859  1.00  0.00     0.159 HD
HETATM   21  O   UNL     1      41.564 -15.274  -3.572  1.00  0.00    -0.266 OA
ENDBRANCH  11  17
ENDBRANCH   4   7
BRANCH   2  22
HETATM   22  C   UNL     1      42.147 -15.890   5.756  1.00  0.00     0.153 C 
BRANCH  22  23
HETATM   23  C   UNL     1      42.730 -17.312   5.750  1.00  0.00     0.195 C 
BRANCH  23  24
HETATM   24  O   UNL     1      43.921 -17.325   4.952  1.00  0.00    -0.350 OA
BRANCH  24  25
HETATM   25  C   UNL     1      43.978 -18.436   4.159  1.00  0.00     0.068 A 
HETATM   26  C   UNL     1      43.434 -18.353   2.879  1.00  0.00     0.038 A 
HETATM   27  C   UNL     1      43.497 -19.456   2.025  1.00  0.00     0.026 A 
HETATM   28  C   UNL     1      44.117 -20.626   2.457  1.00  0.00     0.034 A 
HETATM   29 CL   UNL     1      44.198 -21.988   1.408  1.00  0.00    -0.084 Cl
HETATM   30  C   UNL     1      44.680 -20.702   3.733  1.00  0.00     0.026 A 
HETATM   31  C   UNL     1      44.615 -19.601   4.588  1.00  0.00     0.038 A 
ENDBRANCH  24  25
ENDBRANCH  23  24
ENDBRANCH  22  23
ENDBRANCH   2  22
TORSDOF 6
ENDMDL
MODEL 2
REMARK VINA RESULT:      -8.1      6.166      9.503
REMARK  6 active torsions:
REMARK  status: ('A' for Active; 'I' for Inactive)
REMARK       I    between atoms: N_2  and  C_3 
REMARK    1  A    between atoms: N_2  and  C_19 
REMARK       I    between atoms: C_3  and  N_4 
REMARK    2  A    between atoms: N_4  and  C_5 
REMARK    3  A    between atoms: C_12  and  C_13 
REMARK       I    between atoms: C_13  and  N_14 
REMARK    4  A    between atoms: C_19  and  C_20 
REMARK    5  A    between atoms: C_20  and  O_21 
REMARK    6  A    between atoms: O_21  and  C_22 
ROOT
HETATM    1  C   UNL     1      46.521 -11.836   8.496  1.00  0.00     0.154 C 
HETATM    2  N   UNL     1      45.435 -12.805   8.528  1.00  0.00    -0.336 N 
HETATM    3  C   UNL     1      45.253 -13.553   7.356  1.00  0.00     0.322 C 
HETATM    4  N   UNL     1      44.309 -14.548   7.466  1.00  0.00    -0.309 N 
HETATM    5  O   UNL     1      45.928 -13.343   6.351  1.00  0.00    -0.247 OA
HETATM    6  H   UNL     1      44.173 -14.900   8.399  1.00  0.00     0.170 HD
ENDROOT
BRANCH   4   7
HETATM    7  C   UNL     1      43.760 -15.316   6.418  1.00  0.00     0.037 A 
HETATM    8  C   UNL     1      44.031 -16.681   6.250  1.00  0.00     0.046 A 
HETATM    9  C   UNL     1      43.479 -17.371   5.148  1.00  0.00     0.030 A 
HETATM   10  C   UNL     1      42.659 -16.678   4.267  1.00  0.00     0.063 A 
HETATM   11  C   UNL     1      43.544 -18.698   4.629  1.00  0.00     0.156 A 
HETATM   12  N   UNL     1      42.268 -17.600   3.337  1.00  0.00    -0.277 N 
HETATM   13  C   UNL     1      42.369 -15.318   4.404  1.00  0.00     0.034 A 
HETATM   14  H   UNL     1      41.655 -17.448   2.544  1.00  0.00     0.189 HD
HETATM   15  N   UNL     1      42.781 -18.828   3.519  1.00  0.00    -0.168 NA
HETATM   16  C   UNL     1      42.949 -14.651   5.491  1.00  0.00     0.032 A 
BRANCH  11  17
HETATM   17  C   UNL     1      44.322 -19.828   5.155  1.00  0.00     0.270 C 
HETATM   18  N   UNL     1      45.195 -20.373   4.253  1.00  0.00    -0.365 N 
HETATM   19  H   UNL     1      45.264 -19.954   3.333  1.00  0.00     0.159 HD
HETATM   20  H   UNL     1      45.800 -21.127   4.536  1.00  0.00     0.159 HD
HETATM   21  O   UNL     1      44.238 -20.264   6.299  1.00  0.00    -0.266 OA
ENDBRANCH  11  17
ENDBRANCH   4   7
BRANCH   2  22
HETATM   22  C   UNL     1      44.334 -12.514   9.464  1.00  0.00     0.153 C 
BRANCH  22  23
HETATM   23  C   UNL     1      44.033 -11.014   9.608  1.00  0.00     0.195 C 
BRANCH  23  24
HETATM   24  O   UNL     1      42.657 -10.845   9.972  1.00  0.00    -0.350 OA
BRANCH  24  25
HETATM   25  C   UNL     1      42.526 -10.554  11.300  1.00  0.00     0.068 A 
HETATM   26  C   UNL     1      41.384 -11.006  11.958  1.00  0.00     0.038 A 
HETATM   27  C   UNL     1      41.223 -10.756  13.322  1.00  0.00     0.026 A 
HETATM   28  C   UNL     1      42.215 -10.068  14.017  1.00  0.00     0.034 A 
HETATM   29 CL   UNL     1      42.023  -9.758  15.699  1.00  0.00    -0.084 Cl
HETATM   30  C   UNL     1      43.369  -9.632  13.362  1.00  0.00     0.026 A 
HETATM   31  C   UNL     1      43.529  -9.881  11.997  1.00  0.00     0.038 A 
ENDBRANCH  24  25
ENDBRANCH  23  24
ENDBRANCH  22  23
ENDBRANCH   2  22
TORSDOF 6
ENDMDL
MODEL 3
REMARK VINA RESULT:      -7.9      2.077      2.761
REMARK  6 active torsions:
REMARK  status: ('A' for Active; 'I' for Inactive)
REMARK       I    between atoms: N_2  and  C_3 
REMARK    1  A    between atoms: N_2  and  C_19 
REMARK       I    between atoms: C_3  and  N_4 
REMARK    2  A    between atoms: N_4  and  C_5 
REMARK    3  A    between atoms: C_12  and  C_13 
REMARK       I    between atoms: C_13  and  N_14 
REMARK    4  A    between atoms: C_19  and  C_20 
REMARK    5  A    between atoms: C_20  and  O_21 
REMARK    6  A    between atoms: O_21  and  C_22 
ROOT
HETATM    1  C   UNL     1      39.750 -14.298   5.201  1.00  0.00     0.154 C 
HETATM    2  N   UNL     1      40.672 -14.826   4.205  1.00  0.00    -0.336 N 
HETATM    3  C   UNL     1      40.580 -14.254   2.929  1.00  0.00     0.322 C 
HETATM    4  N   UNL     1      41.551 -14.680   2.052  1.00  0.00    -0.309 N 
HETATM    5  O   UNL     1      39.723 -13.414   2.663  1.00  0.00    -0.247 OA
HETATM    6  H   UNL     1      42.407 -14.984   2.484  1.00  0.00     0.170 HD
ENDROOT
BRANCH   4   7
HETATM    7  C   UNL     1      41.597 -14.453   0.660  1.00  0.00     0.037 A 
HETATM    8  C   UNL     1      42.138 -13.290   0.094  1.00  0.00     0.046 A 
HETATM    9  C   UNL     1      42.105 -13.116  -1.307  1.00  0.00     0.030 A 
HETATM   10  C   UNL     1      41.554 -14.119  -2.093  1.00  0.00     0.063 A 
HETATM   11  C   UNL     1      42.502 -12.100  -2.226  1.00  0.00     0.156 A 
HETATM   12  N   UNL     1      41.683 -13.681  -3.381  1.00  0.00    -0.277 N 
HETATM   13  C   UNL     1      41.005 -15.290  -1.563  1.00  0.00     0.034 A 
HETATM   14  H   UNL     1      41.396 -14.164  -4.224  1.00  0.00     0.189 HD
HETATM   15  N   UNL     1      42.248 -12.468  -3.503  1.00  0.00    -0.168 NA
HETATM   16  C   UNL     1      41.027 -15.427  -0.169  1.00  0.00     0.032 A 
BRANCH  11  17
HETATM   17  C   UNL     1      43.099 -10.794  -1.914  1.00  0.00     0.270 C 
HETATM   18  N   UNL     1      42.775  -9.806  -2.804  1.00  0.00    -0.365 N 
HETATM   19  H   UNL     1      42.146 -10.029  -3.567  1.00  0.00     0.159 HD
HETATM   20  H   UNL     1      43.105  -8.867  -2.650  1.00  0.00     0.159 HD
HETATM   21  O   UNL     1      43.813 -10.564  -0.944  1.00  0.00    -0.266 OA
ENDBRANCH  11  17
ENDBRANCH   4   7
BRANCH   2  22
HETATM   22  C   UNL     1      41.146 -16.204   4.427  1.00  0.00     0.153 C 
BRANCH  22  23
HETATM   23  C   UNL     1      42.586 -16.279   4.957  1.00  0.00     0.195 C 
BRANCH  23  24
HETATM   24  O   UNL     1      43.491 -16.343   3.846  1.00  0.00    -0.350 OA
BRANCH  24  25
HETATM   25  C   UNL     1      43.629 -17.623   3.389  1.00  0.00     0.068 A 
HETATM   26  C   UNL     1      43.301 -17.881   2.060  1.00  0.00     0.038 A 
HETATM   27  C   UNL     1      43.456 -19.169   1.544  1.00  0.00     0.026 A 
HETATM   28  C   UNL     1      43.950 -20.183   2.361  1.00  0.00     0.034 A 
HETATM   29 CL   UNL     1      44.143 -21.772   1.729  1.00  0.00    -0.084 Cl
HETATM   30  C   UNL     1      44.298 -19.919   3.687  1.00  0.00     0.026 A 
HETATM   31  C   UNL     1      44.142 -18.632   4.204  1.00  0.00     0.038 A 
ENDBRANCH  24  25
ENDBRANCH  23  24
ENDBRANCH  22  23
ENDBRANCH   2  22
TORSDOF 6
ENDMDL
MODEL 4
REMARK VINA RESULT:      -7.9      4.082      8.801
REMARK  6 active torsions:
REMARK  status: ('A' for Active; 'I' for Inactive)
REMARK       I    between atoms: N_2  and  C_3 
REMARK    1  A    between atoms: N_2  and  C_19 
REMARK       I    between atoms: C_3  and  N_4 
REMARK    2  A    between atoms: N_4  and  C_5 
REMARK    3  A    between atoms: C_12  and  C_13 
REMARK       I    between atoms: C_13  and  N_14 
REMARK    4  A    between atoms: C_19  and  C_20 
REMARK    5  A    between atoms: C_20  and  O_21 
REMARK    6  A    between atoms: O_21  and  C_22 
ROOT
HETATM    1  C   UNL     1      40.394 -14.712  -0.169  1.00  0.00     0.154 C 
HETATM    2  N   UNL     1      41.538 -14.857   0.719  1.00  0.00    -0.336 N 
HETATM    3  C   UNL     1      41.773 -16.152   1.200  1.00  0.00     0.322 C 
HETATM    4  N   UNL     1      42.934 -16.279   1.927  1.00  0.00    -0.309 N 
HETATM    5  O   UNL     1      41.013 -17.081   0.937  1.00  0.00    -0.247 OA
HETATM    6  H   UNL     1      43.653 -15.613   1.695  1.00  0.00     0.170 HD
ENDROOT
BRANCH   4   7
HETATM    7  C   UNL     1      43.332 -17.385   2.706  1.00  0.00     0.037 A 
HETATM    8  C   UNL     1      43.166 -17.440   4.096  1.00  0.00     0.046 A 
HETATM    9  C   UNL     1      43.633 -18.565   4.811  1.00  0.00     0.030 A 
HETATM   10  C   UNL     1      44.229 -19.604   4.109  1.00  0.00     0.063 A 
HETATM   11  C   UNL     1      43.682 -18.965   6.179  1.00  0.00     0.156 A 
HETATM   12  N   UNL     1      44.550 -20.540   5.052  1.00  0.00    -0.277 N 
HETATM   13  C   UNL     1      44.412 -19.582   2.724  1.00  0.00     0.034 A 
HETATM   14  H   UNL     1      44.993 -21.438   4.898  1.00  0.00     0.189 HD
HETATM   15  N   UNL     1      44.239 -20.191   6.311  1.00  0.00    -0.168 NA
HETATM   16  C   UNL     1      43.963 -18.444   2.041  1.00  0.00     0.032 A 
BRANCH  11  17
HETATM   17  C   UNL     1      43.229 -18.204   7.352  1.00  0.00     0.270 C 
HETATM   18  N   UNL     1      43.903 -18.501   8.505  1.00  0.00    -0.365 N 
HETATM   19  H   UNL     1      44.660 -19.175   8.463  1.00  0.00     0.159 HD
HETATM   20  H   UNL     1      43.689 -18.000   9.353  1.00  0.00     0.159 HD
HETATM   21  O   UNL     1      42.341 -17.358   7.337  1.00  0.00    -0.266 OA
ENDBRANCH  11  17
ENDBRANCH   4   7
BRANCH   2  22
HETATM   22  C   UNL     1      41.939 -13.648   1.462  1.00  0.00     0.153 C 
BRANCH  22  23
HETATM   23  C   UNL     1      41.668 -12.343   0.697  1.00  0.00     0.195 C 
BRANCH  23  24
HETATM   24  O   UNL     1      42.910 -11.825   0.201  1.00  0.00    -0.350 OA
BRANCH  24  25
HETATM   25  C   UNL     1      42.798 -11.421  -1.099  1.00  0.00     0.068 A 
HETATM   26  C   UNL     1      42.560 -12.394  -2.067  1.00  0.00     0.038 A 
HETATM   27  C   UNL     1      42.409 -12.022  -3.404  1.00  0.00     0.026 A 
HETATM   28  C   UNL     1      42.482 -10.676  -3.756  1.00  0.00     0.034 A 
HETATM   29 CL   UNL     1      42.295 -10.211  -5.402  1.00  0.00    -0.084 Cl
HETATM   30  C   UNL     1      42.699  -9.699  -2.782  1.00  0.00     0.026 A 
HETATM   31  C   UNL     1      42.853 -10.071  -1.446  1.00  0.00     0.038 A 
ENDBRANCH  24  25
ENDBRANCH  23  24
ENDBRANCH  22  23
ENDBRANCH   2  22
TORSDOF 6
ENDMDL
MODEL 5
REMARK VINA RESULT:      -7.8      3.364      8.006
REMARK  6 active torsions:
REMARK  status: ('A' for Active; 'I' for Inactive)
REMARK       I    between atoms: N_2  and  C_3 
REMARK    1  A    between atoms: N_2  and  C_19 
REMARK       I    between atoms: C_3  and  N_4 
REMARK    2  A    between atoms: N_4  and  C_5 
REMARK    3  A    between atoms: C_12  and  C_13 
REMARK       I    between atoms: C_13  and  N_14 
REMARK    4  A    between atoms: C_19  and  C_20 
REMARK    5  A    between atoms: C_20  and  O_21 
REMARK    6  A    between atoms: O_21  and  C_22 
ROOT
HETATM    1  C   UNL     1      39.890 -13.432   2.658  1.00  0.00     0.154 C 
HETATM    2  N   UNL     1      40.979 -14.193   2.063  1.00  0.00    -0.336 N 
HETATM    3  C   UNL     1      41.226 -15.449   2.636  1.00  0.00     0.322 C 
HETATM    4  N   UNL     1      42.170 -16.195   1.968  1.00  0.00    -0.309 N 
HETATM    5  O   UNL     1      40.602 -15.838   3.620  1.00  0.00    -0.247 OA
HETATM    6  H   UNL     1      42.260 -15.982   0.988  1.00  0.00     0.170 HD
ENDROOT
BRANCH   4   7
HETATM    7  C   UNL     1      42.777 -17.389   2.410  1.00  0.00     0.037 A 
HETATM    8  C   UNL     1      43.257 -17.563   3.714  1.00  0.00     0.046 A 
HETATM    9  C   UNL     1      43.895 -18.773   4.067  1.00  0.00     0.030 A 
HETATM   10  C   UNL     1      44.009 -19.773   3.110  1.00  0.00     0.063 A 
HETATM   11  C   UNL     1      44.526 -19.301   5.232  1.00  0.00     0.156 A 
HETATM   12  N   UNL     1      44.638 -20.808   3.742  1.00  0.00    -0.277 N 
HETATM   13  C   UNL     1      43.543 -19.633   1.800  1.00  0.00     0.034 A 
HETATM   14  H   UNL     1      44.880 -21.710   3.350  1.00  0.00     0.189 HD
HETATM   15  N   UNL     1      44.968 -20.562   5.022  1.00  0.00    -0.168 NA
HETATM   16  C   UNL     1      42.937 -18.413   1.469  1.00  0.00     0.032 A 
BRANCH  11  17
HETATM   17  C   UNL     1      44.726 -18.629   6.524  1.00  0.00     0.270 C 
HETATM   18  N   UNL     1      43.898 -19.074   7.519  1.00  0.00    -0.365 N 
HETATM   19  H   UNL     1      43.253 -19.827   7.310  1.00  0.00     0.159 HD
HETATM   20  H   UNL     1      43.990 -18.700   8.450  1.00  0.00     0.159 HD
HETATM   21  O   UNL     1      45.561 -17.757   6.737  1.00  0.00    -0.266 OA
ENDBRANCH  11  17
ENDBRANCH   4   7
BRANCH   2  22
HETATM   22  C   UNL     1      42.029 -13.406   1.392  1.00  0.00     0.153 C 
BRANCH  22  23
HETATM   23  C   UNL     1      41.834 -13.297  -0.129  1.00  0.00     0.195 C 
BRANCH  23  24
HETATM   24  O   UNL     1      41.596 -14.605  -0.665  1.00  0.00    -0.350 OA
BRANCH  24  25
HETATM   25  C   UNL     1      40.518 -14.612  -1.503  1.00  0.00     0.068 A 
HETATM   26  C   UNL     1      40.620 -15.329  -2.694  1.00  0.00     0.038 A 
HETATM   27  C   UNL     1      39.532 -15.387  -3.566  1.00  0.00     0.026 A 
HETATM   28  C   UNL     1      38.346 -14.738  -3.229  1.00  0.00     0.034 A 
HETATM   29 CL   UNL     1      37.000 -14.807  -4.300  1.00  0.00    -0.084 Cl
HETATM   30  C   UNL     1      38.237 -14.037  -2.027  1.00  0.00     0.026 A 
HETATM   31  C   UNL     1      39.326 -13.977  -1.156  1.00  0.00     0.038 A 
ENDBRANCH  24  25
ENDBRANCH  23  24
ENDBRANCH  22  23
ENDBRANCH   2  22
TORSDOF 6
ENDMDL
MODEL 6
REMARK VINA RESULT:      -7.8      3.698      6.695
REMARK  6 active torsions:
REMARK  status: ('A' for Active; 'I' for Inactive)
REMARK       I    between atoms: N_2  and  C_3 
REMARK    1  A    between atoms: N_2  and  C_19 
REMARK       I    between atoms: C_3  and  N_4 
REMARK    2  A    between atoms: N_4  and  C_5 
REMARK    3  A    between atoms: C_12  and  C_13 
REMARK       I    between atoms: C_13  and  N_14 
REMARK    4  A    between atoms: C_19  and  C_20 
REMARK    5  A    between atoms: C_20  and  O_21 
REMARK    6  A    between atoms: O_21  and  C_22 
ROOT
HETATM    1  C   UNL     1      41.591 -12.292   5.702  1.00  0.00     0.154 C 
HETATM    2  N   UNL     1      41.162 -13.681   5.775  1.00  0.00    -0.336 N 
HETATM    3  C   UNL     1      42.189 -14.630   5.862  1.00  0.00     0.322 C 
HETATM    4  N   UNL     1      41.748 -15.918   6.063  1.00  0.00    -0.309 N 
HETATM    5  O   UNL     1      43.372 -14.301   5.807  1.00  0.00    -0.247 OA
HETATM    6  H   UNL     1      40.857 -15.992   6.525  1.00  0.00     0.170 HD
ENDROOT
BRANCH   4   7
HETATM    7  C   UNL     1      42.514 -17.100   5.982  1.00  0.00     0.037 A 
HETATM    8  C   UNL     1      42.859 -17.705   4.766  1.00  0.00     0.046 A 
HETATM    9  C   UNL     1      43.589 -18.913   4.771  1.00  0.00     0.030 A 
HETATM   10  C   UNL     1      43.968 -19.462   5.989  1.00  0.00     0.063 A 
HETATM   11  C   UNL     1      44.081 -19.821   3.786  1.00  0.00     0.156 A 
HETATM   12  N   UNL     1      44.666 -20.594   5.674  1.00  0.00    -0.277 N 
HETATM   13  C   UNL     1      43.640 -18.887   7.219  1.00  0.00     0.034 A 
HETATM   14  H   UNL     1      45.101 -21.245   6.317  1.00  0.00     0.189 HD
HETATM   15  N   UNL     1      44.755 -20.846   4.357  1.00  0.00    -0.168 NA
HETATM   16  C   UNL     1      42.893 -17.702   7.188  1.00  0.00     0.032 A 
BRANCH  11  17
HETATM   17  C   UNL     1      43.911 -19.739   2.328  1.00  0.00     0.270 C 
HETATM   18  N   UNL     1      43.623 -20.937   1.732  1.00  0.00    -0.365 N 
HETATM   19  H   UNL     1      43.520 -21.757   2.319  1.00  0.00     0.159 HD
HETATM   20  H   UNL     1      43.450 -20.973   0.741  1.00  0.00     0.159 HD
HETATM   21  O   UNL     1      43.994 -18.708   1.670  1.00  0.00    -0.266 OA
ENDBRANCH  11  17
ENDBRANCH   4   7
BRANCH   2  22
HETATM   22  C   UNL     1      39.847 -13.985   5.182  1.00  0.00     0.153 C 
BRANCH  22  23
HETATM   23  C   UNL     1      39.870 -14.061   3.647  1.00  0.00     0.195 C 
BRANCH  23  24
HETATM   24  O   UNL     1      40.279 -15.376   3.250  1.00  0.00    -0.350 OA
BRANCH  24  25
HETATM   25  C   UNL     1      40.493 -15.446   1.903  1.00  0.00     0.068 A 
HETATM   26  C   UNL     1      39.955 -14.439   1.103  1.00  0.00     0.038 A 
HETATM   27  C   UNL     1      40.174 -14.455  -0.275  1.00  0.00     0.026 A 
HETATM   28  C   UNL     1      40.943 -15.472  -0.838  1.00  0.00     0.034 A 
HETATM   29 CL   UNL     1      41.217 -15.496  -2.536  1.00  0.00    -0.084 Cl
HETATM   30  C   UNL     1      41.499 -16.469  -0.034  1.00  0.00     0.026 A 
HETATM   31  C   UNL     1      41.278 -16.455   1.345  1.00  0.00     0.038 A 
ENDBRANCH  24  25
ENDBRANCH  23  24
ENDBRANCH  22  23
ENDBRANCH   2  22
TORSDOF 6
ENDMDL
MODEL 7
REMARK VINA RESULT:      -7.7      2.937      7.217
REMARK  6 active torsions:
REMARK  status: ('A' for Active; 'I' for Inactive)
REMARK       I    between atoms: N_2  and  C_3 
REMARK    1  A    between atoms: N_2  and  C_19 
REMARK       I    between atoms: C_3  and  N_4 
REMARK    2  A    between atoms: N_4  and  C_5 
REMARK    3  A    between atoms: C_12  and  C_13 
REMARK       I    between atoms: C_13  and  N_14 
REMARK    4  A    between atoms: C_19  and  C_20 
REMARK    5  A    between atoms: C_20  and  O_21 
REMARK    6  A    between atoms: O_21  and  C_22 
ROOT
HETATM    1  C   UNL     1      39.748 -14.047   1.351  1.00  0.00     0.154 C 
HETATM    2  N   UNL     1      41.127 -14.482   1.521  1.00  0.00    -0.336 N 
HETATM    3  C   UNL     1      41.304 -15.841   1.817  1.00  0.00     0.322 C 
HETATM    4  N   UNL     1      42.619 -16.244   1.840  1.00  0.00    -0.309 N 
HETATM    5  O   UNL     1      40.344 -16.589   1.988  1.00  0.00    -0.247 OA
HETATM    6  H   UNL     1      43.239 -15.695   1.268  1.00  0.00     0.170 HD
ENDROOT
BRANCH   4   7
HETATM    7  C   UNL     1      43.121 -17.477   2.305  1.00  0.00     0.037 A 
HETATM    8  C   UNL     1      43.448 -17.711   3.648  1.00  0.00     0.046 A 
HETATM    9  C   UNL     1      43.989 -18.958   4.028  1.00  0.00     0.030 A 
HETATM   10  C   UNL     1      44.163 -19.935   3.056  1.00  0.00     0.063 A 
HETATM   11  C   UNL     1      44.465 -19.547   5.237  1.00  0.00     0.156 A 
HETATM   12  N   UNL     1      44.673 -21.016   3.719  1.00  0.00    -0.277 N 
HETATM   13  C   UNL     1      43.849 -19.737   1.710  1.00  0.00     0.034 A 
HETATM   14  H   UNL     1      44.916 -21.918   3.325  1.00  0.00     0.189 HD
HETATM   15  N   UNL     1      44.871 -20.822   5.034  1.00  0.00    -0.168 NA
HETATM   16  C   UNL     1      43.338 -18.482   1.354  1.00  0.00     0.032 A 
BRANCH  11  17
HETATM   17  C   UNL     1      44.553 -18.922   6.564  1.00  0.00     0.270 C 
HETATM   18  N   UNL     1      45.400 -17.848   6.620  1.00  0.00    -0.365 N 
HETATM   19  H   UNL     1      45.863 -17.553   5.768  1.00  0.00     0.159 HD
HETATM   20  H   UNL     1      45.494 -17.330   7.478  1.00  0.00     0.159 HD
HETATM   21  O   UNL     1      43.927 -19.288   7.553  1.00  0.00    -0.266 OA
ENDBRANCH  11  17
ENDBRANCH   4   7
BRANCH   2  22
HETATM   22  C   UNL     1      42.086 -13.445   1.946  1.00  0.00     0.153 C 
BRANCH  22  23
HETATM   23  C   UNL     1      41.439 -12.305   2.747  1.00  0.00     0.195 C 
BRANCH  23  24
HETATM   24  O   UNL     1      42.104 -12.185   4.012  1.00  0.00    -0.350 OA
BRANCH  24  25
HETATM   25  C   UNL     1      41.988 -13.331   4.746  1.00  0.00     0.068 A 
HETATM   26  C   UNL     1      40.709 -13.833   4.975  1.00  0.00     0.038 A 
HETATM   27  C   UNL     1      40.546 -15.018   5.695  1.00  0.00     0.026 A 
HETATM   28  C   UNL     1      41.668 -15.695   6.167  1.00  0.00     0.034 A 
HETATM   29 CL   UNL     1      41.474 -17.156   7.055  1.00  0.00    -0.084 Cl
HETATM   30  C   UNL     1      42.951 -15.202   5.920  1.00  0.00     0.026 A 
HETATM   31  C   UNL     1      43.114 -14.017   5.202  1.00  0.00     0.038 A 
ENDBRANCH  24  25
ENDBRANCH  23  24
ENDBRANCH  22  23
ENDBRANCH   2  22
TORSDOF 6
ENDMDL
MODEL 8
REMARK VINA RESULT:      -7.6      3.519      8.043
REMARK  6 active torsions:
REMARK  status: ('A' for Active; 'I' for Inactive)
REMARK       I    between atoms: N_2  and  C_3 
REMARK    1  A    between atoms: N_2  and  C_19 
REMARK       I    between atoms: C_3  and  N_4 
REMARK    2  A    between atoms: N_4  and  C_5 
REMARK    3  A    between atoms: C_12  and  C_13 
REMARK       I    between atoms: C_13  and  N_14 
REMARK    4  A    between atoms: C_19  and  C_20 
REMARK    5  A    between atoms: C_20  and  O_21 
REMARK    6  A    between atoms: O_21  and  C_22 
ROOT
HETATM    1  C   UNL     1      40.251 -12.912   2.759  1.00  0.00     0.154 C 
HETATM    2  N   UNL     1      40.106 -14.354   2.623  1.00  0.00    -0.336 N 
HETATM    3  C   UNL     1      41.251 -15.109   2.913  1.00  0.00     0.322 C 
HETATM    4  N   UNL     1      41.043 -16.469   2.903  1.00  0.00    -0.309 N 
HETATM    5  O   UNL     1      42.320 -14.571   3.193  1.00  0.00    -0.247 OA
HETATM    6  H   UNL     1      40.100 -16.754   3.108  1.00  0.00     0.170 HD
ENDROOT
BRANCH   4   7
HETATM    7  C   UNL     1      42.028 -17.479   2.947  1.00  0.00     0.037 A 
HETATM    8  C   UNL     1      42.445 -18.087   4.138  1.00  0.00     0.046 A 
HETATM    9  C   UNL     1      43.470 -19.058   4.104  1.00  0.00     0.030 A 
HETATM   10  C   UNL     1      44.024 -19.403   2.879  1.00  0.00     0.063 A 
HETATM   11  C   UNL     1      44.171 -19.846   5.064  1.00  0.00     0.156 A 
HETATM   12  N   UNL     1      44.955 -20.363   3.161  1.00  0.00    -0.277 N 
HETATM   13  C   UNL     1      43.633 -18.817   1.672  1.00  0.00     0.034 A 
HETATM   14  H   UNL     1      45.549 -20.853   2.503  1.00  0.00     0.189 HD
HETATM   15  N   UNL     1      45.075 -20.657   4.467  1.00  0.00    -0.168 NA
HETATM   16  C   UNL     1      42.633 -17.838   1.736  1.00  0.00     0.032 A 
BRANCH  11  17
HETATM   17  C   UNL     1      44.009 -19.833   6.525  1.00  0.00     0.270 C 
HETATM   18  N   UNL     1      43.622 -21.034   7.055  1.00  0.00    -0.365 N 
HETATM   19  H   UNL     1      43.511 -21.825   6.430  1.00  0.00     0.159 HD
HETATM   20  H   UNL     1      43.524 -21.132   8.052  1.00  0.00     0.159 HD
HETATM   21  O   UNL     1      44.209 -18.859   7.243  1.00  0.00    -0.266 OA
ENDBRANCH  11  17
ENDBRANCH   4   7
BRANCH   2  22
HETATM   22  C   UNL     1      39.066 -14.815   1.686  1.00  0.00     0.153 C 
BRANCH  22  23
HETATM   23  C   UNL     1      39.240 -14.269   0.261  1.00  0.00     0.195 C 
BRANCH  23  24
HETATM   24  O   UNL     1      40.421 -14.839  -0.318  1.00  0.00    -0.350 OA
BRANCH  24  25
HETATM   25  C   UNL     1      40.927 -14.043  -1.305  1.00  0.00     0.068 A 
HETATM   26  C   UNL     1      40.295 -14.060  -2.547  1.00  0.00     0.038 A 
HETATM   27  C   UNL     1      40.761 -13.239  -3.575  1.00  0.00     0.026 A 
HETATM   28  C   UNL     1      41.847 -12.397  -3.345  1.00  0.00     0.034 A 
HETATM   29 CL   UNL     1      42.425 -11.383  -4.609  1.00  0.00    -0.084 Cl
HETATM   30  C   UNL     1      42.468 -12.365  -2.095  1.00  0.00     0.026 A 
HETATM   31  C   UNL     1      42.003 -13.188  -1.067  1.00  0.00     0.038 A 
ENDBRANCH  24  25
ENDBRANCH  23  24
ENDBRANCH  22  23
ENDBRANCH   2  22
TORSDOF 6
ENDMDL
MODEL 9
REMARK VINA RESULT:      -7.5      5.485      8.694
REMARK  6 active torsions:
REMARK  status: ('A' for Active; 'I' for Inactive)
REMARK       I    between atoms: N_2  and  C_3 
REMARK    1  A    between atoms: N_2  and  C_19 
REMARK       I    between atoms: C_3  and  N_4 
REMARK    2  A    between atoms: N_4  and  C_5 
REMARK    3  A    between atoms: C_12  and  C_13 
REMARK       I    between atoms: C_13  and  N_14 
REMARK    4  A    between atoms: C_19  and  C_20 
REMARK    5  A    between atoms: C_20  and  O_21 
REMARK    6  A    between atoms: O_21  and  C_22 
ROOT
HETATM    1  C   UNL     1      39.462 -12.652   5.983  1.00  0.00     0.154 C 
HETATM    2  N   UNL     1      40.860 -12.960   5.715  1.00  0.00    -0.336 N 
HETATM    3  C   UNL     1      41.179 -14.323   5.643  1.00  0.00     0.322 C 
HETATM    4  N   UNL     1      42.476 -14.576   5.259  1.00  0.00    -0.309 N 
HETATM    5  O   UNL     1      40.337 -15.190   5.864  1.00  0.00    -0.247 OA
HETATM    6  H   UNL     1      42.897 -13.856   4.695  1.00  0.00     0.170 HD
ENDROOT
BRANCH   4   7
HETATM    7  C   UNL     1      43.146 -15.816   5.298  1.00  0.00     0.037 A 
HETATM    8  C   UNL     1      43.192 -16.694   4.206  1.00  0.00     0.046 A 
HETATM    9  C   UNL     1      43.845 -17.939   4.339  1.00  0.00     0.030 A 
HETATM   10  C   UNL     1      44.447 -18.253   5.551  1.00  0.00     0.063 A 
HETATM   11  C   UNL     1      44.068 -19.076   3.508  1.00  0.00     0.156 A 
HETATM   12  N   UNL     1      45.004 -19.487   5.368  1.00  0.00    -0.277 N 
HETATM   13  C   UNL     1      44.420 -17.403   6.659  1.00  0.00     0.034 A 
HETATM   14  H   UNL     1      45.534 -20.027   6.043  1.00  0.00     0.189 HD
HETATM   15  N   UNL     1      44.796 -20.018   4.152  1.00  0.00    -0.168 NA
HETATM   16  C   UNL     1      43.744 -16.185   6.509  1.00  0.00     0.032 A 
BRANCH  11  17
HETATM   17  C   UNL     1      43.594 -19.288   2.133  1.00  0.00     0.270 C 
HETATM   18  N   UNL     1      43.220 -20.577   1.864  1.00  0.00    -0.365 N 
HETATM   19  H   UNL     1      43.264 -21.260   2.612  1.00  0.00     0.159 HD
HETATM   20  H   UNL     1      42.844 -20.809   0.959  1.00  0.00     0.159 HD
HETATM   21  O   UNL     1      43.509 -18.412   1.279  1.00  0.00    -0.266 OA
ENDBRANCH  11  17
ENDBRANCH   4   7
BRANCH   2  22
HETATM   22  C   UNL     1      41.838 -11.934   6.122  1.00  0.00     0.153 C 
BRANCH  22  23
HETATM   23  C   UNL     1      41.417 -11.151   7.375  1.00  0.00     0.195 C 
BRANCH  23  24
HETATM   24  O   UNL     1      42.567 -10.493   7.925  1.00  0.00    -0.350 OA
BRANCH  24  25
HETATM   25  C   UNL     1      42.572 -10.554   9.289  1.00  0.00     0.068 A 
HETATM   26  C   UNL     1      43.803 -10.644   9.934  1.00  0.00     0.038 A 
HETATM   27  C   UNL     1      43.856 -10.679  11.329  1.00  0.00     0.026 A 
HETATM   28  C   UNL     1      42.674 -10.608  12.064  1.00  0.00     0.034 A 
HETATM   29 CL   UNL     1      42.733 -10.650  13.783  1.00  0.00    -0.084 Cl
HETATM   30  C   UNL     1      41.442 -10.497  11.417  1.00  0.00     0.026 A 
HETATM   31  C   UNL     1      41.389 -10.464  10.022  1.00  0.00     0.038 A 
ENDBRANCH  24  25
ENDBRANCH  23  24
ENDBRANCH  22  23
ENDBRANCH   2  22
TORSDOF 6
ENDMDL
MODEL 10
REMARK VINA RESULT:      -7.4      2.584      4.178
REMARK  6 active torsions:
REMARK  status: ('A' for Active; 'I' for Inactive)
REMARK       I    between atoms: N_2  and  C_3 
REMARK    1  A    between atoms: N_2  and  C_19 
REMARK       I    between atoms: C_3  and  N_4 
REMARK    2  A    between atoms: N_4  and  C_5 
REMARK    3  A    between atoms: C_12  and  C_13 
REMARK       I    between atoms: C_13  and  N_14 
REMARK    4  A    between atoms: C_19  and  C_20 
REMARK    5  A    between atoms: C_20  and  O_21 
REMARK    6  A    between atoms: O_21  and  C_22 
ROOT
HETATM    1  C   UNL     1      43.691 -19.104   3.063  1.00  0.00     0.154 C 
HETATM    2  N   UNL     1      42.534 -18.251   3.293  1.00  0.00    -0.336 N 
HETATM    3  C   UNL     1      42.064 -17.550   2.173  1.00  0.00     0.322 C 
HETATM    4  N   UNL     1      40.894 -16.860   2.394  1.00  0.00    -0.309 N 
HETATM    5  O   UNL     1      42.644 -17.608   1.092  1.00  0.00    -0.247 OA
HETATM    6  H   UNL     1      40.310 -17.239   3.121  1.00  0.00     0.170 HD
ENDROOT
BRANCH   4   7
HETATM    7  C   UNL     1      40.296 -15.909   1.541  1.00  0.00     0.037 A 
HETATM    8  C   UNL     1      40.841 -15.544   0.303  1.00  0.00     0.046 A 
HETATM    9  C   UNL     1      40.208 -14.548  -0.472  1.00  0.00     0.030 A 
HETATM   10  C   UNL     1      39.039 -13.970   0.006  1.00  0.00     0.063 A 
HETATM   11  C   UNL     1      40.460 -13.899  -1.718  1.00  0.00     0.156 A 
HETATM   12  N   UNL     1      38.658 -13.077  -0.955  1.00  0.00    -0.277 N 
HETATM   13  C   UNL     1      38.469 -14.309   1.236  1.00  0.00     0.034 A 
HETATM   14  H   UNL     1      37.840 -12.479  -0.947  1.00  0.00     0.189 HD
HETATM   15  N   UNL     1      39.488 -13.004  -2.009  1.00  0.00    -0.168 NA
HETATM   16  C   UNL     1      39.131 -15.280   1.998  1.00  0.00     0.032 A 
BRANCH  11  17
HETATM   17  C   UNL     1      41.603 -14.103  -2.618  1.00  0.00     0.270 C 
HETATM   18  N   UNL     1      42.704 -13.354  -2.300  1.00  0.00    -0.365 N 
HETATM   19  H   UNL     1      42.665 -12.761  -1.479  1.00  0.00     0.159 HD
HETATM   20  H   UNL     1      43.550 -13.457  -2.837  1.00  0.00     0.159 HD
HETATM   21  O   UNL     1      41.616 -14.877  -3.569  1.00  0.00    -0.266 OA
ENDBRANCH  11  17
ENDBRANCH   4   7
BRANCH   2  22
HETATM   22  C   UNL     1      42.355 -17.759   4.671  1.00  0.00     0.153 C 
BRANCH  22  23
HETATM   23  C   UNL     1      43.417 -16.735   5.098  1.00  0.00     0.195 C 
BRANCH  23  24
HETATM   24  O   UNL     1      42.765 -15.602   5.689  1.00  0.00    -0.350 OA
BRANCH  24  25
HETATM   25  C   UNL     1      42.412 -14.682   4.744  1.00  0.00     0.068 A 
HETATM   26  C   UNL     1      41.227 -13.973   4.933  1.00  0.00     0.038 A 
HETATM   27  C   UNL     1      40.842 -13.002   4.007  1.00  0.00     0.026 A 
HETATM   28  C   UNL     1      41.657 -12.740   2.908  1.00  0.00     0.034 A 
HETATM   29 CL   UNL     1      41.188 -11.543   1.763  1.00  0.00    -0.084 Cl
HETATM   30  C   UNL     1      42.854 -13.435   2.729  1.00  0.00     0.026 A 
HETATM   31  C   UNL     1      43.238 -14.408   3.654  1.00  0.00     0.038 A 
ENDBRANCH  24  25
ENDBRANCH  23  24
ENDBRANCH  22  23
ENDBRANCH   2  22
TORSDOF 6
ENDMDL
