MODEL 1
REMARK VINA RESULT:      -8.6      0.000      0.000
REMARK  3 active torsions:
REMARK  status: ('A' for Active; 'I' for Inactive)
REMARK    1  A    between atoms: C_8  and  C_9 
REMARK    2  A    between atoms: C_14  and  C_15 
REMARK    3  A    between atoms: C_17  and  O_18 
ROOT
HETATM    1  C   UNL     1      39.870 -13.728   3.075  1.00  0.00     0.143 A 
HETATM    2  N   UNL     1      41.161 -13.486   3.109  1.00  0.00    -0.223 NA
HETATM    3  C   UNL     1      41.767 -14.574   3.719  1.00  0.00     0.149 A 
HETATM    4  C   UNL     1      40.800 -15.515   4.043  1.00  0.00     0.046 A 
HETATM    5  C   UNL     1      40.801 -16.846   4.714  1.00  0.00     0.070 C 
HETATM    6  C   UNL     1      42.145 -17.361   5.261  1.00  0.00     0.042 C 
HETATM    7  C   UNL     1      43.023 -16.246   5.849  1.00  0.00     0.132 C 
HETATM    8  N   UNL     1      43.737 -15.464   4.866  1.00  0.00    -0.355 N 
HETATM    9  C   UNL     1      43.219 -14.612   3.925  1.00  0.00     0.272 C 
HETATM   10  O   UNL     1      44.003 -13.906   3.290  1.00  0.00    -0.266 OA
HETATM   11  N   UNL     1      39.616 -14.962   3.602  1.00  0.00    -0.341 N 
HETATM   12  H   UNL     1      38.703 -15.381   3.682  1.00  0.00     0.167 HD
HETATM   13  H   UNL     1      44.746 -15.410   4.921  1.00  0.00     0.162 HD
ENDROOT
BRANCH   1  14
HETATM   14  C   UNL     1      38.856 -12.773   2.552  1.00  0.00     0.059 A 
HETATM   15  C   UNL     1      38.430 -11.587   3.119  1.00  0.00     0.040 A 
HETATM   16  C   UNL     1      38.768 -10.861   4.363  1.00  0.00     0.071 C 
HETATM   17  N   UNL     1      37.504 -11.087   2.240  1.00  0.00    -0.281 N 
HETATM   18  H   UNL     1      36.971 -10.227   2.316  1.00  0.00     0.189 HD
HETATM   19  N   UNL     1      37.304 -11.849   1.159  1.00  0.00    -0.179 NA
HETATM   20  C   UNL     1      38.129 -12.891   1.339  1.00  0.00     0.067 A 
HETATM   21  C   UNL     1      38.195 -13.973   0.324  1.00  0.00     0.073 C 
ENDBRANCH   1  14
BRANCH   6  22
HETATM   22  C   UNL     1      42.930 -18.295   4.346  1.00  0.00    -0.049 A 
HETATM   23  C   UNL     1      43.838 -19.207   4.925  1.00  0.00     0.044 A 
HETATM   24  C   UNL     1      44.597 -20.074   4.135  1.00  0.00     0.068 A 
HETATM   25  C   UNL     1      44.450 -20.033   2.750  1.00  0.00     0.037 A 
HETATM   26  C   UNL     1      43.565 -19.132   2.158  1.00  0.00     0.003 A 
HETATM   27  C   UNL     1      42.810 -18.266   2.950  1.00  0.00     0.007 A 
BRANCH  24  28
HETATM   28  O   UNL     1      45.502 -20.993   4.589  1.00  0.00    -0.356 OA
HETATM   29  C   UNL     1      44.981 -22.209   5.111  1.00  0.00     0.210 C 
ENDBRANCH  24  28
ENDBRANCH   6  22
TORSDOF 3
ENDMDL
MODEL 2
REMARK VINA RESULT:      -8.6      2.762      3.510
REMARK  3 active torsions:
REMARK  status: ('A' for Active; 'I' for Inactive)
REMARK    1  A    between atoms: C_8  and  C_9 
REMARK    2  A    between atoms: C_14  and  C_15 
REMARK    3  A    between atoms: C_17  and  O_18 
ROOT
HETATM    1  C   UNL     1      40.923 -14.274  -0.311  1.00  0.00     0.143 A 
HETATM    2  N   UNL     1      41.755 -13.798   0.587  1.00  0.00    -0.223 NA
HETATM    3  C   UNL     1      41.758 -14.683   1.655  1.00  0.00     0.149 A 
HETATM    4  C   UNL     1      40.908 -15.744   1.372  1.00  0.00     0.046 A 
HETATM    5  C   UNL     1      40.469 -16.971   2.097  1.00  0.00     0.070 C 
HETATM    6  C   UNL     1      40.989 -17.168   3.532  1.00  0.00     0.042 C 
HETATM    7  C   UNL     1      41.097 -15.854   4.320  1.00  0.00     0.132 C 
HETATM    8  N   UNL     1      42.271 -15.067   4.016  1.00  0.00    -0.355 N 
HETATM    9  C   UNL     1      42.583 -14.433   2.842  1.00  0.00     0.272 C 
HETATM   10  O   UNL     1      43.548 -13.670   2.835  1.00  0.00    -0.266 OA
HETATM   11  N   UNL     1      40.415 -15.468   0.115  1.00  0.00    -0.341 N 
HETATM   12  H   UNL     1      39.760 -16.035  -0.400  1.00  0.00     0.167 HD
HETATM   13  H   UNL     1      42.906 -14.825   4.766  1.00  0.00     0.162 HD
ENDROOT
BRANCH   1  14
HETATM   14  C   UNL     1      40.588 -13.583  -1.585  1.00  0.00     0.059 A 
HETATM   15  C   UNL     1      41.455 -13.041  -2.515  1.00  0.00     0.040 A 
HETATM   16  C   UNL     1      42.928 -12.927  -2.604  1.00  0.00     0.071 C 
HETATM   17  N   UNL     1      40.647 -12.541  -3.503  1.00  0.00    -0.281 N 
HETATM   18  H   UNL     1      40.924 -12.065  -4.356  1.00  0.00     0.189 HD
HETATM   19  N   UNL     1      39.339 -12.719  -3.287  1.00  0.00    -0.179 NA
HETATM   20  C   UNL     1      39.288 -13.358  -2.110  1.00  0.00     0.067 A 
HETATM   21  C   UNL     1      37.977 -13.741  -1.526  1.00  0.00     0.073 C 
ENDBRANCH   1  14
BRANCH   6  22
HETATM   22  C   UNL     1      42.233 -18.038   3.683  1.00  0.00    -0.049 A 
HETATM   23  C   UNL     1      42.631 -18.434   4.977  1.00  0.00     0.044 A 
HETATM   24  C   UNL     1      43.771 -19.216   5.177  1.00  0.00     0.068 A 
HETATM   25  C   UNL     1      44.526 -19.609   4.073  1.00  0.00     0.037 A 
HETATM   26  C   UNL     1      44.154 -19.220   2.786  1.00  0.00     0.003 A 
HETATM   27  C   UNL     1      43.016 -18.437   2.591  1.00  0.00     0.007 A 
BRANCH  24  28
HETATM   28  O   UNL     1      44.246 -19.654   6.382  1.00  0.00    -0.356 OA
HETATM   29  C   UNL     1      43.864 -18.916   7.535  1.00  0.00     0.210 C 
ENDBRANCH  24  28
ENDBRANCH   6  22
TORSDOF 3
ENDMDL
MODEL 3
REMARK VINA RESULT:      -8.5      4.423      6.208
REMARK  3 active torsions:
REMARK  status: ('A' for Active; 'I' for Inactive)
REMARK    1  A    between atoms: C_8  and  C_9 
REMARK    2  A    between atoms: C_14  and  C_15 
REMARK    3  A    between atoms: C_17  and  O_18 
ROOT
HETATM    1  C   UNL     1      44.598 -13.727   7.654  1.00  0.00     0.143 A 
HETATM    2  N   UNL     1      44.215 -14.800   8.308  1.00  0.00    -0.223 NA
HETATM    3  C   UNL     1      43.657 -15.669   7.382  1.00  0.00     0.149 A 
HETATM    4  C   UNL     1      43.731 -15.099   6.118  1.00  0.00     0.046 A 
HETATM    5  C   UNL     1      43.300 -15.502   4.749  1.00  0.00     0.070 C 
HETATM    6  C   UNL     1      42.533 -16.829   4.611  1.00  0.00     0.042 C 
HETATM    7  C   UNL     1      41.580 -17.099   5.786  1.00  0.00     0.132 C 
HETATM    8  N   UNL     1      42.224 -17.609   6.974  1.00  0.00    -0.355 N 
HETATM    9  C   UNL     1      43.115 -16.967   7.795  1.00  0.00     0.272 C 
HETATM   10  O   UNL     1      43.421 -17.512   8.856  1.00  0.00    -0.266 OA
HETATM   11  N   UNL     1      44.351 -13.885   6.320  1.00  0.00    -0.341 N 
HETATM   12  H   UNL     1      44.563 -13.204   5.607  1.00  0.00     0.167 HD
HETATM   13  H   UNL     1      41.919 -18.496   7.356  1.00  0.00     0.162 HD
ENDROOT
BRANCH   1  14
HETATM   14  C   UNL     1      45.193 -12.526   8.299  1.00  0.00     0.059 A 
HETATM   15  C   UNL     1      44.619 -11.690   9.239  1.00  0.00     0.040 A 
HETATM   16  C   UNL     1      43.301 -11.650   9.911  1.00  0.00     0.071 C 
HETATM   17  N   UNL     1      45.580 -10.753   9.513  1.00  0.00    -0.281 N 
HETATM   18  H   UNL     1      45.525  -9.971  10.158  1.00  0.00     0.189 HD
HETATM   19  N   UNL     1      46.720 -10.918   8.833  1.00  0.00    -0.179 NA
HETATM   20  C   UNL     1      46.495 -12.004   8.081  1.00  0.00     0.067 A 
HETATM   21  C   UNL     1      47.554 -12.515   7.173  1.00  0.00     0.073 C 
ENDBRANCH   1  14
BRANCH   6  22
HETATM   22  C   UNL     1      43.367 -18.054   4.248  1.00  0.00    -0.049 A 
HETATM   23  C   UNL     1      43.021 -18.794   3.097  1.00  0.00     0.044 A 
HETATM   24  C   UNL     1      43.737 -19.933   2.727  1.00  0.00     0.068 A 
HETATM   25  C   UNL     1      44.814 -20.343   3.512  1.00  0.00     0.037 A 
HETATM   26  C   UNL     1      45.166 -19.630   4.657  1.00  0.00     0.003 A 
HETATM   27  C   UNL     1      44.446 -18.494   5.026  1.00  0.00     0.007 A 
BRANCH  24  28
HETATM   28  O   UNL     1      43.490 -20.722   1.636  1.00  0.00    -0.356 OA
HETATM   29  C   UNL     1      44.179 -21.964   1.568  1.00  0.00     0.210 C 
ENDBRANCH  24  28
ENDBRANCH   6  22
TORSDOF 3
ENDMDL
MODEL 4
REMARK VINA RESULT:      -8.5      2.338      3.355
REMARK  3 active torsions:
REMARK  status: ('A' for Active; 'I' for Inactive)
REMARK    1  A    between atoms: C_8  and  C_9 
REMARK    2  A    between atoms: C_14  and  C_15 
REMARK    3  A    between atoms: C_17  and  O_18 
ROOT
HETATM    1  C   UNL     1      40.939 -14.671   0.395  1.00  0.00     0.143 A 
HETATM    2  N   UNL     1      41.897 -14.167   1.139  1.00  0.00    -0.223 NA
HETATM    3  C   UNL     1      42.020 -14.979   2.257  1.00  0.00     0.149 A 
HETATM    4  C   UNL     1      41.112 -16.025   2.165  1.00  0.00     0.046 A 
HETATM    5  C   UNL     1      40.741 -17.184   3.026  1.00  0.00     0.070 C 
HETATM    6  C   UNL     1      41.444 -17.304   4.390  1.00  0.00     0.042 C 
HETATM    7  C   UNL     1      41.693 -15.945   5.062  1.00  0.00     0.132 C 
HETATM    8  N   UNL     1      42.836 -15.224   4.550  1.00  0.00    -0.355 N 
HETATM    9  C   UNL     1      43.004 -14.680   3.303  1.00  0.00     0.272 C 
HETATM   10  O   UNL     1      43.981 -13.955   3.114  1.00  0.00    -0.266 OA
HETATM   11  N   UNL     1      40.461 -15.815   0.968  1.00  0.00    -0.341 N 
HETATM   12  H   UNL     1      39.728 -16.392   0.585  1.00  0.00     0.167 HD
HETATM   13  H   UNL     1      43.573 -14.955   5.190  1.00  0.00     0.162 HD
ENDROOT
BRANCH   1  14
HETATM   14  C   UNL     1      40.454 -14.055  -0.870  1.00  0.00     0.059 A 
HETATM   15  C   UNL     1      40.470 -14.595  -2.142  1.00  0.00     0.040 A 
HETATM   16  C   UNL     1      40.943 -15.877  -2.709  1.00  0.00     0.071 C 
HETATM   17  N   UNL     1      39.901 -13.637  -2.940  1.00  0.00    -0.281 N 
HETATM   18  H   UNL     1      39.740 -13.673  -3.942  1.00  0.00     0.189 HD
HETATM   19  N   UNL     1      39.520 -12.533  -2.289  1.00  0.00    -0.179 NA
HETATM   20  C   UNL     1      39.856 -12.776  -1.013  1.00  0.00     0.067 A 
HETATM   21  C   UNL     1      39.580 -11.762   0.036  1.00  0.00     0.073 C 
ENDBRANCH   1  14
BRANCH   6  22
HETATM   22  C   UNL     1      42.673 -18.207   4.436  1.00  0.00    -0.049 A 
HETATM   23  C   UNL     1      43.040 -18.912   3.270  1.00  0.00     0.044 A 
HETATM   24  C   UNL     1      44.145 -19.767   3.259  1.00  0.00     0.068 A 
HETATM   25  C   UNL     1      44.895 -19.921   4.424  1.00  0.00     0.037 A 
HETATM   26  C   UNL     1      44.543 -19.239   5.588  1.00  0.00     0.003 A 
HETATM   27  C   UNL     1      43.437 -18.389   5.596  1.00  0.00     0.007 A 
BRANCH  24  28
HETATM   28  O   UNL     1      44.589 -20.496   2.191  1.00  0.00    -0.356 OA
HETATM   29  C   UNL     1      43.809 -21.622   1.809  1.00  0.00     0.210 C 
ENDBRANCH  24  28
ENDBRANCH   6  22
TORSDOF 3
ENDMDL
MODEL 5
REMARK VINA RESULT:      -8.5      1.871      3.054
REMARK  3 active torsions:
REMARK  status: ('A' for Active; 'I' for Inactive)
REMARK    1  A    between atoms: C_8  and  C_9 
REMARK    2  A    between atoms: C_14  and  C_15 
REMARK    3  A    between atoms: C_17  and  O_18 
ROOT
HETATM    1  C   UNL     1      40.520 -13.759   5.151  1.00  0.00     0.143 A 
HETATM    2  N   UNL     1      41.790 -13.646   5.464  1.00  0.00    -0.223 NA
HETATM    3  C   UNL     1      42.243 -14.910   5.810  1.00  0.00     0.149 A 
HETATM    4  C   UNL     1      41.204 -15.821   5.676  1.00  0.00     0.046 A 
HETATM    5  C   UNL     1      41.042 -17.284   5.908  1.00  0.00     0.070 C 
HETATM    6  C   UNL     1      42.249 -18.045   6.486  1.00  0.00     0.042 C 
HETATM    7  C   UNL     1      43.041 -17.226   7.516  1.00  0.00     0.132 C 
HETATM    8  N   UNL     1      43.945 -16.255   6.941  1.00  0.00    -0.355 N 
HETATM    9  C   UNL     1      43.632 -15.127   6.229  1.00  0.00     0.272 C 
HETATM   10  O   UNL     1      44.539 -14.336   5.970  1.00  0.00    -0.266 OA
HETATM   11  N   UNL     1      40.137 -15.067   5.235  1.00  0.00    -0.341 N 
HETATM   12  H   UNL     1      39.211 -15.414   5.036  1.00  0.00     0.167 HD
HETATM   13  H   UNL     1      44.929 -16.304   7.173  1.00  0.00     0.162 HD
ENDROOT
BRANCH   1  14
HETATM   14  C   UNL     1      39.647 -12.612   4.780  1.00  0.00     0.059 A 
HETATM   15  C   UNL     1      39.040 -12.360   3.564  1.00  0.00     0.040 A 
HETATM   16  C   UNL     1      39.026 -13.056   2.258  1.00  0.00     0.071 C 
HETATM   17  N   UNL     1      38.342 -11.196   3.751  1.00  0.00    -0.281 N 
HETATM   18  H   UNL     1      37.770 -10.695   3.079  1.00  0.00     0.189 HD
HETATM   19  N   UNL     1      38.447 -10.683   4.982  1.00  0.00    -0.179 NA
HETATM   20  C   UNL     1      39.248 -11.544   5.626  1.00  0.00     0.067 A 
HETATM   21  C   UNL     1      39.602 -11.312   7.049  1.00  0.00     0.073 C 
ENDBRANCH   1  14
BRANCH   6  22
HETATM   22  C   UNL     1      43.156 -18.737   5.474  1.00  0.00    -0.049 A 
HETATM   23  C   UNL     1      43.064 -18.366   4.115  1.00  0.00     0.044 A 
HETATM   24  C   UNL     1      43.857 -18.978   3.142  1.00  0.00     0.068 A 
HETATM   25  C   UNL     1      44.754 -19.973   3.525  1.00  0.00     0.037 A 
HETATM   26  C   UNL     1      44.854 -20.360   4.861  1.00  0.00     0.003 A 
HETATM   27  C   UNL     1      44.058 -19.748   5.830  1.00  0.00     0.007 A 
BRANCH  24  28
HETATM   28  O   UNL     1      43.849 -18.697   1.803  1.00  0.00    -0.356 OA
HETATM   29  C   UNL     1      44.079 -17.346   1.425  1.00  0.00     0.210 C 
ENDBRANCH  24  28
ENDBRANCH   6  22
TORSDOF 3
ENDMDL
MODEL 6
REMARK VINA RESULT:      -8.4      1.887      2.792
REMARK  3 active torsions:
REMARK  status: ('A' for Active; 'I' for Inactive)
REMARK    1  A    between atoms: C_8  and  C_9 
REMARK    2  A    between atoms: C_14  and  C_15 
REMARK    3  A    between atoms: C_17  and  O_18 
ROOT
HETATM    1  C   UNL     1      40.508 -13.073   5.574  1.00  0.00     0.143 A 
HETATM    2  N   UNL     1      41.814 -13.071   5.709  1.00  0.00    -0.223 NA
HETATM    3  C   UNL     1      42.210 -14.385   5.909  1.00  0.00     0.149 A 
HETATM    4  C   UNL     1      41.094 -15.210   5.869  1.00  0.00     0.046 A 
HETATM    5  C   UNL     1      40.851 -16.672   6.031  1.00  0.00     0.070 C 
HETATM    6  C   UNL     1      42.062 -17.554   6.384  1.00  0.00     0.042 C 
HETATM    7  C   UNL     1      43.051 -16.867   7.338  1.00  0.00     0.132 C 
HETATM    8  N   UNL     1      43.940 -15.922   6.701  1.00  0.00    -0.355 N 
HETATM    9  C   UNL     1      43.622 -14.727   6.111  1.00  0.00     0.272 C 
HETATM   10  O   UNL     1      44.544 -13.984   5.774  1.00  0.00    -0.266 OA
HETATM   11  N   UNL     1      40.039 -14.355   5.632  1.00  0.00    -0.341 N 
HETATM   12  H   UNL     1      39.070 -14.621   5.546  1.00  0.00     0.167 HD
HETATM   13  H   UNL     1      44.940 -16.056   6.787  1.00  0.00     0.162 HD
ENDROOT
BRANCH   1  14
HETATM   14  C   UNL     1      39.685 -11.846   5.403  1.00  0.00     0.059 A 
HETATM   15  C   UNL     1      38.987 -11.436   4.282  1.00  0.00     0.040 A 
HETATM   16  C   UNL     1      38.803 -11.994   2.924  1.00  0.00     0.071 C 
HETATM   17  N   UNL     1      38.390 -10.258   4.648  1.00  0.00    -0.281 N 
HETATM   18  H   UNL     1      37.794  -9.658   4.087  1.00  0.00     0.189 HD
HETATM   19  N   UNL     1      38.644  -9.879   5.906  1.00  0.00    -0.179 NA
HETATM   20  C   UNL     1      39.441 -10.847   6.382  1.00  0.00     0.067 A 
HETATM   21  C   UNL     1      39.940 -10.782   7.779  1.00  0.00     0.073 C 
ENDBRANCH   1  14
BRANCH   6  22
HETATM   22  C   UNL     1      42.765 -18.232   5.212  1.00  0.00    -0.049 A 
HETATM   23  C   UNL     1      43.696 -19.258   5.480  1.00  0.00     0.044 A 
HETATM   24  C   UNL     1      44.381 -19.901   4.447  1.00  0.00     0.068 A 
HETATM   25  C   UNL     1      44.137 -19.519   3.129  1.00  0.00     0.037 A 
HETATM   26  C   UNL     1      43.227 -18.502   2.844  1.00  0.00     0.003 A 
HETATM   27  C   UNL     1      42.546 -17.859   3.879  1.00  0.00     0.007 A 
BRANCH  24  28
HETATM   28  O   UNL     1      45.301 -20.903   4.592  1.00  0.00    -0.356 OA
HETATM   29  C   UNL     1      44.873 -22.081   5.265  1.00  0.00     0.210 C 
ENDBRANCH  24  28
ENDBRANCH   6  22
TORSDOF 3
ENDMDL
MODEL 7
REMARK VINA RESULT:      -8.2      2.069      3.224
REMARK  3 active torsions:
REMARK  status: ('A' for Active; 'I' for Inactive)
REMARK    1  A    between atoms: C_8  and  C_9 
REMARK    2  A    between atoms: C_14  and  C_15 
REMARK    3  A    between atoms: C_17  and  O_18 
ROOT
HETATM    1  C   UNL     1      40.191 -13.669   3.393  1.00  0.00     0.143 A 
HETATM    2  N   UNL     1      39.700 -14.774   2.879  1.00  0.00    -0.223 NA
HETATM    3  C   UNL     1      40.773 -15.601   2.581  1.00  0.00     0.149 A 
HETATM    4  C   UNL     1      41.953 -14.972   2.954  1.00  0.00     0.046 A 
HETATM    5  C   UNL     1      43.402 -15.313   2.880  1.00  0.00     0.070 C 
HETATM    6  C   UNL     1      43.783 -16.636   2.193  1.00  0.00     0.042 C 
HETATM    7  C   UNL     1      42.893 -16.966   0.985  1.00  0.00     0.132 C 
HETATM    8  N   UNL     1      41.606 -17.528   1.325  1.00  0.00    -0.355 N 
HETATM    9  C   UNL     1      40.563 -16.921   1.975  1.00  0.00     0.272 C 
HETATM   10  O   UNL     1      39.486 -17.513   2.020  1.00  0.00    -0.266 OA
HETATM   11  N   UNL     1      41.550 -13.766   3.485  1.00  0.00    -0.341 N 
HETATM   12  H   UNL     1      42.158 -13.051   3.854  1.00  0.00     0.167 HD
HETATM   13  H   UNL     1      41.352 -18.434   0.950  1.00  0.00     0.162 HD
ENDROOT
BRANCH   1  14
HETATM   14  C   UNL     1      39.367 -12.496   3.790  1.00  0.00     0.059 A 
HETATM   15  C   UNL     1      38.625 -11.661   2.976  1.00  0.00     0.040 A 
HETATM   16  C   UNL     1      38.383 -11.594   1.518  1.00  0.00     0.071 C 
HETATM   17  N   UNL     1      38.048 -10.756   3.829  1.00  0.00    -0.281 N 
HETATM   18  H   UNL     1      37.432  -9.984   3.598  1.00  0.00     0.189 HD
HETATM   19  N   UNL     1      38.355 -10.942   5.118  1.00  0.00    -0.179 NA
HETATM   20  C   UNL     1      39.167 -12.009   5.108  1.00  0.00     0.067 A 
HETATM   21  C   UNL     1      39.723 -12.534   6.381  1.00  0.00     0.073 C 
ENDBRANCH   1  14
BRANCH   6  22
HETATM   22  C   UNL     1      43.983 -17.838   3.111  1.00  0.00    -0.049 A 
HETATM   23  C   UNL     1      44.219 -19.103   2.532  1.00  0.00     0.044 A 
HETATM   24  C   UNL     1      44.391 -20.240   3.323  1.00  0.00     0.068 A 
HETATM   25  C   UNL     1      44.329 -20.118   4.711  1.00  0.00     0.037 A 
HETATM   26  C   UNL     1      44.088 -18.878   5.302  1.00  0.00     0.003 A 
HETATM   27  C   UNL     1      43.914 -17.744   4.508  1.00  0.00     0.007 A 
BRANCH  24  28
HETATM   28  O   UNL     1      44.624 -21.510   2.870  1.00  0.00    -0.356 OA
HETATM   29  C   UNL     1      44.040 -21.868   1.624  1.00  0.00     0.210 C 
ENDBRANCH  24  28
ENDBRANCH   6  22
TORSDOF 3
ENDMDL
MODEL 8
REMARK VINA RESULT:      -8.0      2.565      7.709
REMARK  3 active torsions:
REMARK  status: ('A' for Active; 'I' for Inactive)
REMARK    1  A    between atoms: C_8  and  C_9 
REMARK    2  A    between atoms: C_14  and  C_15 
REMARK    3  A    between atoms: C_17  and  O_18 
ROOT
HETATM    1  C   UNL     1      43.001 -17.509   4.182  1.00  0.00     0.143 A 
HETATM    2  N   UNL     1      43.654 -16.384   4.005  1.00  0.00    -0.223 NA
HETATM    3  C   UNL     1      42.782 -15.492   3.398  1.00  0.00     0.149 A 
HETATM    4  C   UNL     1      41.549 -16.105   3.226  1.00  0.00     0.046 A 
HETATM    5  C   UNL     1      40.241 -15.703   2.632  1.00  0.00     0.070 C 
HETATM    6  C   UNL     1      40.159 -14.311   1.981  1.00  0.00     0.042 C 
HETATM    7  C   UNL     1      41.447 -13.911   1.247  1.00  0.00     0.132 C 
HETATM    8  N   UNL     1      42.504 -13.432   2.110  1.00  0.00    -0.355 N 
HETATM    9  C   UNL     1      43.212 -14.134   3.049  1.00  0.00     0.272 C 
HETATM   10  O   UNL     1      44.190 -13.590   3.562  1.00  0.00    -0.266 OA
HETATM   11  N   UNL     1      41.712 -17.369   3.752  1.00  0.00    -0.341 N 
HETATM   12  H   UNL     1      41.007 -18.089   3.788  1.00  0.00     0.167 HD
HETATM   13  H   UNL     1      42.885 -12.507   1.950  1.00  0.00     0.162 HD
ENDROOT
BRANCH   1  14
HETATM   14  C   UNL     1      43.605 -18.744   4.751  1.00  0.00     0.059 A 
HETATM   15  C   UNL     1      43.723 -19.101   6.081  1.00  0.00     0.040 A 
HETATM   16  C   UNL     1      43.344 -18.454   7.357  1.00  0.00     0.071 C 
HETATM   17  N   UNL     1      44.335 -20.327   6.066  1.00  0.00    -0.281 N 
HETATM   18  H   UNL     1      44.590 -20.908   6.857  1.00  0.00     0.189 HD
HETATM   19  N   UNL     1      44.616 -20.787   4.841  1.00  0.00    -0.179 NA
HETATM   20  C   UNL     1      44.173 -19.822   4.022  1.00  0.00     0.067 A 
HETATM   21  C   UNL     1      44.306 -19.974   2.551  1.00  0.00     0.073 C 
ENDBRANCH   1  14
BRANCH   6  22
HETATM   22  C   UNL     1      39.621 -13.188   2.863  1.00  0.00    -0.049 A 
HETATM   23  C   UNL     1      39.605 -13.372   4.262  1.00  0.00     0.044 A 
HETATM   24  C   UNL     1      39.107 -12.386   5.116  1.00  0.00     0.068 A 
HETATM   25  C   UNL     1      38.620 -11.199   4.572  1.00  0.00     0.037 A 
HETATM   26  C   UNL     1      38.620 -11.001   3.191  1.00  0.00     0.003 A 
HETATM   27  C   UNL     1      39.114 -11.990   2.341  1.00  0.00     0.007 A 
BRANCH  24  28
HETATM   28  O   UNL     1      39.044 -12.459   6.481  1.00  0.00    -0.356 OA
HETATM   29  C   UNL     1      39.661 -11.408   7.213  1.00  0.00     0.210 C 
ENDBRANCH  24  28
ENDBRANCH   6  22
TORSDOF 3
ENDMDL
MODEL 9
REMARK VINA RESULT:      -7.8      4.041      6.058
REMARK  3 active torsions:
REMARK  status: ('A' for Active; 'I' for Inactive)
REMARK    1  A    between atoms: C_8  and  C_9 
REMARK    2  A    between atoms: C_14  and  C_15 
REMARK    3  A    between atoms: C_17  and  O_18 
ROOT
HETATM    1  C   UNL     1      44.629 -13.822   7.311  1.00  0.00     0.143 A 
HETATM    2  N   UNL     1      44.281 -14.925   7.931  1.00  0.00    -0.223 NA
HETATM    3  C   UNL     1      43.553 -15.691   7.032  1.00  0.00     0.149 A 
HETATM    4  C   UNL     1      43.484 -15.025   5.816  1.00  0.00     0.046 A 
HETATM    5  C   UNL     1      42.847 -15.297   4.496  1.00  0.00     0.070 C 
HETATM    6  C   UNL     1      41.995 -16.573   4.371  1.00  0.00     0.042 C 
HETATM    7  C   UNL     1      41.199 -16.894   5.645  1.00  0.00     0.132 C 
HETATM    8  N   UNL     1      41.972 -17.526   6.690  1.00  0.00    -0.355 N 
HETATM    9  C   UNL     1      43.001 -16.993   7.422  1.00  0.00     0.272 C 
HETATM   10  O   UNL     1      43.419 -17.634   8.386  1.00  0.00    -0.266 OA
HETATM   11  N   UNL     1      44.193 -13.860   6.017  1.00  0.00    -0.341 N 
HETATM   12  H   UNL     1      44.342 -13.134   5.334  1.00  0.00     0.167 HD
HETATM   13  H   UNL     1      41.673 -18.426   7.045  1.00  0.00     0.162 HD
ENDROOT
BRANCH   1  14
HETATM   14  C   UNL     1      45.373 -12.704   7.952  1.00  0.00     0.059 A 
HETATM   15  C   UNL     1      46.682 -12.316   7.737  1.00  0.00     0.040 A 
HETATM   16  C   UNL     1      47.774 -12.817   6.874  1.00  0.00     0.071 C 
HETATM   17  N   UNL     1      46.870 -11.235   8.558  1.00  0.00    -0.281 N 
HETATM   18  H   UNL     1      47.711 -10.679   8.676  1.00  0.00     0.189 HD
HETATM   19  N   UNL     1      45.795 -10.896   9.277  1.00  0.00    -0.179 NA
HETATM   20  C   UNL     1      44.866 -11.792   8.914  1.00  0.00     0.067 A 
HETATM   21  C   UNL     1      43.505 -11.736   9.507  1.00  0.00     0.073 C 
ENDBRANCH   1  14
BRANCH   6  22
HETATM   22  C   UNL     1      42.702 -17.800   3.805  1.00  0.00    -0.049 A 
HETATM   23  C   UNL     1      43.623 -18.490   4.622  1.00  0.00     0.044 A 
HETATM   24  C   UNL     1      44.313 -19.609   4.150  1.00  0.00     0.068 A 
HETATM   25  C   UNL     1      44.083 -20.049   2.847  1.00  0.00     0.037 A 
HETATM   26  C   UNL     1      43.183 -19.375   2.021  1.00  0.00     0.003 A 
HETATM   27  C   UNL     1      42.498 -18.256   2.495  1.00  0.00     0.007 A 
BRANCH  24  28
HETATM   28  O   UNL     1      45.223 -20.350   4.852  1.00  0.00    -0.356 OA
HETATM   29  C   UNL     1      44.887 -21.706   5.116  1.00  0.00     0.210 C 
ENDBRANCH  24  28
ENDBRANCH   6  22
TORSDOF 3
ENDMDL
MODEL 10
REMARK VINA RESULT:      -7.8      2.643      8.227
REMARK  3 active torsions:
REMARK  status: ('A' for Active; 'I' for Inactive)
REMARK    1  A    between atoms: C_8  and  C_9 
REMARK    2  A    between atoms: C_14  and  C_15 
REMARK    3  A    between atoms: C_17  and  O_18 
ROOT
HETATM    1  C   UNL     1      43.203 -17.627   3.812  1.00  0.00     0.143 A 
HETATM    2  N   UNL     1      43.836 -16.483   3.689  1.00  0.00    -0.223 NA
HETATM    3  C   UNL     1      42.881 -15.509   3.440  1.00  0.00     0.149 A 
HETATM    4  C   UNL     1      41.622 -16.093   3.436  1.00  0.00     0.046 A 
HETATM    5  C   UNL     1      40.230 -15.607   3.212  1.00  0.00     0.070 C 
HETATM    6  C   UNL     1      40.051 -14.126   2.836  1.00  0.00     0.042 C 
HETATM    7  C   UNL     1      41.166 -13.597   1.920  1.00  0.00     0.132 C 
HETATM    8  N   UNL     1      42.394 -13.262   2.604  1.00  0.00    -0.355 N 
HETATM    9  C   UNL     1      43.266 -14.108   3.239  1.00  0.00     0.272 C 
HETATM   10  O   UNL     1      44.345 -13.651   3.614  1.00  0.00    -0.266 OA
HETATM   11  N   UNL     1      41.857 -17.426   3.697  1.00  0.00    -0.341 N 
HETATM   12  H   UNL     1      41.156 -18.148   3.763  1.00  0.00     0.167 HD
HETATM   13  H   UNL     1      42.760 -12.321   2.523  1.00  0.00     0.162 HD
ENDROOT
BRANCH   1  14
HETATM   14  C   UNL     1      43.879 -18.936   4.024  1.00  0.00     0.059 A 
HETATM   15  C   UNL     1      44.010 -19.983   3.131  1.00  0.00     0.040 A 
HETATM   16  C   UNL     1      43.563 -20.209   1.739  1.00  0.00     0.071 C 
HETATM   17  N   UNL     1      44.721 -20.939   3.808  1.00  0.00    -0.281 N 
HETATM   18  H   UNL     1      45.013 -21.853   3.477  1.00  0.00     0.189 HD
HETATM   19  N   UNL     1      45.058 -20.593   5.056  1.00  0.00    -0.179 NA
HETATM   20  C   UNL     1      44.545 -19.363   5.202  1.00  0.00     0.067 A 
HETATM   21  C   UNL     1      44.721 -18.629   6.481  1.00  0.00     0.073 C 
ENDBRANCH   1  14
BRANCH   6  22
HETATM   22  C   UNL     1      39.746 -13.172   3.987  1.00  0.00    -0.049 A 
HETATM   23  C   UNL     1      39.192 -11.908   3.692  1.00  0.00     0.044 A 
HETATM   24  C   UNL     1      38.908 -10.988   4.703  1.00  0.00     0.068 A 
HETATM   25  C   UNL     1      39.180 -11.330   6.027  1.00  0.00     0.037 A 
HETATM   26  C   UNL     1      39.735 -12.570   6.339  1.00  0.00     0.003 A 
HETATM   27  C   UNL     1      40.019 -13.486   5.325  1.00  0.00     0.007 A 
BRANCH  24  28
HETATM   28  O   UNL     1      38.373  -9.741   4.531  1.00  0.00    -0.356 OA
HETATM   29  C   UNL     1      38.984  -8.672   5.243  1.00  0.00     0.210 C 
ENDBRANCH  24  28
ENDBRANCH   6  22
TORSDOF 3
ENDMDL
