MODEL 1
REMARK VINA RESULT:      -7.9      0.000      0.000
REMARK  4 active torsions:
REMARK  status: ('A' for Active; 'I' for Inactive)
REMARK    1  A    between atoms: C_6  and  C_7 
REMARK       I    between atoms: C_7  and  N_8 
REMARK    2  A    between atoms: N_8  and  C_9 
REMARK    3  A    between atoms: C_9  and  C_10 
REMARK    4  A    between atoms: C_19  and  O_20 
ROOT
HETATM    1  C   UNL     1      44.738 -14.201   6.985  1.00  0.00     0.078 C 
HETATM    2  C   UNL     1      43.627 -14.465   6.043  1.00  0.00     0.066 A 
HETATM    3  O   UNL     1      43.015 -13.367   5.525  1.00  0.00    -0.314 OA
HETATM    4  C   UNL     1      42.032 -13.807   4.701  1.00  0.00     0.087 A 
HETATM    5  C   UNL     1      42.000 -15.199   4.677  1.00  0.00     0.019 A 
HETATM    6  C   UNL     1      43.065 -15.630   5.539  1.00  0.00     0.074 A 
HETATM    7  C   UNL     1      41.169 -12.981   3.984  1.00  0.00     0.041 A 
HETATM    8  C   UNL     1      40.200 -13.611   3.198  1.00  0.00     0.039 A 
HETATM    9  C   UNL     1      40.123 -15.001   3.164  1.00  0.00     0.066 A 
HETATM   10  C   UNL     1      41.002 -15.812   3.892  1.00  0.00     0.052 A 
ENDROOT
BRANCH   6  11
HETATM   11  C   UNL     1      43.542 -16.959   5.892  1.00  0.00     0.255 C 
HETATM   12  N   UNL     1      43.967 -17.739   4.839  1.00  0.00    -0.353 N 
HETATM   13  H   UNL     1      44.076 -17.310   3.931  1.00  0.00     0.163 HD
HETATM   14  O   UNL     1      43.622 -17.339   7.057  1.00  0.00    -0.268 OA
BRANCH  12  15
HETATM   15  C   UNL     1      44.661 -18.976   5.106  1.00  0.00     0.161 C 
BRANCH  15  16
HETATM   16  C   UNL     1      44.468 -20.005   4.022  1.00  0.00    -0.041 A 
HETATM   17  C   UNL     1      44.782 -21.356   4.240  1.00  0.00     0.009 A 
HETATM   18  C   UNL     1      44.555 -22.307   3.244  1.00  0.00     0.001 A 
HETATM   19  C   UNL     1      44.000 -21.924   2.025  1.00  0.00     0.000 A 
HETATM   20  C   UNL     1      43.673 -20.589   1.799  1.00  0.00     0.001 A 
HETATM   21  C   UNL     1      43.907 -19.634   2.791  1.00  0.00     0.009 A 
ENDBRANCH  15  16
ENDBRANCH  12  15
ENDBRANCH   6  11
BRANCH   9  22
HETATM   22  O   UNL     1      39.174 -15.632   2.411  1.00  0.00    -0.361 OA
HETATM   23  H   UNL     1      39.293 -16.592   2.495  1.00  0.00     0.217 HD
ENDBRANCH   9  22
TORSDOF 4
ENDMDL
MODEL 2
REMARK VINA RESULT:      -7.9      2.894      6.868
REMARK  4 active torsions:
REMARK  status: ('A' for Active; 'I' for Inactive)
REMARK    1  A    between atoms: C_6  and  C_7 
REMARK       I    between atoms: C_7  and  N_8 
REMARK    2  A    between atoms: N_8  and  C_9 
REMARK    3  A    between atoms: C_9  and  C_10 
REMARK    4  A    between atoms: C_19  and  O_20 
ROOT
HETATM    1  C   UNL     1      43.345 -16.216   4.868  1.00  0.00     0.078 C 
HETATM    2  C   UNL     1      43.649 -17.630   4.550  1.00  0.00     0.066 A 
HETATM    3  O   UNL     1      43.823 -18.454   5.617  1.00  0.00    -0.314 OA
HETATM    4  C   UNL     1      44.097 -19.689   5.129  1.00  0.00     0.087 A 
HETATM    5  C   UNL     1      44.101 -19.676   3.736  1.00  0.00     0.019 A 
HETATM    6  C   UNL     1      43.781 -18.329   3.357  1.00  0.00     0.074 A 
HETATM    7  C   UNL     1      44.347 -20.814   5.913  1.00  0.00     0.041 A 
HETATM    8  C   UNL     1      44.633 -22.003   5.237  1.00  0.00     0.039 A 
HETATM    9  C   UNL     1      44.666 -22.026   3.844  1.00  0.00     0.066 A 
HETATM   10  C   UNL     1      44.411 -20.883   3.077  1.00  0.00     0.052 A 
ENDROOT
BRANCH   6  11
HETATM   11  C   UNL     1      43.613 -17.709   2.051  1.00  0.00     0.255 C 
HETATM   12  N   UNL     1      42.312 -17.582   1.615  1.00  0.00    -0.353 N 
HETATM   13  H   UNL     1      41.563 -17.767   2.265  1.00  0.00     0.163 HD
HETATM   14  O   UNL     1      44.561 -17.269   1.406  1.00  0.00    -0.268 OA
BRANCH  12  15
HETATM   15  C   UNL     1      42.030 -16.784   0.445  1.00  0.00     0.161 C 
BRANCH  15  16
HETATM   16  C   UNL     1      40.893 -15.818   0.653  1.00  0.00    -0.041 A 
HETATM   17  C   UNL     1      40.600 -14.827  -0.298  1.00  0.00     0.009 A 
HETATM   18  C   UNL     1      39.515 -13.967  -0.117  1.00  0.00     0.001 A 
HETATM   19  C   UNL     1      38.703 -14.095   1.008  1.00  0.00     0.000 A 
HETATM   20  C   UNL     1      38.975 -15.080   1.954  1.00  0.00     0.001 A 
HETATM   21  C   UNL     1      40.064 -15.936   1.778  1.00  0.00     0.009 A 
ENDBRANCH  15  16
ENDBRANCH  12  15
ENDBRANCH   6  11
BRANCH   9  22
HETATM   22  O   UNL     1      44.957 -23.177   3.169  1.00  0.00    -0.361 OA
HETATM   23  H   UNL     1      44.876 -23.928   3.779  1.00  0.00     0.217 HD
ENDBRANCH   9  22
TORSDOF 4
ENDMDL
MODEL 3
REMARK VINA RESULT:      -7.8      2.401      6.841
REMARK  4 active torsions:
REMARK  status: ('A' for Active; 'I' for Inactive)
REMARK    1  A    between atoms: C_6  and  C_7 
REMARK       I    between atoms: C_7  and  N_8 
REMARK    2  A    between atoms: N_8  and  C_9 
REMARK    3  A    between atoms: C_9  and  C_10 
REMARK    4  A    between atoms: C_19  and  O_20 
ROOT
HETATM    1  C   UNL     1      43.990 -16.825   6.053  1.00  0.00     0.078 C 
HETATM    2  C   UNL     1      44.009 -17.964   5.107  1.00  0.00     0.066 A 
HETATM    3  O   UNL     1      44.503 -19.132   5.595  1.00  0.00    -0.314 OA
HETATM    4  C   UNL     1      44.445 -20.043   4.591  1.00  0.00     0.087 A 
HETATM    5  C   UNL     1      43.910 -19.469   3.440  1.00  0.00     0.019 A 
HETATM    6  C   UNL     1      43.599 -18.111   3.787  1.00  0.00     0.074 A 
HETATM    7  C   UNL     1      44.870 -21.366   4.694  1.00  0.00     0.041 A 
HETATM    8  C   UNL     1      44.754 -22.157   3.548  1.00  0.00     0.039 A 
HETATM    9  C   UNL     1      44.242 -21.614   2.372  1.00  0.00     0.066 A 
HETATM   10  C   UNL     1      43.821 -20.281   2.291  1.00  0.00     0.052 A 
ENDROOT
BRANCH   6  11
HETATM   11  C   UNL     1      42.998 -17.032   3.018  1.00  0.00     0.255 C 
HETATM   12  N   UNL     1      41.622 -16.986   3.032  1.00  0.00    -0.353 N 
HETATM   13  H   UNL     1      41.123 -17.578   3.680  1.00  0.00     0.163 HD
HETATM   14  O   UNL     1      43.672 -16.179   2.446  1.00  0.00    -0.268 OA
BRANCH  12  15
HETATM   15  C   UNL     1      40.944 -15.832   2.490  1.00  0.00     0.161 C 
BRANCH  15  16
HETATM   16  C   UNL     1      40.486 -14.866   3.552  1.00  0.00    -0.041 A 
HETATM   17  C   UNL     1      40.600 -15.180   4.916  1.00  0.00     0.009 A 
HETATM   18  C   UNL     1      40.216 -14.258   5.891  1.00  0.00     0.001 A 
HETATM   19  C   UNL     1      39.727 -13.008   5.517  1.00  0.00     0.000 A 
HETATM   20  C   UNL     1      39.620 -12.678   4.168  1.00  0.00     0.001 A 
HETATM   21  C   UNL     1      39.996 -13.602   3.191  1.00  0.00     0.009 A 
ENDBRANCH  15  16
ENDBRANCH  12  15
ENDBRANCH   6  11
BRANCH   9  22
HETATM   22  O   UNL     1      44.134 -22.371   1.240  1.00  0.00    -0.361 OA
HETATM   23  H   UNL     1      44.340 -21.816   0.470  1.00  0.00     0.217 HD
ENDBRANCH   9  22
TORSDOF 4
ENDMDL
MODEL 4
REMARK VINA RESULT:      -7.7      1.829      3.006
REMARK  4 active torsions:
REMARK  status: ('A' for Active; 'I' for Inactive)
REMARK    1  A    between atoms: C_6  and  C_7 
REMARK       I    between atoms: C_7  and  N_8 
REMARK    2  A    between atoms: N_8  and  C_9 
REMARK    3  A    between atoms: C_9  and  C_10 
REMARK    4  A    between atoms: C_19  and  O_20 
ROOT
HETATM    1  C   UNL     1      41.004 -17.140   1.228  1.00  0.00     0.078 C 
HETATM    2  C   UNL     1      40.819 -16.225   2.376  1.00  0.00     0.066 A 
HETATM    3  O   UNL     1      40.111 -15.092   2.124  1.00  0.00    -0.314 OA
HETATM    4  C   UNL     1      40.055 -14.388   3.282  1.00  0.00     0.087 A 
HETATM    5  C   UNL     1      40.728 -15.062   4.298  1.00  0.00     0.019 A 
HETATM    6  C   UNL     1      41.206 -16.281   3.709  1.00  0.00     0.074 A 
HETATM    7  C   UNL     1      39.419 -13.156   3.432  1.00  0.00     0.041 A 
HETATM    8  C   UNL     1      39.481 -12.565   4.696  1.00  0.00     0.039 A 
HETATM    9  C   UNL     1      40.162 -13.198   5.733  1.00  0.00     0.066 A 
HETATM   10  C   UNL     1      40.793 -14.436   5.560  1.00  0.00     0.052 A 
ENDROOT
BRANCH   6  11
HETATM   11  C   UNL     1      41.949 -17.398   4.273  1.00  0.00     0.255 C 
HETATM   12  N   UNL     1      43.259 -17.511   3.862  1.00  0.00    -0.353 N 
HETATM   13  H   UNL     1      43.670 -16.752   3.339  1.00  0.00     0.163 HD
HETATM   14  O   UNL     1      41.462 -18.153   5.110  1.00  0.00    -0.268 OA
BRANCH  12  15
HETATM   15  C   UNL     1      44.136 -18.443   4.531  1.00  0.00     0.161 C 
BRANCH  15  16
HETATM   16  C   UNL     1      44.246 -19.764   3.815  1.00  0.00    -0.041 A 
HETATM   17  C   UNL     1      44.691 -20.916   4.482  1.00  0.00     0.009 A 
HETATM   18  C   UNL     1      44.745 -22.144   3.821  1.00  0.00     0.001 A 
HETATM   19  C   UNL     1      44.341 -22.240   2.491  1.00  0.00     0.000 A 
HETATM   20  C   UNL     1      43.886 -21.108   1.820  1.00  0.00     0.001 A 
HETATM   21  C   UNL     1      43.839 -19.877   2.477  1.00  0.00     0.009 A 
ENDBRANCH  15  16
ENDBRANCH  12  15
ENDBRANCH   6  11
BRANCH   9  22
HETATM   22  O   UNL     1      40.242 -12.626   6.971  1.00  0.00    -0.361 OA
HETATM   23  H   UNL     1      41.164 -12.662   7.274  1.00  0.00     0.217 HD
ENDBRANCH   9  22
TORSDOF 4
ENDMDL
MODEL 5
REMARK VINA RESULT:      -7.6      2.445      7.083
REMARK  4 active torsions:
REMARK  status: ('A' for Active; 'I' for Inactive)
REMARK    1  A    between atoms: C_6  and  C_7 
REMARK       I    between atoms: C_7  and  N_8 
REMARK    2  A    between atoms: N_8  and  C_9 
REMARK    3  A    between atoms: C_9  and  C_10 
REMARK    4  A    between atoms: C_19  and  O_20 
ROOT
HETATM    1  C   UNL     1      43.235 -15.922   4.933  1.00  0.00     0.078 C 
HETATM    2  C   UNL     1      43.388 -17.216   4.230  1.00  0.00     0.066 A 
HETATM    3  O   UNL     1      44.147 -18.149   4.863  1.00  0.00    -0.314 OA
HETATM    4  C   UNL     1      44.174 -19.249   4.070  1.00  0.00     0.087 A 
HETATM    5  C   UNL     1      43.429 -19.037   2.913  1.00  0.00     0.019 A 
HETATM    6  C   UNL     1      42.891 -17.711   3.031  1.00  0.00     0.074 A 
HETATM    7  C   UNL     1      44.860 -20.426   4.369  1.00  0.00     0.041 A 
HETATM    8  C   UNL     1      44.793 -21.451   3.423  1.00  0.00     0.039 A 
HETATM    9  C   UNL     1      44.075 -21.271   2.243  1.00  0.00     0.066 A 
HETATM   10  C   UNL     1      43.393 -20.080   1.965  1.00  0.00     0.052 A 
ENDROOT
BRANCH   6  11
HETATM   11  C   UNL     1      42.018 -16.943   2.156  1.00  0.00     0.255 C 
HETATM   12  N   UNL     1      40.714 -16.815   2.580  1.00  0.00    -0.353 N 
HETATM   13  H   UNL     1      40.477 -17.108   3.517  1.00  0.00     0.163 HD
HETATM   14  O   UNL     1      42.429 -16.391   1.139  1.00  0.00    -0.268 OA
BRANCH  12  15
HETATM   15  C   UNL     1      39.834 -15.892   1.903  1.00  0.00     0.161 C 
BRANCH  15  16
HETATM   16  C   UNL     1      39.674 -14.586   2.636  1.00  0.00    -0.041 A 
HETATM   17  C   UNL     1      39.104 -13.466   2.009  1.00  0.00     0.009 A 
HETATM   18  C   UNL     1      38.919 -12.275   2.713  1.00  0.00     0.001 A 
HETATM   19  C   UNL     1      39.287 -12.192   4.054  1.00  0.00     0.000 A 
HETATM   20  C   UNL     1      39.843 -13.298   4.692  1.00  0.00     0.001 A 
HETATM   21  C   UNL     1      40.037 -14.488   3.987  1.00  0.00     0.009 A 
ENDBRANCH  15  16
ENDBRANCH  12  15
ENDBRANCH   6  11
BRANCH   9  22
HETATM   22  O   UNL     1      44.011 -22.259   1.303  1.00  0.00    -0.361 OA
HETATM   23  H   UNL     1      43.204 -22.140   0.776  1.00  0.00     0.217 HD
ENDBRANCH   9  22
TORSDOF 4
ENDMDL
MODEL 6
REMARK VINA RESULT:      -7.6      2.197      3.874
REMARK  4 active torsions:
REMARK  status: ('A' for Active; 'I' for Inactive)
REMARK    1  A    between atoms: C_6  and  C_7 
REMARK       I    between atoms: C_7  and  N_8 
REMARK    2  A    between atoms: N_8  and  C_9 
REMARK    3  A    between atoms: C_9  and  C_10 
REMARK    4  A    between atoms: C_19  and  O_20 
ROOT
HETATM    1  C   UNL     1      41.370 -15.992  -0.668  1.00  0.00     0.078 C 
HETATM    2  C   UNL     1      41.311 -15.881   0.807  1.00  0.00     0.066 A 
HETATM    3  O   UNL     1      40.387 -15.013   1.299  1.00  0.00    -0.314 OA
HETATM    4  C   UNL     1      40.488 -15.044   2.652  1.00  0.00     0.087 A 
HETATM    5  C   UNL     1      41.481 -15.937   3.048  1.00  0.00     0.019 A 
HETATM    6  C   UNL     1      42.002 -16.506   1.837  1.00  0.00     0.074 A 
HETATM    7  C   UNL     1      39.712 -14.282   3.523  1.00  0.00     0.041 A 
HETATM    8  C   UNL     1      39.969 -14.429   4.889  1.00  0.00     0.039 A 
HETATM    9  C   UNL     1      40.968 -15.297   5.324  1.00  0.00     0.066 A 
HETATM   10  C   UNL     1      41.735 -16.053   4.430  1.00  0.00     0.052 A 
ENDROOT
BRANCH   6  11
HETATM   11  C   UNL     1      43.029 -17.511   1.608  1.00  0.00     0.255 C 
HETATM   12  N   UNL     1      42.714 -18.788   2.015  1.00  0.00    -0.353 N 
HETATM   13  H   UNL     1      41.764 -18.988   2.290  1.00  0.00     0.163 HD
HETATM   14  O   UNL     1      44.083 -17.253   1.031  1.00  0.00    -0.268 OA
BRANCH  12  15
HETATM   15  C   UNL     1      43.567 -19.888   1.630  1.00  0.00     0.161 C 
BRANCH  15  16
HETATM   16  C   UNL     1      44.104 -20.656   2.810  1.00  0.00    -0.041 A 
HETATM   17  C   UNL     1      44.377 -20.016   4.029  1.00  0.00     0.009 A 
HETATM   18  C   UNL     1      44.830 -20.747   5.129  1.00  0.00     0.001 A 
HETATM   19  C   UNL     1      45.001 -22.126   5.029  1.00  0.00     0.000 A 
HETATM   20  C   UNL     1      44.722 -22.776   3.829  1.00  0.00     0.001 A 
HETATM   21  C   UNL     1      44.277 -22.045   2.726  1.00  0.00     0.009 A 
ENDBRANCH  15  16
ENDBRANCH  12  15
ENDBRANCH   6  11
BRANCH   9  22
HETATM   22  O   UNL     1      41.240 -15.442   6.655  1.00  0.00    -0.361 OA
HETATM   23  H   UNL     1      41.356 -16.385   6.851  1.00  0.00     0.217 HD
ENDBRANCH   9  22
TORSDOF 4
ENDMDL
MODEL 7
REMARK VINA RESULT:      -7.6      2.560      6.525
REMARK  4 active torsions:
REMARK  status: ('A' for Active; 'I' for Inactive)
REMARK    1  A    between atoms: C_6  and  C_7 
REMARK       I    between atoms: C_7  and  N_8 
REMARK    2  A    between atoms: N_8  and  C_9 
REMARK    3  A    between atoms: C_9  and  C_10 
REMARK    4  A    between atoms: C_19  and  O_20 
ROOT
HETATM    1  C   UNL     1      44.336 -20.941   2.114  1.00  0.00     0.078 C 
HETATM    2  C   UNL     1      44.125 -19.933   3.177  1.00  0.00     0.066 A 
HETATM    3  O   UNL     1      44.254 -20.381   4.454  1.00  0.00    -0.314 OA
HETATM    4  C   UNL     1      44.020 -19.327   5.275  1.00  0.00     0.087 A 
HETATM    5  C   UNL     1      43.737 -18.183   4.533  1.00  0.00     0.019 A 
HETATM    6  C   UNL     1      43.832 -18.575   3.156  1.00  0.00     0.074 A 
HETATM    7  C   UNL     1      44.050 -19.384   6.668  1.00  0.00     0.041 A 
HETATM    8  C   UNL     1      43.762 -18.201   7.353  1.00  0.00     0.039 A 
HETATM    9  C   UNL     1      43.454 -17.040   6.647  1.00  0.00     0.066 A 
HETATM   10  C   UNL     1      43.430 -17.006   5.248  1.00  0.00     0.052 A 
ENDROOT
BRANCH   6  11
HETATM   11  C   UNL     1      43.671 -17.817   1.924  1.00  0.00     0.255 C 
HETATM   12  N   UNL     1      42.378 -17.694   1.465  1.00  0.00    -0.353 N 
HETATM   13  H   UNL     1      41.620 -17.983   2.066  1.00  0.00     0.163 HD
HETATM   14  O   UNL     1      44.616 -17.269   1.363  1.00  0.00    -0.268 OA
BRANCH  12  15
HETATM   15  C   UNL     1      42.092 -16.780   0.384  1.00  0.00     0.161 C 
BRANCH  15  16
HETATM   16  C   UNL     1      40.952 -15.843   0.693  1.00  0.00    -0.041 A 
HETATM   17  C   UNL     1      40.601 -14.812  -0.193  1.00  0.00     0.009 A 
HETATM   18  C   UNL     1      39.514 -13.980   0.081  1.00  0.00     0.001 A 
HETATM   19  C   UNL     1      38.758 -14.176   1.235  1.00  0.00     0.000 A 
HETATM   20  C   UNL     1      39.088 -15.202   2.116  1.00  0.00     0.001 A 
HETATM   21  C   UNL     1      40.179 -16.031   1.848  1.00  0.00     0.009 A 
ENDBRANCH  15  16
ENDBRANCH  12  15
ENDBRANCH   6  11
BRANCH   9  22
HETATM   22  O   UNL     1      43.158 -15.879   7.303  1.00  0.00    -0.361 OA
HETATM   23  H   UNL     1      43.630 -15.868   8.151  1.00  0.00     0.217 HD
ENDBRANCH   9  22
TORSDOF 4
ENDMDL
MODEL 8
REMARK VINA RESULT:      -7.5      2.758      6.366
REMARK  4 active torsions:
REMARK  status: ('A' for Active; 'I' for Inactive)
REMARK    1  A    between atoms: C_6  and  C_7 
REMARK       I    between atoms: C_7  and  N_8 
REMARK    2  A    between atoms: N_8  and  C_9 
REMARK    3  A    between atoms: C_9  and  C_10 
REMARK    4  A    between atoms: C_19  and  O_20 
ROOT
HETATM    1  C   UNL     1      44.376 -17.288   6.602  1.00  0.00     0.078 C 
HETATM    2  C   UNL     1      44.276 -18.304   5.531  1.00  0.00     0.066 A 
HETATM    3  O   UNL     1      44.780 -19.531   5.828  1.00  0.00    -0.314 OA
HETATM    4  C   UNL     1      44.604 -20.313   4.733  1.00  0.00     0.087 A 
HETATM    5  C   UNL     1      43.982 -19.595   3.714  1.00  0.00     0.019 A 
HETATM    6  C   UNL     1      43.743 -18.284   4.248  1.00  0.00     0.074 A 
HETATM    7  C   UNL     1      45.000 -21.646   4.638  1.00  0.00     0.041 A 
HETATM    8  C   UNL     1      44.757 -22.290   3.423  1.00  0.00     0.039 A 
HETATM    9  C   UNL     1      44.154 -21.601   2.373  1.00  0.00     0.066 A 
HETATM   10  C   UNL     1      43.765 -20.262   2.491  1.00  0.00     0.052 A 
ENDROOT
BRANCH   6  11
HETATM   11  C   UNL     1      43.104 -17.110   3.672  1.00  0.00     0.255 C 
HETATM   12  N   UNL     1      41.729 -17.155   3.601  1.00  0.00    -0.353 N 
HETATM   13  H   UNL     1      41.243 -17.898   4.081  1.00  0.00     0.163 HD
HETATM   14  O   UNL     1      43.742 -16.117   3.331  1.00  0.00    -0.268 OA
BRANCH  12  15
HETATM   15  C   UNL     1      40.996 -15.960   3.257  1.00  0.00     0.161 C 
BRANCH  15  16
HETATM   16  C   UNL     1      41.163 -15.562   1.813  1.00  0.00    -0.041 A 
HETATM   17  C   UNL     1      41.155 -16.524   0.791  1.00  0.00     0.009 A 
HETATM   18  C   UNL     1      41.264 -16.140  -0.547  1.00  0.00     0.001 A 
HETATM   19  C   UNL     1      41.367 -14.791  -0.880  1.00  0.00     0.000 A 
HETATM   20  C   UNL     1      41.364 -13.825   0.123  1.00  0.00     0.001 A 
HETATM   21  C   UNL     1      41.264 -14.208   1.462  1.00  0.00     0.009 A 
ENDBRANCH  15  16
ENDBRANCH  12  15
ENDBRANCH   6  11
BRANCH   9  22
HETATM   22  O   UNL     1      43.922 -22.214   1.174  1.00  0.00    -0.361 OA
HETATM   23  H   UNL     1      44.459 -21.781   0.491  1.00  0.00     0.217 HD
ENDBRANCH   9  22
TORSDOF 4
ENDMDL
MODEL 9
REMARK VINA RESULT:      -7.5      3.807      7.126
REMARK  4 active torsions:
REMARK  status: ('A' for Active; 'I' for Inactive)
REMARK    1  A    between atoms: C_6  and  C_7 
REMARK       I    between atoms: C_7  and  N_8 
REMARK    2  A    between atoms: N_8  and  C_9 
REMARK    3  A    between atoms: C_9  and  C_10 
REMARK    4  A    between atoms: C_19  and  O_20 
ROOT
HETATM    1  C   UNL     1      42.714 -15.495   4.103  1.00  0.00     0.078 C 
HETATM    2  C   UNL     1      42.983 -16.859   3.594  1.00  0.00     0.066 A 
HETATM    3  O   UNL     1      43.843 -17.609   4.332  1.00  0.00    -0.314 OA
HETATM    4  C   UNL     1      43.966 -18.808   3.710  1.00  0.00     0.087 A 
HETATM    5  C   UNL     1      43.182 -18.844   2.559  1.00  0.00     0.019 A 
HETATM    6  C   UNL     1      42.516 -17.574   2.498  1.00  0.00     0.074 A 
HETATM    7  C   UNL     1      44.772 -19.854   4.155  1.00  0.00     0.041 A 
HETATM    8  C   UNL     1      44.791 -21.012   3.373  1.00  0.00     0.039 A 
HETATM    9  C   UNL     1      44.036 -21.080   2.205  1.00  0.00     0.066 A 
HETATM   10  C   UNL     1      43.233 -20.016   1.776  1.00  0.00     0.052 A 
ENDROOT
BRANCH   6  11
HETATM   11  C   UNL     1      41.554 -17.033   1.549  1.00  0.00     0.255 C 
HETATM   12  N   UNL     1      42.089 -16.494   0.400  1.00  0.00    -0.353 N 
HETATM   13  H   UNL     1      43.069 -16.641   0.206  1.00  0.00     0.163 HD
HETATM   14  O   UNL     1      40.341 -17.110   1.729  1.00  0.00    -0.268 OA
BRANCH  12  15
HETATM   15  C   UNL     1      41.214 -16.140  -0.693  1.00  0.00     0.161 C 
BRANCH  15  16
HETATM   16  C   UNL     1      41.472 -14.755  -1.227  1.00  0.00    -0.041 A 
HETATM   17  C   UNL     1      41.845 -13.706  -0.372  1.00  0.00     0.009 A 
HETATM   18  C   UNL     1      42.126 -12.438  -0.885  1.00  0.00     0.001 A 
HETATM   19  C   UNL     1      42.052 -12.208  -2.257  1.00  0.00     0.000 A 
HETATM   20  C   UNL     1      41.696 -13.243  -3.118  1.00  0.00     0.001 A 
HETATM   21  C   UNL     1      41.406 -14.509  -2.606  1.00  0.00     0.009 A 
ENDBRANCH  15  16
ENDBRANCH  12  15
ENDBRANCH   6  11
BRANCH   9  22
HETATM   22  O   UNL     1      44.054 -22.200   1.423  1.00  0.00    -0.361 OA
HETATM   23  H   UNL     1      43.142 -22.506   1.292  1.00  0.00     0.217 HD
ENDBRANCH   9  22
TORSDOF 4
ENDMDL
MODEL 10
REMARK VINA RESULT:      -7.5      2.106      2.985
REMARK  4 active torsions:
REMARK  status: ('A' for Active; 'I' for Inactive)
REMARK    1  A    between atoms: C_6  and  C_7 
REMARK       I    between atoms: C_7  and  N_8 
REMARK    2  A    between atoms: N_8  and  C_9 
REMARK    3  A    between atoms: C_9  and  C_10 
REMARK    4  A    between atoms: C_19  and  O_20 
ROOT
HETATM    1  C   UNL     1      40.136 -14.956   5.488  1.00  0.00     0.078 C 
HETATM    2  C   UNL     1      40.434 -14.987   4.039  1.00  0.00     0.066 A 
HETATM    3  O   UNL     1      39.487 -14.447   3.226  1.00  0.00    -0.314 OA
HETATM    4  C   UNL     1      39.932 -14.575   1.951  1.00  0.00     0.087 A 
HETATM    5  C   UNL     1      41.177 -15.201   1.928  1.00  0.00     0.019 A 
HETATM    6  C   UNL     1      41.517 -15.447   3.300  1.00  0.00     0.074 A 
HETATM    7  C   UNL     1      39.237 -14.147   0.821  1.00  0.00     0.041 A 
HETATM    8  C   UNL     1      39.842 -14.381  -0.416  1.00  0.00     0.039 A 
HETATM    9  C   UNL     1      41.077 -15.021  -0.483  1.00  0.00     0.066 A 
HETATM   10  C   UNL     1      41.757 -15.443   0.666  1.00  0.00     0.052 A 
ENDROOT
BRANCH   6  11
HETATM   11  C   UNL     1      42.696 -16.045   3.909  1.00  0.00     0.255 C 
HETATM   12  N   UNL     1      42.658 -17.413   4.065  1.00  0.00    -0.353 N 
HETATM   13  H   UNL     1      41.915 -17.931   3.618  1.00  0.00     0.163 HD
HETATM   14  O   UNL     1      43.687 -15.383   4.207  1.00  0.00    -0.268 OA
BRANCH  12  15
HETATM   15  C   UNL     1      43.858 -18.118   4.447  1.00  0.00     0.161 C 
BRANCH  15  16
HETATM   16  C   UNL     1      44.027 -19.428   3.722  1.00  0.00    -0.041 A 
HETATM   17  C   UNL     1      44.659 -20.521   4.337  1.00  0.00     0.009 A 
HETATM   18  C   UNL     1      44.768 -21.744   3.672  1.00  0.00     0.001 A 
HETATM   19  C   UNL     1      44.236 -21.894   2.394  1.00  0.00     0.000 A 
HETATM   20  C   UNL     1      43.596 -20.822   1.777  1.00  0.00     0.001 A 
HETATM   21  C   UNL     1      43.493 -19.596   2.436  1.00  0.00     0.009 A 
ENDBRANCH  15  16
ENDBRANCH  12  15
ENDBRANCH   6  11
BRANCH   9  22
HETATM   22  O   UNL     1      41.674 -15.268  -1.686  1.00  0.00    -0.361 OA
HETATM   23  H   UNL     1      41.669 -16.225  -1.849  1.00  0.00     0.217 HD
ENDBRANCH   9  22
TORSDOF 4
ENDMDL
