MODEL 1
REMARK VINA RESULT:      -7.0      0.000      0.000
REMARK  3 active torsions:
REMARK  status: ('A' for Active; 'I' for Inactive)
REMARK    1  A    between atoms: C_4  and  N_5 
REMARK    2  A    between atoms: N_5  and  C_6 
REMARK    3  A    between atoms: C_14  and  C_15 
REMARK       I    between atoms: C_15  and  N_16 
ROOT
HETATM    1  C   UNL     1      44.647 -22.595   4.535  1.00  0.00     0.020 A 
HETATM    2  C   UNL     1      44.547 -22.030   3.279  1.00  0.00     0.119 A 
HETATM    3  N   UNL     1      44.412 -20.704   3.059  1.00  0.00    -0.242 NA
HETATM    4  C   UNL     1      44.354 -19.865   4.125  1.00  0.00     0.143 A 
HETATM    5  C   UNL     1      44.468 -20.367   5.433  1.00  0.00     0.077 A 
HETATM    6  C   UNL     1      44.608 -21.747   5.634  1.00  0.00     0.022 A 
ENDROOT
BRANCH   4   7
HETATM    7  N   UNL     1      44.244 -18.472   3.911  1.00  0.00    -0.339 N 
HETATM    8  H   UNL     1      44.450 -17.962   4.777  1.00  0.00     0.167 HD
BRANCH   7   9
HETATM    9  C   UNL     1      43.364 -17.765   3.062  1.00  0.00     0.055 A 
HETATM   10  C   UNL     1      42.060 -17.439   3.489  1.00  0.00     0.062 A 
HETATM   11 CL   UNL     1      41.488 -17.946   5.043  1.00  0.00    -0.082 Cl
HETATM   12  C   UNL     1      41.185 -16.714   2.675  1.00  0.00     0.050 A 
HETATM   13  C   UNL     1      41.612 -16.291   1.422  1.00  0.00     0.035 A 
HETATM   14 CL   UNL     1      40.546 -15.392   0.413  1.00  0.00    -0.084 Cl
HETATM   15  C   UNL     1      42.898 -16.584   0.979  1.00  0.00     0.026 A 
HETATM   16  C   UNL     1      43.766 -17.314   1.797  1.00  0.00     0.033 A 
ENDBRANCH   7   9
ENDBRANCH   4   7
BRANCH   5  17
HETATM   17  C   UNL     1      44.388 -19.454   6.596  1.00  0.00     0.253 C 
HETATM   18  N   UNL     1      43.587 -19.836   7.637  1.00  0.00    -0.366 N 
HETATM   19  H   UNL     1      43.245 -20.781   7.740  1.00  0.00     0.159 HD
HETATM   20  H   UNL     1      43.631 -19.262   8.471  1.00  0.00     0.159 HD
HETATM   21  O   UNL     1      45.025 -18.408   6.633  1.00  0.00    -0.268 OA
ENDBRANCH   5  17
TORSDOF 3
ENDMDL
MODEL 2
REMARK VINA RESULT:      -6.9      3.366      5.798
REMARK  3 active torsions:
REMARK  status: ('A' for Active; 'I' for Inactive)
REMARK    1  A    between atoms: C_4  and  N_5 
REMARK    2  A    between atoms: N_5  and  C_6 
REMARK    3  A    between atoms: C_14  and  C_15 
REMARK       I    between atoms: C_15  and  N_16 
ROOT
HETATM    1  C   UNL     1      40.335 -14.753   5.821  1.00  0.00     0.020 A 
HETATM    2  C   UNL     1      40.615 -16.105   5.857  1.00  0.00     0.119 A 
HETATM    3  N   UNL     1      41.648 -16.678   5.201  1.00  0.00    -0.242 NA
HETATM    4  C   UNL     1      42.458 -15.895   4.443  1.00  0.00     0.143 A 
HETATM    5  C   UNL     1      42.245 -14.507   4.373  1.00  0.00     0.077 A 
HETATM    6  C   UNL     1      41.167 -13.937   5.065  1.00  0.00     0.022 A 
ENDROOT
BRANCH   4   7
HETATM    7  N   UNL     1      43.561 -16.474   3.775  1.00  0.00    -0.339 N 
HETATM    8  H   UNL     1      43.943 -15.818   3.084  1.00  0.00     0.167 HD
BRANCH   7   9
HETATM    9  C   UNL     1      43.783 -17.824   3.420  1.00  0.00     0.055 A 
HETATM   10  C   UNL     1      44.382 -18.718   4.331  1.00  0.00     0.062 A 
HETATM   11 CL   UNL     1      44.911 -18.171   5.886  1.00  0.00    -0.082 Cl
HETATM   12  C   UNL     1      44.582 -20.063   4.008  1.00  0.00     0.050 A 
HETATM   13  C   UNL     1      44.169 -20.536   2.768  1.00  0.00     0.035 A 
HETATM   14 CL   UNL     1      44.404 -22.192   2.362  1.00  0.00    -0.084 Cl
HETATM   15  C   UNL     1      43.561 -19.681   1.854  1.00  0.00     0.026 A 
HETATM   16  C   UNL     1      43.369 -18.335   2.182  1.00  0.00     0.033 A 
ENDBRANCH   7   9
ENDBRANCH   4   7
BRANCH   5  17
HETATM   17  C   UNL     1      43.119 -13.656   3.533  1.00  0.00     0.253 C 
HETATM   18  N   UNL     1      42.511 -12.879   2.585  1.00  0.00    -0.366 N 
HETATM   19  H   UNL     1      41.517 -12.696   2.589  1.00  0.00     0.159 HD
HETATM   20  H   UNL     1      43.105 -12.219   2.098  1.00  0.00     0.159 HD
HETATM   21  O   UNL     1      44.333 -13.635   3.690  1.00  0.00    -0.268 OA
ENDBRANCH   5  17
TORSDOF 3
ENDMDL
MODEL 3
REMARK VINA RESULT:      -6.9      3.007      4.870
REMARK  3 active torsions:
REMARK  status: ('A' for Active; 'I' for Inactive)
REMARK    1  A    between atoms: C_4  and  N_5 
REMARK    2  A    between atoms: N_5  and  C_6 
REMARK    3  A    between atoms: C_14  and  C_15 
REMARK       I    between atoms: C_15  and  N_16 
ROOT
HETATM    1  C   UNL     1      44.282 -13.981   6.088  1.00  0.00     0.020 A 
HETATM    2  C   UNL     1      43.604 -14.254   4.916  1.00  0.00     0.119 A 
HETATM    3  N   UNL     1      43.093 -15.466   4.607  1.00  0.00    -0.242 NA
HETATM    4  C   UNL     1      43.261 -16.490   5.483  1.00  0.00     0.143 A 
HETATM    5  C   UNL     1      43.924 -16.282   6.704  1.00  0.00     0.077 A 
HETATM    6  C   UNL     1      44.444 -15.015   7.001  1.00  0.00     0.022 A 
ENDROOT
BRANCH   4   7
HETATM    7  N   UNL     1      42.706 -17.757   5.188  1.00  0.00    -0.339 N 
HETATM    8  H   UNL     1      42.252 -18.148   6.021  1.00  0.00     0.167 HD
BRANCH   7   9
HETATM    9  C   UNL     1      43.177 -18.757   4.308  1.00  0.00     0.055 A 
HETATM   10  C   UNL     1      42.757 -18.787   2.962  1.00  0.00     0.062 A 
HETATM   11 CL   UNL     1      41.611 -17.632   2.370  1.00  0.00    -0.082 Cl
HETATM   12  C   UNL     1      43.235 -19.750   2.070  1.00  0.00     0.050 A 
HETATM   13  C   UNL     1      44.157 -20.693   2.513  1.00  0.00     0.035 A 
HETATM   14 CL   UNL     1      44.758 -21.880   1.421  1.00  0.00    -0.084 Cl
HETATM   15  C   UNL     1      44.601 -20.678   3.831  1.00  0.00     0.026 A 
HETATM   16  C   UNL     1      44.114 -19.715   4.719  1.00  0.00     0.033 A 
ENDBRANCH   7   9
ENDBRANCH   4   7
BRANCH   5  17
HETATM   17  C   UNL     1      44.122 -17.403   7.652  1.00  0.00     0.253 C 
HETATM   18  N   UNL     1      43.380 -17.389   8.801  1.00  0.00    -0.366 N 
HETATM   19  H   UNL     1      42.572 -16.795   8.918  1.00  0.00     0.159 HD
HETATM   20  H   UNL     1      43.440 -18.216   9.383  1.00  0.00     0.159 HD
HETATM   21  O   UNL     1      44.905 -18.314   7.410  1.00  0.00    -0.268 OA
ENDBRANCH   5  17
TORSDOF 3
ENDMDL
MODEL 4
REMARK VINA RESULT:      -6.8      3.462      4.904
REMARK  3 active torsions:
REMARK  status: ('A' for Active; 'I' for Inactive)
REMARK    1  A    between atoms: C_4  and  N_5 
REMARK    2  A    between atoms: N_5  and  C_6 
REMARK    3  A    between atoms: C_14  and  C_15 
REMARK       I    between atoms: C_15  and  N_16 
ROOT
HETATM    1  C   UNL     1      44.401 -20.742   2.650  1.00  0.00     0.020 A 
HETATM    2  C   UNL     1      44.523 -20.396   3.981  1.00  0.00     0.119 A 
HETATM    3  N   UNL     1      43.985 -19.280   4.521  1.00  0.00    -0.242 NA
HETATM    4  C   UNL     1      43.295 -18.431   3.718  1.00  0.00     0.143 A 
HETATM    5  C   UNL     1      43.114 -18.728   2.356  1.00  0.00     0.077 A 
HETATM    6  C   UNL     1      43.681 -19.892   1.821  1.00  0.00     0.022 A 
ENDROOT
BRANCH   4   7
HETATM    7  N   UNL     1      42.699 -17.275   4.274  1.00  0.00    -0.339 N 
HETATM    8  H   UNL     1      42.041 -16.858   3.606  1.00  0.00     0.167 HD
BRANCH   7   9
HETATM    9  C   UNL     1      43.254 -16.320   5.155  1.00  0.00     0.055 A 
HETATM   10  C   UNL     1      43.505 -15.002   4.722  1.00  0.00     0.062 A 
HETATM   11 CL   UNL     1      43.191 -14.537   3.083  1.00  0.00    -0.082 Cl
HETATM   12  C   UNL     1      44.024 -14.036   5.587  1.00  0.00     0.050 A 
HETATM   13  C   UNL     1      44.287 -14.375   6.910  1.00  0.00     0.035 A 
HETATM   14 CL   UNL     1      44.922 -13.192   7.987  1.00  0.00    -0.084 Cl
HETATM   15  C   UNL     1      44.036 -15.664   7.370  1.00  0.00     0.026 A 
HETATM   16  C   UNL     1      43.520 -16.626   6.496  1.00  0.00     0.033 A 
ENDBRANCH   7   9
ENDBRANCH   4   7
BRANCH   5  17
HETATM   17  C   UNL     1      42.375 -17.793   1.476  1.00  0.00     0.253 C 
HETATM   18  N   UNL     1      43.100 -17.114   0.535  1.00  0.00    -0.366 N 
HETATM   19  H   UNL     1      44.038 -17.385   0.274  1.00  0.00     0.159 HD
HETATM   20  H   UNL     1      42.568 -16.568  -0.132  1.00  0.00     0.159 HD
HETATM   21  O   UNL     1      41.163 -17.645   1.576  1.00  0.00    -0.268 OA
ENDBRANCH   5  17
TORSDOF 3
ENDMDL
MODEL 5
REMARK VINA RESULT:      -6.7      3.638      5.600
REMARK  3 active torsions:
REMARK  status: ('A' for Active; 'I' for Inactive)
REMARK    1  A    between atoms: C_4  and  N_5 
REMARK    2  A    between atoms: N_5  and  C_6 
REMARK    3  A    between atoms: C_14  and  C_15 
REMARK       I    between atoms: C_15  and  N_16 
ROOT
HETATM    1  C   UNL     1      43.900 -13.732   6.518  1.00  0.00     0.020 A 
HETATM    2  C   UNL     1      44.589 -14.895   6.799  1.00  0.00     0.119 A 
HETATM    3  N   UNL     1      44.141 -16.130   6.483  1.00  0.00    -0.242 NA
HETATM    4  C   UNL     1      42.938 -16.253   5.867  1.00  0.00     0.143 A 
HETATM    5  C   UNL     1      42.188 -15.112   5.534  1.00  0.00     0.077 A 
HETATM    6  C   UNL     1      42.675 -13.842   5.872  1.00  0.00     0.022 A 
ENDROOT
BRANCH   4   7
HETATM    7  N   UNL     1      42.469 -17.537   5.502  1.00  0.00    -0.339 N 
HETATM    8  H   UNL     1      41.998 -17.982   6.298  1.00  0.00     0.167 HD
BRANCH   7   9
HETATM    9  C   UNL     1      43.038 -18.477   4.614  1.00  0.00     0.055 A 
HETATM   10  C   UNL     1      43.883 -19.499   5.093  1.00  0.00     0.062 A 
HETATM   11 CL   UNL     1      44.287 -19.594   6.774  1.00  0.00    -0.082 Cl
HETATM   12  C   UNL     1      44.431 -20.455   4.234  1.00  0.00     0.050 A 
HETATM   13  C   UNL     1      44.126 -20.409   2.878  1.00  0.00     0.035 A 
HETATM   14 CL   UNL     1      44.790 -21.585   1.811  1.00  0.00    -0.084 Cl
HETATM   15  C   UNL     1      43.284 -19.421   2.379  1.00  0.00     0.026 A 
HETATM   16  C   UNL     1      42.743 -18.464   3.244  1.00  0.00     0.033 A 
ENDBRANCH   7   9
ENDBRANCH   4   7
BRANCH   5  17
HETATM   17  C   UNL     1      40.867 -15.247   4.878  1.00  0.00     0.253 C 
HETATM   18  N   UNL     1      39.759 -15.055   5.657  1.00  0.00    -0.366 N 
HETATM   19  H   UNL     1      39.804 -14.617   6.566  1.00  0.00     0.159 HD
HETATM   20  H   UNL     1      38.869 -15.037   5.174  1.00  0.00     0.159 HD
HETATM   21  O   UNL     1      40.770 -15.505   3.684  1.00  0.00    -0.268 OA
ENDBRANCH   5  17
TORSDOF 3
ENDMDL
MODEL 6
REMARK VINA RESULT:      -6.7      2.861      5.538
REMARK  3 active torsions:
REMARK  status: ('A' for Active; 'I' for Inactive)
REMARK    1  A    between atoms: C_4  and  N_5 
REMARK    2  A    between atoms: N_5  and  C_6 
REMARK    3  A    between atoms: C_14  and  C_15 
REMARK       I    between atoms: C_15  and  N_16 
ROOT
HETATM    1  C   UNL     1      40.264 -15.559   1.146  1.00  0.00     0.020 A 
HETATM    2  C   UNL     1      41.479 -15.860   0.565  1.00  0.00     0.119 A 
HETATM    3  N   UNL     1      42.569 -16.256   1.259  1.00  0.00    -0.242 NA
HETATM    4  C   UNL     1      42.484 -16.353   2.611  1.00  0.00     0.143 A 
HETATM    5  C   UNL     1      41.273 -16.080   3.270  1.00  0.00     0.077 A 
HETATM    6  C   UNL     1      40.157 -15.672   2.527  1.00  0.00     0.022 A 
ENDROOT
BRANCH   4   7
HETATM    7  N   UNL     1      43.606 -16.796   3.349  1.00  0.00    -0.339 N 
HETATM    8  H   UNL     1      44.412 -16.187   3.170  1.00  0.00     0.167 HD
BRANCH   7   9
HETATM    9  C   UNL     1      43.987 -18.112   3.693  1.00  0.00     0.055 A 
HETATM   10  C   UNL     1      44.328 -18.439   5.022  1.00  0.00     0.062 A 
HETATM   11 CL   UNL     1      44.340 -17.222   6.254  1.00  0.00    -0.082 Cl
HETATM   12  C   UNL     1      44.678 -19.741   5.386  1.00  0.00     0.050 A 
HETATM   13  C   UNL     1      44.678 -20.743   4.421  1.00  0.00     0.035 A 
HETATM   14 CL   UNL     1      45.102 -22.353   4.859  1.00  0.00    -0.084 Cl
HETATM   15  C   UNL     1      44.332 -20.454   3.105  1.00  0.00     0.026 A 
HETATM   16  C   UNL     1      43.987 -19.147   2.747  1.00  0.00     0.033 A 
ENDBRANCH   7   9
ENDBRANCH   4   7
BRANCH   5  17
HETATM   17  C   UNL     1      41.186 -16.170   4.746  1.00  0.00     0.253 C 
HETATM   18  N   UNL     1      40.582 -17.280   5.270  1.00  0.00    -0.366 N 
HETATM   19  H   UNL     1      40.409 -18.112   4.725  1.00  0.00     0.159 HD
HETATM   20  H   UNL     1      40.631 -17.384   6.277  1.00  0.00     0.159 HD
HETATM   21  O   UNL     1      41.649 -15.295   5.468  1.00  0.00    -0.268 OA
ENDBRANCH   5  17
TORSDOF 3
ENDMDL
MODEL 7
REMARK VINA RESULT:      -6.5      3.076      5.860
REMARK  3 active torsions:
REMARK  status: ('A' for Active; 'I' for Inactive)
REMARK    1  A    between atoms: C_4  and  N_5 
REMARK    2  A    between atoms: N_5  and  C_6 
REMARK    3  A    between atoms: C_14  and  C_15 
REMARK       I    between atoms: C_15  and  N_16 
ROOT
HETATM    1  C   UNL     1      39.845 -14.559   3.431  1.00  0.00     0.020 A 
HETATM    2  C   UNL     1      40.141 -15.607   2.582  1.00  0.00     0.119 A 
HETATM    3  N   UNL     1      41.337 -16.234   2.549  1.00  0.00    -0.242 NA
HETATM    4  C   UNL     1      42.322 -15.810   3.381  1.00  0.00     0.143 A 
HETATM    5  C   UNL     1      42.088 -14.760   4.285  1.00  0.00     0.077 A 
HETATM    6  C   UNL     1      40.838 -14.127   4.301  1.00  0.00     0.022 A 
ENDROOT
BRANCH   4   7
HETATM    7  N   UNL     1      43.570 -16.476   3.380  1.00  0.00    -0.339 N 
HETATM    8  H   UNL     1      44.127 -16.185   2.568  1.00  0.00     0.167 HD
BRANCH   7   9
HETATM    9  C   UNL     1      43.887 -17.782   3.814  1.00  0.00     0.055 A 
HETATM   10  C   UNL     1      43.999 -18.840   2.888  1.00  0.00     0.062 A 
HETATM   11 CL   UNL     1      43.699 -18.575   1.204  1.00  0.00    -0.082 Cl
HETATM   12  C   UNL     1      44.341 -20.132   3.296  1.00  0.00     0.050 A 
HETATM   13  C   UNL     1      44.590 -20.381   4.641  1.00  0.00     0.035 A 
HETATM   14 CL   UNL     1      45.017 -21.967   5.154  1.00  0.00    -0.084 Cl
HETATM   15  C   UNL     1      44.501 -19.354   5.575  1.00  0.00     0.026 A 
HETATM   16  C   UNL     1      44.154 -18.064   5.161  1.00  0.00     0.033 A 
ENDBRANCH   7   9
ENDBRANCH   4   7
BRANCH   5  17
HETATM   17  C   UNL     1      43.168 -14.287   5.181  1.00  0.00     0.253 C 
HETATM   18  N   UNL     1      43.052 -14.583   6.512  1.00  0.00    -0.366 N 
HETATM   19  H   UNL     1      42.407 -15.279   6.859  1.00  0.00     0.159 HD
HETATM   20  H   UNL     1      43.850 -14.355   7.093  1.00  0.00     0.159 HD
HETATM   21  O   UNL     1      44.134 -13.669   4.748  1.00  0.00    -0.268 OA
ENDBRANCH   5  17
TORSDOF 3
ENDMDL
MODEL 8
REMARK VINA RESULT:      -6.5      3.205      5.473
REMARK  3 active torsions:
REMARK  status: ('A' for Active; 'I' for Inactive)
REMARK    1  A    between atoms: C_4  and  N_5 
REMARK    2  A    between atoms: N_5  and  C_6 
REMARK    3  A    between atoms: C_14  and  C_15 
REMARK       I    between atoms: C_15  and  N_16 
ROOT
HETATM    1  C   UNL     1      42.584 -13.151   3.301  1.00  0.00     0.020 A 
HETATM    2  C   UNL     1      42.201 -14.218   2.512  1.00  0.00     0.119 A 
HETATM    3  N   UNL     1      42.279 -15.509   2.904  1.00  0.00    -0.242 NA
HETATM    4  C   UNL     1      42.775 -15.791   4.135  1.00  0.00     0.143 A 
HETATM    5  C   UNL     1      43.167 -14.755   5.000  1.00  0.00     0.077 A 
HETATM    6  C   UNL     1      43.075 -13.424   4.571  1.00  0.00     0.022 A 
ENDROOT
BRANCH   4   7
HETATM    7  N   UNL     1      42.833 -17.135   4.571  1.00  0.00    -0.339 N 
HETATM    8  H   UNL     1      43.040 -17.174   5.576  1.00  0.00     0.167 HD
BRANCH   7   9
HETATM    9  C   UNL     1      43.289 -18.280   3.880  1.00  0.00     0.055 A 
HETATM   10  C   UNL     1      44.276 -19.115   4.443  1.00  0.00     0.062 A 
HETATM   11 CL   UNL     1      44.993 -18.727   5.970  1.00  0.00    -0.082 Cl
HETATM   12  C   UNL     1      44.717 -20.267   3.787  1.00  0.00     0.050 A 
HETATM   13  C   UNL     1      44.161 -20.609   2.559  1.00  0.00     0.035 A 
HETATM   14 CL   UNL     1      44.692 -22.030   1.745  1.00  0.00    -0.084 Cl
HETATM   15  C   UNL     1      43.175 -19.813   1.986  1.00  0.00     0.026 A 
HETATM   16  C   UNL     1      42.742 -18.658   2.646  1.00  0.00     0.033 A 
ENDBRANCH   7   9
ENDBRANCH   4   7
BRANCH   5  17
HETATM   17  C   UNL     1      43.723 -15.065   6.338  1.00  0.00     0.253 C 
HETATM   18  N   UNL     1      44.826 -14.359   6.735  1.00  0.00    -0.366 N 
HETATM   19  H   UNL     1      45.124 -13.512   6.272  1.00  0.00     0.159 HD
HETATM   20  H   UNL     1      45.126 -14.497   7.692  1.00  0.00     0.159 HD
HETATM   21  O   UNL     1      43.210 -15.906   7.065  1.00  0.00    -0.268 OA
ENDBRANCH   5  17
TORSDOF 3
ENDMDL
MODEL 9
REMARK VINA RESULT:      -6.5      3.443      6.384
REMARK  3 active torsions:
REMARK  status: ('A' for Active; 'I' for Inactive)
REMARK    1  A    between atoms: C_4  and  N_5 
REMARK    2  A    between atoms: N_5  and  C_6 
REMARK    3  A    between atoms: C_14  and  C_15 
REMARK       I    between atoms: C_15  and  N_16 
ROOT
HETATM    1  C   UNL     1      40.289 -13.518   5.048  1.00  0.00     0.020 A 
HETATM    2  C   UNL     1      41.553 -13.703   5.572  1.00  0.00     0.119 A 
HETATM    3  N   UNL     1      42.494 -14.491   5.007  1.00  0.00    -0.242 NA
HETATM    4  C   UNL     1      42.190 -15.158   3.864  1.00  0.00     0.143 A 
HETATM    5  C   UNL     1      40.929 -15.003   3.263  1.00  0.00     0.077 A 
HETATM    6  C   UNL     1      39.970 -14.179   3.869  1.00  0.00     0.022 A 
ENDROOT
BRANCH   4   7
HETATM    7  N   UNL     1      43.174 -15.962   3.243  1.00  0.00    -0.339 N 
HETATM    8  H   UNL     1      43.245 -15.730   2.246  1.00  0.00     0.167 HD
BRANCH   7   9
HETATM    9  C   UNL     1      43.536 -17.300   3.515  1.00  0.00     0.055 A 
HETATM   10  C   UNL     1      43.851 -18.188   2.465  1.00  0.00     0.062 A 
HETATM   11 CL   UNL     1      43.748 -17.673   0.815  1.00  0.00    -0.082 Cl
HETATM   12  C   UNL     1      44.240 -19.505   2.715  1.00  0.00     0.050 A 
HETATM   13  C   UNL     1      44.334 -19.952   4.029  1.00  0.00     0.035 A 
HETATM   14 CL   UNL     1      44.819 -21.572   4.350  1.00  0.00    -0.084 Cl
HETATM   15  C   UNL     1      44.044 -19.095   5.086  1.00  0.00     0.026 A 
HETATM   16  C   UNL     1      43.650 -17.779   4.827  1.00  0.00     0.033 A 
ENDBRANCH   7   9
ENDBRANCH   4   7
BRANCH   5  17
HETATM   17  C   UNL     1      40.591 -15.744   2.026  1.00  0.00     0.253 C 
HETATM   18  N   UNL     1      39.609 -16.692   2.113  1.00  0.00    -0.366 N 
HETATM   19  H   UNL     1      38.973 -16.744   2.896  1.00  0.00     0.159 HD
HETATM   20  H   UNL     1      39.309 -17.109   1.239  1.00  0.00     0.159 HD
HETATM   21  O   UNL     1      41.157 -15.508   0.965  1.00  0.00    -0.268 OA
ENDBRANCH   5  17
TORSDOF 3
ENDMDL
MODEL 10
REMARK VINA RESULT:      -6.4      3.480      5.663
REMARK  3 active torsions:
REMARK  status: ('A' for Active; 'I' for Inactive)
REMARK    1  A    between atoms: C_4  and  N_5 
REMARK    2  A    between atoms: N_5  and  C_6 
REMARK    3  A    between atoms: C_14  and  C_15 
REMARK       I    between atoms: C_15  and  N_16 
ROOT
HETATM    1  C   UNL     1      44.383 -14.064   6.444  1.00  0.00     0.020 A 
HETATM    2  C   UNL     1      44.441 -15.368   6.895  1.00  0.00     0.119 A 
HETATM    3  N   UNL     1      43.803 -16.399   6.300  1.00  0.00    -0.242 NA
HETATM    4  C   UNL     1      43.043 -16.154   5.202  1.00  0.00     0.143 A 
HETATM    5  C   UNL     1      42.951 -14.854   4.675  1.00  0.00     0.077 A 
HETATM    6  C   UNL     1      43.624 -13.801   5.310  1.00  0.00     0.022 A 
ENDROOT
BRANCH   4   7
HETATM    7  N   UNL     1      42.393 -17.228   4.550  1.00  0.00    -0.339 N 
HETATM    8  H   UNL     1      41.500 -17.435   5.010  1.00  0.00     0.167 HD
BRANCH   7   9
HETATM    9  C   UNL     1      42.954 -18.361   3.920  1.00  0.00     0.055 A 
HETATM   10  C   UNL     1      42.659 -18.655   2.573  1.00  0.00     0.062 A 
HETATM   11 CL   UNL     1      41.560 -17.664   1.674  1.00  0.00    -0.082 Cl
HETATM   12  C   UNL     1      43.227 -19.754   1.924  1.00  0.00     0.050 A 
HETATM   13  C   UNL     1      44.115 -20.571   2.616  1.00  0.00     0.035 A 
HETATM   14 CL   UNL     1      44.827 -21.925   1.826  1.00  0.00    -0.084 Cl
HETATM   15  C   UNL     1      44.437 -20.297   3.942  1.00  0.00     0.026 A 
HETATM   16  C   UNL     1      43.860 -19.198   4.586  1.00  0.00     0.033 A 
ENDBRANCH   7   9
ENDBRANCH   4   7
BRANCH   5  17
HETATM   17  C   UNL     1      42.108 -14.584   3.487  1.00  0.00     0.253 C 
HETATM   18  N   UNL     1      42.736 -14.101   2.372  1.00  0.00    -0.366 N 
HETATM   19  H   UNL     1      43.739 -14.139   2.254  1.00  0.00     0.159 HD
HETATM   20  H   UNL     1      42.171 -14.030   1.534  1.00  0.00     0.159 HD
HETATM   21  O   UNL     1      40.902 -14.798   3.497  1.00  0.00    -0.268 OA
ENDBRANCH   5  17
TORSDOF 3
ENDMDL
