MODEL 1
REMARK VINA RESULT:      -9.0      0.000      0.000
REMARK  10 active torsions:
REMARK  status: ('A' for Active; 'I' for Inactive)
REMARK    1  A    between atoms: C_4  and  N_5 
REMARK    2  A    between atoms: N_5  and  C_6 
REMARK    3  A    between atoms: C_6  and  N_7 
REMARK    4  A    between atoms: N_7  and  N_8 
REMARK       I    between atoms: N_8  and  C_9 
REMARK    5  A    between atoms: C_9  and  C_10 
REMARK    6  A    between atoms: C_10  and  O_11 
REMARK    7  A    between atoms: O_11  and  C_12 
REMARK    8  A    between atoms: C_22  and  C_23 
REMARK    9  A    between atoms: C_23  and  O_24 
REMARK   10  A    between atoms: C_27  and  C_28 
ROOT
HETATM    1  N   UNL     1      42.028 -15.393   5.440  1.00  0.00    -0.228 NA
HETATM    2  H   UNL     1      41.519 -15.838   6.199  1.00  0.00     0.136 HD
ENDROOT
BRANCH   1   3
HETATM    3  C   UNL     1      42.650 -16.321   4.617  1.00  0.00     0.073 C 
HETATM    4  S   UNL     1      43.016 -15.648   3.097  1.00  0.00    -0.081 SA
HETATM    5  C   UNL     1      43.486 -17.161   2.464  1.00  0.00    -0.007 C 
HETATM    6  C   UNL     1      43.822 -17.267   1.010  1.00  0.00     0.057 C 
HETATM    7  C   UNL     1      43.502 -18.138   3.450  1.00  0.00     0.005 C 
HETATM    8  C   UNL     1      43.107 -17.620   4.754  1.00  0.00     0.080 C 
BRANCH   7   9
HETATM    9  C   UNL     1      43.828 -19.523   3.120  1.00  0.00    -0.024 A 
HETATM   10  C   UNL     1      44.786 -20.204   3.884  1.00  0.00     0.012 A 
HETATM   11  C   UNL     1      45.105 -21.530   3.589  1.00  0.00     0.001 A 
HETATM   12  C   UNL     1      44.469 -22.182   2.535  1.00  0.00     0.000 A 
HETATM   13  C   UNL     1      43.516 -21.509   1.769  1.00  0.00     0.001 A 
HETATM   14  C   UNL     1      43.198 -20.180   2.057  1.00  0.00     0.012 A 
ENDBRANCH   7   9
BRANCH   8  15
HETATM   15  C   UNL     1      43.196 -18.333   6.029  1.00  0.00     0.296 C 
HETATM   16  O   UNL     1      42.573 -19.358   6.278  1.00  0.00    -0.259 OA
BRANCH  15  17
HETATM   17  O   UNL     1      44.006 -17.711   6.934  1.00  0.00    -0.322 OA
HETATM   18  C   UNL     1      45.403 -17.876   6.691  1.00  0.00     0.213 C 
ENDBRANCH  15  17
ENDBRANCH   8  15
ENDBRANCH   1   3
BRANCH   1  19
HETATM   19  C   UNL     1      42.716 -14.313   5.951  1.00  0.00     0.170 C 
HETATM   20  S   UNL     1      42.107 -12.784   5.607  1.00  0.00    -0.045 SA
BRANCH  19  21
HETATM   21  N   UNL     1      43.796 -14.565   6.760  1.00  0.00    -0.278 N 
HETATM   22  H   UNL     1      44.644 -14.866   6.265  1.00  0.00     0.189 HD
BRANCH  21  23
HETATM   23  N   UNL     1      44.054 -13.747   7.875  1.00  0.00    -0.266 N 
HETATM   24  C   UNL     1      45.229 -13.022   7.929  1.00  0.00     0.260 C 
HETATM   25  O   UNL     1      46.170 -13.180   7.153  1.00  0.00    -0.269 OA
HETATM   26  H   UNL     1      43.248 -13.428   8.413  1.00  0.00     0.190 HD
BRANCH  24  27
HETATM   27  C   UNL     1      45.262 -11.978   9.044  1.00  0.00     0.280 C 
BRANCH  27  28
HETATM   28  O   UNL     1      44.137 -11.107   8.959  1.00  0.00    -0.340 OA
BRANCH  28  29
HETATM   29  C   UNL     1      43.644 -10.591  10.127  1.00  0.00     0.091 A 
HETATM   30  C   UNL     1      42.381  -9.975  10.065  1.00  0.00     0.068 A 
HETATM   31 CL   UNL     1      41.496  -9.903   8.580  1.00  0.00    -0.081 Cl
HETATM   32  C   UNL     1      41.800  -9.413  11.203  1.00  0.00     0.046 A 
HETATM   33  C   UNL     1      42.485  -9.457  12.412  1.00  0.00     0.012 A 
HETATM   34 BR   UNL     1      41.709  -8.700  13.961  1.00  0.00    -0.051 Br
HETATM   35  C   UNL     1      43.742 -10.053  12.491  1.00  0.00     0.022 A 
HETATM   36  C   UNL     1      44.323 -10.617  11.349  1.00  0.00     0.040 A 
ENDBRANCH  28  29
ENDBRANCH  27  28
ENDBRANCH  24  27
ENDBRANCH  21  23
ENDBRANCH  19  21
ENDBRANCH   1  19
TORSDOF 10
ENDMDL
MODEL 2
REMARK VINA RESULT:      -9.0      6.003      9.021
REMARK  10 active torsions:
REMARK  status: ('A' for Active; 'I' for Inactive)
REMARK    1  A    between atoms: C_4  and  N_5 
REMARK    2  A    between atoms: N_5  and  C_6 
REMARK    3  A    between atoms: C_6  and  N_7 
REMARK    4  A    between atoms: N_7  and  N_8 
REMARK       I    between atoms: N_8  and  C_9 
REMARK    5  A    between atoms: C_9  and  C_10 
REMARK    6  A    between atoms: C_10  and  O_11 
REMARK    7  A    between atoms: O_11  and  C_12 
REMARK    8  A    between atoms: C_22  and  C_23 
REMARK    9  A    between atoms: C_23  and  O_24 
REMARK   10  A    between atoms: C_27  and  C_28 
ROOT
HETATM    1  N   UNL     1      42.470 -12.090   1.297  1.00  0.00    -0.228 NA
HETATM    2  H   UNL     1      43.181 -11.376   1.167  1.00  0.00     0.136 HD
ENDROOT
BRANCH   1   3
HETATM    3  C   UNL     1      42.011 -12.591   0.086  1.00  0.00     0.073 C 
HETATM    4  S   UNL     1      42.647 -11.709  -1.224  1.00  0.00    -0.081 SA
HETATM    5  C   UNL     1      41.642 -12.515  -2.343  1.00  0.00    -0.007 C 
HETATM    6  C   UNL     1      41.634 -12.063  -3.769  1.00  0.00     0.057 C 
HETATM    7  C   UNL     1      40.938 -13.547  -1.737  1.00  0.00     0.005 C 
HETATM    8  C   UNL     1      41.234 -13.663  -0.314  1.00  0.00     0.080 C 
BRANCH   7   9
HETATM    9  C   UNL     1      39.979 -14.341  -2.500  1.00  0.00    -0.024 A 
HETATM   10  C   UNL     1      38.641 -13.927  -2.563  1.00  0.00     0.012 A 
HETATM   11  C   UNL     1      37.711 -14.668  -3.294  1.00  0.00     0.001 A 
HETATM   12  C   UNL     1      38.113 -15.820  -3.967  1.00  0.00     0.000 A 
HETATM   13  C   UNL     1      39.442 -16.238  -3.907  1.00  0.00     0.001 A 
HETATM   14  C   UNL     1      40.374 -15.503  -3.171  1.00  0.00     0.012 A 
ENDBRANCH   7   9
BRANCH   8  15
HETATM   15  C   UNL     1      40.810 -14.750   0.569  1.00  0.00     0.296 C 
HETATM   16  O   UNL     1      41.121 -15.923   0.400  1.00  0.00    -0.259 OA
BRANCH  15  17
HETATM   17  O   UNL     1      39.989 -14.331   1.576  1.00  0.00    -0.322 OA
HETATM   18  C   UNL     1      38.614 -14.220   1.212  1.00  0.00     0.213 C 
ENDBRANCH  15  17
ENDBRANCH   8  15
ENDBRANCH   1   3
BRANCH   1  19
HETATM   19  C   UNL     1      41.596 -11.664   2.274  1.00  0.00     0.170 C 
HETATM   20  S   UNL     1      40.323 -10.680   1.787  1.00  0.00    -0.045 SA
BRANCH  19  21
HETATM   21  N   UNL     1      41.784 -12.133   3.551  1.00  0.00    -0.278 N 
HETATM   22  H   UNL     1      41.481 -11.491   4.294  1.00  0.00     0.189 HD
BRANCH  21  23
HETATM   23  N   UNL     1      41.558 -13.489   3.849  1.00  0.00    -0.266 N 
HETATM   24  C   UNL     1      42.624 -14.367   3.866  1.00  0.00     0.260 C 
HETATM   25  O   UNL     1      43.749 -14.091   3.452  1.00  0.00    -0.269 OA
HETATM   26  H   UNL     1      40.721 -13.714   4.386  1.00  0.00     0.190 HD
BRANCH  24  27
HETATM   27  C   UNL     1      42.292 -15.734   4.464  1.00  0.00     0.280 C 
BRANCH  27  28
HETATM   28  O   UNL     1      43.473 -16.509   4.650  1.00  0.00    -0.340 OA
BRANCH  28  29
HETATM   29  C   UNL     1      43.574 -17.686   3.959  1.00  0.00     0.091 A 
HETATM   30  C   UNL     1      44.360 -18.697   4.541  1.00  0.00     0.068 A 
HETATM   31 CL   UNL     1      45.136 -18.455   6.069  1.00  0.00    -0.081 Cl
HETATM   32  C   UNL     1      44.530 -19.929   3.908  1.00  0.00     0.046 A 
HETATM   33  C   UNL     1      43.917 -20.156   2.680  1.00  0.00     0.012 A 
HETATM   34 BR   UNL     1      44.137 -21.820   1.811  1.00  0.00    -0.051 Br
HETATM   35  C   UNL     1      43.144 -19.162   2.082  1.00  0.00     0.022 A 
HETATM   36  C   UNL     1      42.974 -17.928   2.720  1.00  0.00     0.040 A 
ENDBRANCH  28  29
ENDBRANCH  27  28
ENDBRANCH  24  27
ENDBRANCH  21  23
ENDBRANCH  19  21
ENDBRANCH   1  19
TORSDOF 10
ENDMDL
MODEL 3
REMARK VINA RESULT:      -8.8      4.148     10.700
REMARK  10 active torsions:
REMARK  status: ('A' for Active; 'I' for Inactive)
REMARK    1  A    between atoms: C_4  and  N_5 
REMARK    2  A    between atoms: N_5  and  C_6 
REMARK    3  A    between atoms: C_6  and  N_7 
REMARK    4  A    between atoms: N_7  and  N_8 
REMARK       I    between atoms: N_8  and  C_9 
REMARK    5  A    between atoms: C_9  and  C_10 
REMARK    6  A    between atoms: C_10  and  O_11 
REMARK    7  A    between atoms: O_11  and  C_12 
REMARK    8  A    between atoms: C_22  and  C_23 
REMARK    9  A    between atoms: C_23  and  O_24 
REMARK   10  A    between atoms: C_27  and  C_28 
ROOT
HETATM    1  N   UNL     1      41.653 -10.476   6.627  1.00  0.00    -0.228 NA
HETATM    2  H   UNL     1      42.590 -10.183   6.361  1.00  0.00     0.136 HD
ENDROOT
BRANCH   1   3
HETATM    3  C   UNL     1      41.450 -10.379   7.997  1.00  0.00     0.073 C 
HETATM    4  S   UNL     1      39.801 -10.160   8.359  1.00  0.00    -0.081 SA
HETATM    5  C   UNL     1      40.131  -9.871  10.008  1.00  0.00    -0.007 C 
HETATM    6  C   UNL     1      39.013  -9.453  10.910  1.00  0.00     0.057 C 
HETATM    7  C   UNL     1      41.471 -10.086  10.300  1.00  0.00     0.005 C 
HETATM    8  C   UNL     1      42.238 -10.491   9.128  1.00  0.00     0.080 C 
BRANCH   7   9
HETATM    9  C   UNL     1      41.987  -9.849  11.646  1.00  0.00    -0.024 A 
HETATM   10  C   UNL     1      42.440  -8.569  11.992  1.00  0.00     0.012 A 
HETATM   11  C   UNL     1      42.929  -8.321  13.275  1.00  0.00     0.001 A 
HETATM   12  C   UNL     1      42.962  -9.346  14.218  1.00  0.00     0.000 A 
HETATM   13  C   UNL     1      42.514 -10.623  13.879  1.00  0.00     0.001 A 
HETATM   14  C   UNL     1      42.031 -10.877  12.594  1.00  0.00     0.012 A 
ENDBRANCH   7   9
BRANCH   8  15
HETATM   15  C   UNL     1      43.620 -10.971   9.125  1.00  0.00     0.296 C 
HETATM   16  O   UNL     1      44.539 -10.400   9.702  1.00  0.00    -0.259 OA
BRANCH  15  17
HETATM   17  O   UNL     1      43.794 -12.096   8.372  1.00  0.00    -0.322 OA
HETATM   18  C   UNL     1      45.079 -12.704   8.500  1.00  0.00     0.213 C 
ENDBRANCH  15  17
ENDBRANCH   8  15
ENDBRANCH   1   3
BRANCH   1  19
HETATM   19  C   UNL     1      41.343 -11.627   5.936  1.00  0.00     0.170 C 
HETATM   20  S   UNL     1      40.932 -11.459   4.314  1.00  0.00    -0.045 SA
BRANCH  19  21
HETATM   21  N   UNL     1      41.464 -12.825   6.596  1.00  0.00    -0.278 N 
HETATM   22  H   UNL     1      40.574 -13.249   6.886  1.00  0.00     0.189 HD
BRANCH  21  23
HETATM   23  N   UNL     1      42.432 -13.763   6.193  1.00  0.00    -0.266 N 
HETATM   24  C   UNL     1      42.029 -14.933   5.578  1.00  0.00     0.260 C 
HETATM   25  O   UNL     1      40.860 -15.312   5.521  1.00  0.00    -0.269 OA
HETATM   26  H   UNL     1      43.376 -13.414   6.028  1.00  0.00     0.190 HD
BRANCH  24  27
HETATM   27  C   UNL     1      43.173 -15.728   4.951  1.00  0.00     0.280 C 
BRANCH  27  28
HETATM   28  O   UNL     1      42.789 -16.261   3.686  1.00  0.00    -0.340 OA
BRANCH  28  29
HETATM   29  C   UNL     1      43.188 -17.535   3.387  1.00  0.00     0.091 A 
HETATM   30  C   UNL     1      42.710 -18.083   2.183  1.00  0.00     0.068 A 
HETATM   31 CL   UNL     1      41.685 -17.167   1.131  1.00  0.00    -0.081 Cl
HETATM   32  C   UNL     1      43.057 -19.378   1.795  1.00  0.00     0.046 A 
HETATM   33  C   UNL     1      43.881 -20.139   2.617  1.00  0.00     0.012 A 
HETATM   34 BR   UNL     1      44.358 -21.895   2.105  1.00  0.00    -0.051 Br
HETATM   35  C   UNL     1      44.355 -19.618   3.819  1.00  0.00     0.022 A 
HETATM   36  C   UNL     1      44.008 -18.318   4.206  1.00  0.00     0.040 A 
ENDBRANCH  28  29
ENDBRANCH  27  28
ENDBRANCH  24  27
ENDBRANCH  21  23
ENDBRANCH  19  21
ENDBRANCH   1  19
TORSDOF 10
ENDMDL
MODEL 4
REMARK VINA RESULT:      -8.7      1.998      2.817
REMARK  10 active torsions:
REMARK  status: ('A' for Active; 'I' for Inactive)
REMARK    1  A    between atoms: C_4  and  N_5 
REMARK    2  A    between atoms: N_5  and  C_6 
REMARK    3  A    between atoms: C_6  and  N_7 
REMARK    4  A    between atoms: N_7  and  N_8 
REMARK       I    between atoms: N_8  and  C_9 
REMARK    5  A    between atoms: C_9  and  C_10 
REMARK    6  A    between atoms: C_10  and  O_11 
REMARK    7  A    between atoms: O_11  and  C_12 
REMARK    8  A    between atoms: C_22  and  C_23 
REMARK    9  A    between atoms: C_23  and  O_24 
REMARK   10  A    between atoms: C_27  and  C_28 
ROOT
HETATM    1  N   UNL     1      41.782 -14.789   6.160  1.00  0.00    -0.228 NA
HETATM    2  H   UNL     1      41.433 -14.722   7.113  1.00  0.00     0.136 HD
ENDROOT
BRANCH   1   3
HETATM    3  C   UNL     1      42.179 -16.081   5.844  1.00  0.00     0.073 C 
HETATM    4  S   UNL     1      42.425 -17.010   7.250  1.00  0.00    -0.081 SA
HETATM    5  C   UNL     1      43.089 -18.306   6.360  1.00  0.00    -0.007 C 
HETATM    6  C   UNL     1      43.665 -19.473   7.098  1.00  0.00     0.057 C 
HETATM    7  C   UNL     1      42.985 -18.085   4.993  1.00  0.00     0.005 C 
HETATM    8  C   UNL     1      42.349 -16.811   4.681  1.00  0.00     0.080 C 
BRANCH   7   9
HETATM    9  C   UNL     1      43.535 -19.046   4.041  1.00  0.00    -0.024 A 
HETATM   10  C   UNL     1      44.685 -19.771   4.383  1.00  0.00     0.012 A 
HETATM   11  C   UNL     1      45.221 -20.700   3.490  1.00  0.00     0.001 A 
HETATM   12  C   UNL     1      44.609 -20.913   2.256  1.00  0.00     0.000 A 
HETATM   13  C   UNL     1      43.465 -20.194   1.910  1.00  0.00     0.001 A 
HETATM   14  C   UNL     1      42.930 -19.258   2.798  1.00  0.00     0.012 A 
ENDBRANCH   7   9
BRANCH   8  15
HETATM   15  C   UNL     1      41.923 -16.362   3.356  1.00  0.00     0.296 C 
HETATM   16  O   UNL     1      42.651 -15.759   2.576  1.00  0.00    -0.259 OA
BRANCH  15  17
HETATM   17  O   UNL     1      40.612 -16.637   3.094  1.00  0.00    -0.322 OA
HETATM   18  C   UNL     1      40.083 -15.972   1.948  1.00  0.00     0.213 C 
ENDBRANCH  15  17
ENDBRANCH   8  15
ENDBRANCH   1   3
BRANCH   1  19
HETATM   19  C   UNL     1      42.601 -13.707   5.918  1.00  0.00     0.170 C 
HETATM   20  S   UNL     1      42.231 -12.749   4.587  1.00  0.00    -0.045 SA
BRANCH  19  21
HETATM   21  N   UNL     1      43.606 -13.450   6.817  1.00  0.00    -0.278 N 
HETATM   22  H   UNL     1      44.554 -13.468   6.421  1.00  0.00     0.189 HD
BRANCH  21  23
HETATM   23  N   UNL     1      43.431 -12.476   7.817  1.00  0.00    -0.266 N 
HETATM   24  C   UNL     1      44.409 -12.305   8.778  1.00  0.00     0.260 C 
HETATM   25  O   UNL     1      45.354 -13.076   8.942  1.00  0.00    -0.269 OA
HETATM   26  H   UNL     1      42.800 -11.703   7.607  1.00  0.00     0.190 HD
BRANCH  24  27
HETATM   27  C   UNL     1      44.228 -11.049   9.629  1.00  0.00     0.280 C 
BRANCH  27  28
HETATM   28  O   UNL     1      42.890 -10.949  10.109  1.00  0.00    -0.340 OA
BRANCH  28  29
HETATM   29  C   UNL     1      42.710 -10.572  11.413  1.00  0.00     0.091 A 
HETATM   30  C   UNL     1      41.422 -10.746  11.951  1.00  0.00     0.068 A 
HETATM   31 CL   UNL     1      40.144 -11.427  11.003  1.00  0.00    -0.081 Cl
HETATM   32  C   UNL     1      41.139 -10.385  13.269  1.00  0.00     0.046 A 
HETATM   33  C   UNL     1      42.146  -9.838  14.057  1.00  0.00     0.012 A 
HETATM   34 BR   UNL     1      41.777  -9.344  15.844  1.00  0.00    -0.051 Br
HETATM   35  C   UNL     1      43.425  -9.647  13.539  1.00  0.00     0.022 A 
HETATM   36  C   UNL     1      43.707 -10.012  12.217  1.00  0.00     0.040 A 
ENDBRANCH  28  29
ENDBRANCH  27  28
ENDBRANCH  24  27
ENDBRANCH  21  23
ENDBRANCH  19  21
ENDBRANCH   1  19
TORSDOF 10
ENDMDL
MODEL 5
REMARK VINA RESULT:      -8.4      2.024      2.813
REMARK  10 active torsions:
REMARK  status: ('A' for Active; 'I' for Inactive)
REMARK    1  A    between atoms: C_4  and  N_5 
REMARK    2  A    between atoms: N_5  and  C_6 
REMARK    3  A    between atoms: C_6  and  N_7 
REMARK    4  A    between atoms: N_7  and  N_8 
REMARK       I    between atoms: N_8  and  C_9 
REMARK    5  A    between atoms: C_9  and  C_10 
REMARK    6  A    between atoms: C_10  and  O_11 
REMARK    7  A    between atoms: O_11  and  C_12 
REMARK    8  A    between atoms: C_22  and  C_23 
REMARK    9  A    between atoms: C_23  and  O_24 
REMARK   10  A    between atoms: C_27  and  C_28 
ROOT
HETATM    1  N   UNL     1      42.442 -14.232   4.247  1.00  0.00    -0.228 NA
HETATM    2  H   UNL     1      42.408 -13.758   3.348  1.00  0.00     0.136 HD
ENDROOT
BRANCH   1   3
HETATM    3  C   UNL     1      42.972 -15.510   4.139  1.00  0.00     0.073 C 
HETATM    4  S   UNL     1      43.236 -15.930   2.511  1.00  0.00    -0.081 SA
HETATM    5  C   UNL     1      43.614 -17.544   2.918  1.00  0.00    -0.007 C 
HETATM    6  C   UNL     1      43.832 -18.538   1.821  1.00  0.00     0.057 C 
HETATM    7  C   UNL     1      43.680 -17.715   4.294  1.00  0.00     0.005 C 
HETATM    8  C   UNL     1      43.403 -16.483   5.023  1.00  0.00     0.080 C 
BRANCH   7   9
HETATM    9  C   UNL     1      43.943 -19.033   4.868  1.00  0.00    -0.024 A 
HETATM   10  C   UNL     1      44.766 -19.931   4.176  1.00  0.00     0.012 A 
HETATM   11  C   UNL     1      45.036 -21.191   4.712  1.00  0.00     0.001 A 
HETATM   12  C   UNL     1      44.489 -21.557   5.940  1.00  0.00     0.000 A 
HETATM   13  C   UNL     1      43.667 -20.668   6.633  1.00  0.00     0.001 A 
HETATM   14  C   UNL     1      43.390 -19.408   6.097  1.00  0.00     0.012 A 
ENDBRANCH   7   9
BRANCH   8  15
HETATM   15  C   UNL     1      43.572 -16.275   6.461  1.00  0.00     0.296 C 
HETATM   16  O   UNL     1      42.687 -16.477   7.285  1.00  0.00    -0.259 OA
BRANCH  15  17
HETATM   17  O   UNL     1      44.802 -15.785   6.789  1.00  0.00    -0.322 OA
HETATM   18  C   UNL     1      44.827 -14.388   7.078  1.00  0.00     0.213 C 
ENDBRANCH  15  17
ENDBRANCH   8  15
ENDBRANCH   1   3
BRANCH   1  19
HETATM   19  C   UNL     1      41.254 -14.001   4.908  1.00  0.00     0.170 C 
HETATM   20  S   UNL     1      39.834 -14.332   4.069  1.00  0.00    -0.045 SA
BRANCH  19  21
HETATM   21  N   UNL     1      41.317 -13.594   6.217  1.00  0.00    -0.278 N 
HETATM   22  H   UNL     1      41.602 -14.324   6.882  1.00  0.00     0.189 HD
BRANCH  21  23
HETATM   23  N   UNL     1      41.806 -12.315   6.539  1.00  0.00    -0.266 N 
HETATM   24  C   UNL     1      40.920 -11.324   6.916  1.00  0.00     0.260 C 
HETATM   25  O   UNL     1      39.698 -11.418   6.811  1.00  0.00    -0.269 OA
HETATM   26  H   UNL     1      42.779 -12.251   6.837  1.00  0.00     0.190 HD
BRANCH  24  27
HETATM   27  C   UNL     1      41.593 -10.080   7.496  1.00  0.00     0.280 C 
BRANCH  27  28
HETATM   28  O   UNL     1      42.748 -10.433   8.252  1.00  0.00    -0.340 OA
BRANCH  28  29
HETATM   29  C   UNL     1      42.744 -10.142   9.590  1.00  0.00     0.091 A 
HETATM   30  C   UNL     1      43.849 -10.587  10.339  1.00  0.00     0.068 A 
HETATM   31 CL   UNL     1      45.152 -11.440   9.584  1.00  0.00    -0.081 Cl
HETATM   32  C   UNL     1      43.931 -10.344  11.710  1.00  0.00     0.046 A 
HETATM   33  C   UNL     1      42.901  -9.659  12.346  1.00  0.00     0.012 A 
HETATM   34 BR   UNL     1      42.999  -9.324  14.203  1.00  0.00    -0.051 Br
HETATM   35  C   UNL     1      41.793  -9.220  11.623  1.00  0.00     0.022 A 
HETATM   36  C   UNL     1      41.713  -9.463  10.247  1.00  0.00     0.040 A 
ENDBRANCH  28  29
ENDBRANCH  27  28
ENDBRANCH  24  27
ENDBRANCH  21  23
ENDBRANCH  19  21
ENDBRANCH   1  19
TORSDOF 10
ENDMDL
MODEL 6
REMARK VINA RESULT:      -8.3      2.001      2.611
REMARK  10 active torsions:
REMARK  status: ('A' for Active; 'I' for Inactive)
REMARK    1  A    between atoms: C_4  and  N_5 
REMARK    2  A    between atoms: N_5  and  C_6 
REMARK    3  A    between atoms: C_6  and  N_7 
REMARK    4  A    between atoms: N_7  and  N_8 
REMARK       I    between atoms: N_8  and  C_9 
REMARK    5  A    between atoms: C_9  and  C_10 
REMARK    6  A    between atoms: C_10  and  O_11 
REMARK    7  A    between atoms: O_11  and  C_12 
REMARK    8  A    between atoms: C_22  and  C_23 
REMARK    9  A    between atoms: C_23  and  O_24 
REMARK   10  A    between atoms: C_27  and  C_28 
ROOT
HETATM    1  N   UNL     1      40.056 -15.110   4.308  1.00  0.00    -0.228 NA
HETATM    2  H   UNL     1      39.537 -15.592   5.038  1.00  0.00     0.136 HD
ENDROOT
BRANCH   1   3
HETATM    3  C   UNL     1      41.043 -15.915   3.757  1.00  0.00     0.073 C 
HETATM    4  S   UNL     1      41.494 -15.362   2.211  1.00  0.00    -0.081 SA
HETATM    5  C   UNL     1      42.457 -16.741   1.924  1.00  0.00    -0.007 C 
HETATM    6  C   UNL     1      43.073 -16.929   0.574  1.00  0.00     0.057 C 
HETATM    7  C   UNL     1      42.547 -17.539   3.057  1.00  0.00     0.005 C 
HETATM    8  C   UNL     1      41.794 -16.996   4.182  1.00  0.00     0.080 C 
BRANCH   7   9
HETATM    9  C   UNL     1      43.285 -18.799   3.023  1.00  0.00    -0.024 A 
HETATM   10  C   UNL     1      42.985 -19.743   2.032  1.00  0.00     0.012 A 
HETATM   11  C   UNL     1      43.685 -20.950   1.978  1.00  0.00     0.001 A 
HETATM   12  C   UNL     1      44.687 -21.216   2.909  1.00  0.00     0.000 A 
HETATM   13  C   UNL     1      44.989 -20.281   3.898  1.00  0.00     0.001 A 
HETATM   14  C   UNL     1      44.287 -19.075   3.960  1.00  0.00     0.012 A 
ENDBRANCH   7   9
BRANCH   8  15
HETATM   15  C   UNL     1      41.830 -17.485   5.560  1.00  0.00     0.296 C 
HETATM   16  O   UNL     1      41.711 -18.666   5.865  1.00  0.00    -0.259 OA
BRANCH  15  17
HETATM   17  O   UNL     1      41.959 -16.484   6.479  1.00  0.00    -0.322 OA
HETATM   18  C   UNL     1      43.109 -16.593   7.317  1.00  0.00     0.213 C 
ENDBRANCH  15  17
ENDBRANCH   8  15
ENDBRANCH   1   3
BRANCH   1  19
HETATM   19  C   UNL     1      40.332 -13.830   4.741  1.00  0.00     0.170 C 
HETATM   20  S   UNL     1      39.736 -12.562   3.811  1.00  0.00    -0.045 SA
BRANCH  19  21
HETATM   21  N   UNL     1      41.003 -13.686   5.930  1.00  0.00    -0.278 N 
HETATM   22  H   UNL     1      41.522 -14.519   6.235  1.00  0.00     0.189 HD
BRANCH  21  23
HETATM   23  N   UNL     1      41.647 -12.474   6.239  1.00  0.00    -0.266 N 
HETATM   24  C   UNL     1      41.007 -11.551   7.043  1.00  0.00     0.260 C 
HETATM   25  O   UNL     1      39.822 -11.624   7.366  1.00  0.00    -0.269 OA
HETATM   26  H   UNL     1      42.664 -12.461   6.179  1.00  0.00     0.190 HD
BRANCH  24  27
HETATM   27  C   UNL     1      41.910 -10.415   7.521  1.00  0.00     0.280 C 
BRANCH  27  28
HETATM   28  O   UNL     1      42.916 -10.902   8.405  1.00  0.00    -0.340 OA
BRANCH  28  29
HETATM   29  C   UNL     1      42.842 -10.526   9.719  1.00  0.00     0.091 A 
HETATM   30  C   UNL     1      44.037 -10.573  10.460  1.00  0.00     0.068 A 
HETATM   31 CL   UNL     1      45.524 -11.063   9.723  1.00  0.00    -0.081 Cl
HETATM   32  C   UNL     1      44.061 -10.216  11.808  1.00  0.00     0.046 A 
HETATM   33  C   UNL     1      42.882  -9.815  12.429  1.00  0.00     0.012 A 
HETATM   34 BR   UNL     1      42.899  -9.328  14.255  1.00  0.00    -0.051 Br
HETATM   35  C   UNL     1      41.686  -9.773  11.715  1.00  0.00     0.022 A 
HETATM   36  C   UNL     1      41.665 -10.130  10.362  1.00  0.00     0.040 A 
ENDBRANCH  28  29
ENDBRANCH  27  28
ENDBRANCH  24  27
ENDBRANCH  21  23
ENDBRANCH  19  21
ENDBRANCH   1  19
TORSDOF 10
ENDMDL
MODEL 7
REMARK VINA RESULT:      -8.2      2.957      3.988
REMARK  10 active torsions:
REMARK  status: ('A' for Active; 'I' for Inactive)
REMARK    1  A    between atoms: C_4  and  N_5 
REMARK    2  A    between atoms: N_5  and  C_6 
REMARK    3  A    between atoms: C_6  and  N_7 
REMARK    4  A    between atoms: N_7  and  N_8 
REMARK       I    between atoms: N_8  and  C_9 
REMARK    5  A    between atoms: C_9  and  C_10 
REMARK    6  A    between atoms: C_10  and  O_11 
REMARK    7  A    between atoms: O_11  and  C_12 
REMARK    8  A    between atoms: C_22  and  C_23 
REMARK    9  A    between atoms: C_23  and  O_24 
REMARK   10  A    between atoms: C_27  and  C_28 
ROOT
HETATM    1  N   UNL     1      41.373 -11.547   2.308  1.00  0.00    -0.228 NA
HETATM    2  H   UNL     1      40.888 -11.081   1.546  1.00  0.00     0.136 HD
ENDROOT
BRANCH   1   3
HETATM    3  C   UNL     1      41.720 -12.850   1.982  1.00  0.00     0.073 C 
HETATM    4  S   UNL     1      41.147 -13.270   0.435  1.00  0.00    -0.081 SA
HETATM    5  C   UNL     1      41.592 -14.905   0.639  1.00  0.00    -0.007 C 
HETATM    6  C   UNL     1      41.204 -15.899  -0.410  1.00  0.00     0.057 C 
HETATM    7  C   UNL     1      42.302 -15.091   1.817  1.00  0.00     0.005 C 
HETATM    8  C   UNL     1      42.472 -13.853   2.567  1.00  0.00     0.080 C 
BRANCH   7   9
HETATM    9  C   UNL     1      42.740 -16.426   2.218  1.00  0.00    -0.024 A 
HETATM   10  C   UNL     1      43.909 -16.962   1.660  1.00  0.00     0.012 A 
HETATM   11  C   UNL     1      44.348 -18.232   2.037  1.00  0.00     0.001 A 
HETATM   12  C   UNL     1      43.626 -18.969   2.973  1.00  0.00     0.000 A 
HETATM   13  C   UNL     1      42.461 -18.442   3.531  1.00  0.00     0.001 A 
HETATM   14  C   UNL     1      42.015 -17.174   3.152  1.00  0.00     0.012 A 
ENDBRANCH   7   9
BRANCH   8  15
HETATM   15  C   UNL     1      43.322 -13.667   3.744  1.00  0.00     0.296 C 
HETATM   16  O   UNL     1      44.539 -13.816   3.733  1.00  0.00    -0.259 OA
BRANCH  15  17
HETATM   17  O   UNL     1      42.616 -13.359   4.870  1.00  0.00    -0.322 OA
HETATM   18  C   UNL     1      41.928 -14.462   5.460  1.00  0.00     0.213 C 
ENDBRANCH  15  17
ENDBRANCH   8  15
ENDBRANCH   1   3
BRANCH   1  19
HETATM   19  C   UNL     1      40.721 -11.251   3.486  1.00  0.00     0.170 C 
HETATM   20  S   UNL     1      39.172 -11.875   3.681  1.00  0.00    -0.045 SA
BRANCH  19  21
HETATM   21  N   UNL     1      41.407 -10.538   4.438  1.00  0.00    -0.278 N 
HETATM   22  H   UNL     1      41.395  -9.519   4.304  1.00  0.00     0.189 HD
BRANCH  21  23
HETATM   23  N   UNL     1      41.363 -10.931   5.788  1.00  0.00    -0.266 N 
HETATM   24  C   UNL     1      41.435  -9.970   6.778  1.00  0.00     0.260 C 
HETATM   25  O   UNL     1      41.726  -8.793   6.573  1.00  0.00    -0.269 OA
HETATM   26  H   UNL     1      40.924 -11.828   5.996  1.00  0.00     0.190 HD
BRANCH  24  27
HETATM   27  C   UNL     1      41.103 -10.494   8.174  1.00  0.00     0.280 C 
BRANCH  27  28
HETATM   28  O   UNL     1      42.292 -10.727   8.926  1.00  0.00    -0.340 OA
BRANCH  28  29
HETATM   29  C   UNL     1      42.261 -10.446  10.265  1.00  0.00     0.091 A 
HETATM   30  C   UNL     1      43.499 -10.396  10.931  1.00  0.00     0.068 A 
HETATM   31 CL   UNL     1      44.982 -10.656  10.078  1.00  0.00    -0.081 Cl
HETATM   32  C   UNL     1      43.569 -10.124  12.298  1.00  0.00     0.046 A 
HETATM   33  C   UNL     1      42.394  -9.908  13.012  1.00  0.00     0.012 A 
HETATM   34 BR   UNL     1      42.474  -9.539  14.864  1.00  0.00    -0.051 Br
HETATM   35  C   UNL     1      41.158  -9.965  12.372  1.00  0.00     0.022 A 
HETATM   36  C   UNL     1      41.090 -10.236  11.000  1.00  0.00     0.040 A 
ENDBRANCH  28  29
ENDBRANCH  27  28
ENDBRANCH  24  27
ENDBRANCH  21  23
ENDBRANCH  19  21
ENDBRANCH   1  19
TORSDOF 10
ENDMDL
MODEL 8
REMARK VINA RESULT:      -8.0      2.296      3.270
REMARK  10 active torsions:
REMARK  status: ('A' for Active; 'I' for Inactive)
REMARK    1  A    between atoms: C_4  and  N_5 
REMARK    2  A    between atoms: N_5  and  C_6 
REMARK    3  A    between atoms: C_6  and  N_7 
REMARK    4  A    between atoms: N_7  and  N_8 
REMARK       I    between atoms: N_8  and  C_9 
REMARK    5  A    between atoms: C_9  and  C_10 
REMARK    6  A    between atoms: C_10  and  O_11 
REMARK    7  A    between atoms: O_11  and  C_12 
REMARK    8  A    between atoms: C_22  and  C_23 
REMARK    9  A    between atoms: C_23  and  O_24 
REMARK   10  A    between atoms: C_27  and  C_28 
ROOT
HETATM    1  N   UNL     1      42.892 -14.667   4.597  1.00  0.00    -0.228 NA
HETATM    2  H   UNL     1      43.259 -14.224   3.758  1.00  0.00     0.136 HD
ENDROOT
BRANCH   1   3
HETATM    3  C   UNL     1      42.973 -16.051   4.529  1.00  0.00     0.073 C 
HETATM    4  S   UNL     1      42.702 -16.758   6.054  1.00  0.00    -0.081 SA
HETATM    5  C   UNL     1      43.136 -18.308   5.488  1.00  0.00    -0.007 C 
HETATM    6  C   UNL     1      43.233 -19.437   6.465  1.00  0.00     0.057 C 
HETATM    7  C   UNL     1      43.340 -18.305   4.115  1.00  0.00     0.005 C 
HETATM    8  C   UNL     1      43.141 -16.987   3.525  1.00  0.00     0.080 C 
BRANCH   7   9
HETATM    9  C   UNL     1      43.768 -19.519   3.424  1.00  0.00    -0.024 A 
HETATM   10  C   UNL     1      44.856 -20.247   3.925  1.00  0.00     0.012 A 
HETATM   11  C   UNL     1      45.274 -21.414   3.283  1.00  0.00     0.001 A 
HETATM   12  C   UNL     1      44.606 -21.861   2.145  1.00  0.00     0.000 A 
HETATM   13  C   UNL     1      43.523 -21.140   1.642  1.00  0.00     0.001 A 
HETATM   14  C   UNL     1      43.106 -19.968   2.276  1.00  0.00     0.012 A 
ENDBRANCH   7   9
BRANCH   8  15
HETATM   15  C   UNL     1      43.095 -16.681   2.095  1.00  0.00     0.296 C 
HETATM   16  O   UNL     1      44.049 -16.824   1.339  1.00  0.00    -0.259 OA
BRANCH  15  17
HETATM   17  O   UNL     1      41.894 -16.169   1.696  1.00  0.00    -0.322 OA
HETATM   18  C   UNL     1      41.542 -16.465   0.345  1.00  0.00     0.213 C 
ENDBRANCH  15  17
ENDBRANCH   8  15
ENDBRANCH   1   3
BRANCH   1  19
HETATM   19  C   UNL     1      41.720 -14.033   4.949  1.00  0.00     0.170 C 
HETATM   20  S   UNL     1      40.516 -13.944   3.778  1.00  0.00    -0.045 SA
BRANCH  19  21
HETATM   21  N   UNL     1      41.593 -13.591   6.242  1.00  0.00    -0.278 N 
HETATM   22  H   UNL     1      41.754 -14.308   6.960  1.00  0.00     0.189 HD
BRANCH  21  23
HETATM   23  N   UNL     1      42.061 -12.314   6.604  1.00  0.00    -0.266 N 
HETATM   24  C   UNL     1      41.151 -11.317   6.902  1.00  0.00     0.260 C 
HETATM   25  O   UNL     1      39.943 -11.404   6.691  1.00  0.00    -0.269 OA
HETATM   26  H   UNL     1      43.004 -12.257   6.986  1.00  0.00     0.190 HD
BRANCH  24  27
HETATM   27  C   UNL     1      41.779 -10.077   7.537  1.00  0.00     0.280 C 
BRANCH  27  28
HETATM   28  O   UNL     1      42.887 -10.433   8.359  1.00  0.00    -0.340 OA
BRANCH  28  29
HETATM   29  C   UNL     1      42.788 -10.183   9.702  1.00  0.00     0.091 A 
HETATM   30  C   UNL     1      43.744 -10.795  10.533  1.00  0.00     0.068 A 
HETATM   31 CL   UNL     1      44.992 -11.794   9.870  1.00  0.00    -0.081 Cl
HETATM   32  C   UNL     1      43.720 -10.605  11.915  1.00  0.00     0.046 A 
HETATM   33  C   UNL     1      42.731  -9.805  12.477  1.00  0.00     0.012 A 
HETATM   34 BR   UNL     1      42.688  -9.539  14.348  1.00  0.00    -0.051 Br
HETATM   35  C   UNL     1      41.769  -9.199  11.671  1.00  0.00     0.022 A 
HETATM   36  C   UNL     1      41.796  -9.389  10.285  1.00  0.00     0.040 A 
ENDBRANCH  28  29
ENDBRANCH  27  28
ENDBRANCH  24  27
ENDBRANCH  21  23
ENDBRANCH  19  21
ENDBRANCH   1  19
TORSDOF 10
ENDMDL
MODEL 9
REMARK VINA RESULT:      -8.0      6.220      9.013
REMARK  10 active torsions:
REMARK  status: ('A' for Active; 'I' for Inactive)
REMARK    1  A    between atoms: C_4  and  N_5 
REMARK    2  A    between atoms: N_5  and  C_6 
REMARK    3  A    between atoms: C_6  and  N_7 
REMARK    4  A    between atoms: N_7  and  N_8 
REMARK       I    between atoms: N_8  and  C_9 
REMARK    5  A    between atoms: C_9  and  C_10 
REMARK    6  A    between atoms: C_10  and  O_11 
REMARK    7  A    between atoms: O_11  and  C_12 
REMARK    8  A    between atoms: C_22  and  C_23 
REMARK    9  A    between atoms: C_23  and  O_24 
REMARK   10  A    between atoms: C_27  and  C_28 
ROOT
HETATM    1  N   UNL     1      39.565 -12.629   4.102  1.00  0.00    -0.228 NA
HETATM    2  H   UNL     1      39.320 -12.294   5.030  1.00  0.00     0.136 HD
ENDROOT
BRANCH   1   3
HETATM    3  C   UNL     1      40.432 -13.713   4.155  1.00  0.00     0.073 C 
HETATM    4  S   UNL     1      41.357 -13.690   5.584  1.00  0.00    -0.081 SA
HETATM    5  C   UNL     1      42.338 -14.981   5.050  1.00  0.00    -0.007 C 
HETATM    6  C   UNL     1      43.520 -15.383   5.873  1.00  0.00     0.057 C 
HETATM    7  C   UNL     1      41.865 -15.514   3.859  1.00  0.00     0.005 C 
HETATM    8  C   UNL     1      40.670 -14.832   3.377  1.00  0.00     0.080 C 
BRANCH   7   9
HETATM    9  C   UNL     1      42.582 -16.600   3.194  1.00  0.00    -0.024 A 
HETATM   10  C   UNL     1      43.470 -16.299   2.152  1.00  0.00     0.012 A 
HETATM   11  C   UNL     1      44.170 -17.322   1.511  1.00  0.00     0.001 A 
HETATM   12  C   UNL     1      43.991 -18.646   1.908  1.00  0.00     0.000 A 
HETATM   13  C   UNL     1      43.107 -18.951   2.943  1.00  0.00     0.001 A 
HETATM   14  C   UNL     1      42.399 -17.931   3.584  1.00  0.00     0.012 A 
ENDBRANCH   7   9
BRANCH   8  15
HETATM   15  C   UNL     1      39.822 -15.258   2.264  1.00  0.00     0.296 C 
HETATM   16  O   UNL     1      39.560 -16.431   2.020  1.00  0.00    -0.259 OA
BRANCH  15  17
HETATM   17  O   UNL     1      39.391 -14.219   1.491  1.00  0.00    -0.322 OA
HETATM   18  C   UNL     1      38.021 -14.297   1.102  1.00  0.00     0.213 C 
ENDBRANCH  15  17
ENDBRANCH   8  15
ENDBRANCH   1   3
BRANCH   1  19
HETATM   19  C   UNL     1      39.827 -11.540   3.298  1.00  0.00     0.170 C 
HETATM   20  S   UNL     1      38.510 -10.621   2.801  1.00  0.00    -0.045 SA
BRANCH  19  21
HETATM   21  N   UNL     1      41.140 -11.244   3.027  1.00  0.00    -0.278 N 
HETATM   22  H   UNL     1      41.824 -11.836   3.514  1.00  0.00     0.189 HD
BRANCH  21  23
HETATM   23  N   UNL     1      41.531 -10.883   1.725  1.00  0.00    -0.266 N 
HETATM   24  C   UNL     1      42.138 -11.822   0.913  1.00  0.00     0.260 C 
HETATM   25  O   UNL     1      42.539 -12.916   1.307  1.00  0.00    -0.269 OA
HETATM   26  H   UNL     1      41.048 -10.094   1.297  1.00  0.00     0.190 HD
BRANCH  24  27
HETATM   27  C   UNL     1      42.262 -11.390  -0.548  1.00  0.00     0.280 C 
BRANCH  27  28
HETATM   28  O   UNL     1      40.985 -11.362  -1.180  1.00  0.00    -0.340 OA
BRANCH  28  29
HETATM   29  C   UNL     1      40.596 -12.477  -1.872  1.00  0.00     0.091 A 
HETATM   30  C   UNL     1      39.211 -12.680  -2.020  1.00  0.00     0.068 A 
HETATM   31 CL   UNL     1      38.070 -11.552  -1.371  1.00  0.00    -0.081 Cl
HETATM   32  C   UNL     1      38.718 -13.792  -2.704  1.00  0.00     0.046 A 
HETATM   33  C   UNL     1      39.609 -14.715  -3.240  1.00  0.00     0.012 A 
HETATM   34 BR   UNL     1      38.954 -16.226  -4.168  1.00  0.00    -0.051 Br
HETATM   35  C   UNL     1      40.984 -14.537  -3.094  1.00  0.00     0.022 A 
HETATM   36  C   UNL     1      41.477 -13.420  -2.409  1.00  0.00     0.040 A 
ENDBRANCH  28  29
ENDBRANCH  27  28
ENDBRANCH  24  27
ENDBRANCH  21  23
ENDBRANCH  19  21
ENDBRANCH   1  19
TORSDOF 10
ENDMDL
MODEL 10
REMARK VINA RESULT:      -7.8      5.162      7.317
REMARK  10 active torsions:
REMARK  status: ('A' for Active; 'I' for Inactive)
REMARK    1  A    between atoms: C_4  and  N_5 
REMARK    2  A    between atoms: N_5  and  C_6 
REMARK    3  A    between atoms: C_6  and  N_7 
REMARK    4  A    between atoms: N_7  and  N_8 
REMARK       I    between atoms: N_8  and  C_9 
REMARK    5  A    between atoms: C_9  and  C_10 
REMARK    6  A    between atoms: C_10  and  O_11 
REMARK    7  A    between atoms: O_11  and  C_12 
REMARK    8  A    between atoms: C_22  and  C_23 
REMARK    9  A    between atoms: C_23  and  O_24 
REMARK   10  A    between atoms: C_27  and  C_28 
ROOT
HETATM    1  N   UNL     1      42.376 -15.059   6.291  1.00  0.00    -0.228 NA
HETATM    2  H   UNL     1      42.134 -14.971   7.274  1.00  0.00     0.136 HD
ENDROOT
BRANCH   1   3
HETATM    3  C   UNL     1      42.633 -16.376   5.936  1.00  0.00     0.073 C 
HETATM    4  S   UNL     1      42.810 -17.359   7.314  1.00  0.00    -0.081 SA
HETATM    5  C   UNL     1      43.320 -18.694   6.380  1.00  0.00    -0.007 C 
HETATM    6  C   UNL     1      43.789 -19.931   7.078  1.00  0.00     0.057 C 
HETATM    7  C   UNL     1      43.212 -18.429   5.022  1.00  0.00     0.005 C 
HETATM    8  C   UNL     1      42.703 -17.090   4.753  1.00  0.00     0.080 C 
BRANCH   7   9
HETATM    9  C   UNL     1      43.641 -19.418   4.035  1.00  0.00    -0.024 A 
HETATM   10  C   UNL     1      44.653 -20.328   4.371  1.00  0.00     0.012 A 
HETATM   11  C   UNL     1      45.070 -21.285   3.445  1.00  0.00     0.001 A 
HETATM   12  C   UNL     1      44.478 -21.340   2.184  1.00  0.00     0.000 A 
HETATM   13  C   UNL     1      43.472 -20.436   1.845  1.00  0.00     0.001 A 
HETATM   14  C   UNL     1      43.056 -19.472   2.766  1.00  0.00     0.012 A 
ENDBRANCH   7   9
BRANCH   8  15
HETATM   15  C   UNL     1      42.298 -16.566   3.449  1.00  0.00     0.296 C 
HETATM   16  O   UNL     1      43.001 -15.831   2.764  1.00  0.00    -0.259 OA
BRANCH  15  17
HETATM   17  O   UNL     1      41.035 -16.939   3.092  1.00  0.00    -0.322 OA
HETATM   18  C   UNL     1      40.430 -16.112   2.099  1.00  0.00     0.213 C 
ENDBRANCH  15  17
ENDBRANCH   8  15
ENDBRANCH   1   3
BRANCH   1  19
HETATM   19  C   UNL     1      43.251 -14.045   5.964  1.00  0.00     0.170 C 
HETATM   20  S   UNL     1      44.604 -13.854   6.945  1.00  0.00    -0.045 SA
BRANCH  19  21
HETATM   21  N   UNL     1      42.996 -13.319   4.827  1.00  0.00    -0.278 N 
HETATM   22  H   UNL     1      43.758 -13.317   4.138  1.00  0.00     0.189 HD
BRANCH  21  23
HETATM   23  N   UNL     1      41.713 -13.332   4.250  1.00  0.00    -0.266 N 
HETATM   24  C   UNL     1      41.024 -12.143   4.100  1.00  0.00     0.260 C 
HETATM   25  O   UNL     1      41.372 -11.078   4.609  1.00  0.00    -0.269 OA
HETATM   26  H   UNL     1      41.484 -14.119   3.644  1.00  0.00     0.190 HD
BRANCH  24  27
HETATM   27  C   UNL     1      39.778 -12.257   3.224  1.00  0.00     0.280 C 
BRANCH  27  28
HETATM   28  O   UNL     1      40.004 -11.680   1.941  1.00  0.00    -0.340 OA
BRANCH  28  29
HETATM   29  C   UNL     1      40.254 -12.531   0.897  1.00  0.00     0.091 A 
HETATM   30  C   UNL     1      39.135 -13.040   0.213  1.00  0.00     0.068 A 
HETATM   31 CL   UNL     1      37.528 -12.584   0.668  1.00  0.00    -0.081 Cl
HETATM   32  C   UNL     1      39.288 -13.919  -0.859  1.00  0.00     0.046 A 
HETATM   33  C   UNL     1      40.566 -14.303  -1.250  1.00  0.00     0.012 A 
HETATM   34 BR   UNL     1      40.789 -15.493  -2.701  1.00  0.00    -0.051 Br
HETATM   35  C   UNL     1      41.686 -13.817  -0.578  1.00  0.00     0.022 A 
HETATM   36  C   UNL     1      41.531 -12.934   0.497  1.00  0.00     0.040 A 
ENDBRANCH  28  29
ENDBRANCH  27  28
ENDBRANCH  24  27
ENDBRANCH  21  23
ENDBRANCH  19  21
ENDBRANCH   1  19
TORSDOF 10
ENDMDL
