MODEL 1
REMARK VINA RESULT:      -8.8      0.000      0.000
REMARK  4 active torsions:
REMARK  status: ('A' for Active; 'I' for Inactive)
REMARK    1  A    between atoms: C_2  and  C_3 
REMARK    2  A    between atoms: C_4  and  C_5 
REMARK       I    between atoms: C_5  and  N_6 
REMARK    3  A    between atoms: N_6  and  C_7 
REMARK    4  A    between atoms: C_14  and  C_15 
REMARK       I    between atoms: C_15  and  N_16 
ROOT
HETATM    1  C   UNL     1      39.764 -14.870   1.003  1.00  0.00     0.035 A 
HETATM    2  C   UNL     1      40.356 -14.693  -0.254  1.00  0.00     0.046 A 
HETATM    3  C   UNL     1      39.642 -14.036  -1.279  1.00  0.00     0.030 A 
HETATM    4  C   UNL     1      38.360 -13.572  -1.010  1.00  0.00     0.063 A 
HETATM    5  N   UNL     1      37.941 -12.980  -2.169  1.00  0.00    -0.277 N 
HETATM    6  H   UNL     1      37.051 -12.525  -2.338  1.00  0.00     0.189 HD
HETATM    7  N   UNL     1      38.830 -13.030  -3.175  1.00  0.00    -0.168 NA
HETATM    8  C   UNL     1      39.887 -13.684  -2.641  1.00  0.00     0.156 A 
HETATM    9  C   UNL     1      37.736 -13.735   0.227  1.00  0.00     0.034 A 
HETATM   10  C   UNL     1      38.462 -14.399   1.225  1.00  0.00     0.032 A 
ENDROOT
BRANCH   1  11
HETATM   11  N   UNL     1      40.409 -15.496   2.093  1.00  0.00    -0.327 N 
HETATM   12  C   UNL     1      40.850 -16.799   2.156  1.00  0.00     0.227 C 
HETATM   13  O   UNL     1      40.719 -17.670   1.311  1.00  0.00    -0.273 OA
HETATM   14  H   UNL     1      40.611 -14.910   2.888  1.00  0.00     0.169 HD
BRANCH  12  15
HETATM   15  C   UNL     1      41.588 -17.158   3.399  1.00  0.00     0.087 A 
HETATM   16  C   UNL     1      43.097 -17.331   3.244  1.00  0.00     0.032 A 
HETATM   17  C   UNL     1      42.538 -16.297   4.185  1.00  0.00     0.025 A 
BRANCH  16  18
HETATM   18  C   UNL     1      43.716 -18.623   3.704  1.00  0.00    -0.053 A 
HETATM   19  C   UNL     1      43.941 -18.846   5.075  1.00  0.00     0.009 A 
HETATM   20  C   UNL     1      44.469 -20.051   5.544  1.00  0.00     0.024 A 
HETATM   21  C   UNL     1      44.784 -21.060   4.640  1.00  0.00     0.034 A 
HETATM   22  C   UNL     1      44.574 -20.869   3.276  1.00  0.00     0.024 A 
HETATM   23 CL   UNL     1      45.428 -22.550   5.207  1.00  0.00    -0.084 Cl
HETATM   24  C   UNL     1      44.039 -19.661   2.816  1.00  0.00     0.009 A 
ENDBRANCH  16  18
ENDBRANCH  12  15
ENDBRANCH   1  11
BRANCH   8  25
HETATM   25  C   UNL     1      41.095 -13.955  -3.433  1.00  0.00     0.270 C 
HETATM   26  N   UNL     1      41.749 -12.831  -3.858  1.00  0.00    -0.365 N 
HETATM   27  H   UNL     1      41.366 -11.925  -3.616  1.00  0.00     0.159 HD
HETATM   28  H   UNL     1      42.581 -12.922  -4.420  1.00  0.00     0.159 HD
HETATM   29  O   UNL     1      41.511 -15.074  -3.712  1.00  0.00    -0.266 OA
ENDBRANCH   8  25
TORSDOF 4
ENDMDL
MODEL 2
REMARK VINA RESULT:      -8.5      1.952      2.957
REMARK  4 active torsions:
REMARK  status: ('A' for Active; 'I' for Inactive)
REMARK    1  A    between atoms: C_2  and  C_3 
REMARK    2  A    between atoms: C_4  and  C_5 
REMARK       I    between atoms: C_5  and  N_6 
REMARK    3  A    between atoms: N_6  and  C_7 
REMARK    4  A    between atoms: C_14  and  C_15 
REMARK       I    between atoms: C_15  and  N_16 
ROOT
HETATM    1  C   UNL     1      40.932 -15.294  -0.992  1.00  0.00     0.035 A 
HETATM    2  C   UNL     1      39.955 -14.310  -0.789  1.00  0.00     0.046 A 
HETATM    3  C   UNL     1      39.099 -13.943  -1.850  1.00  0.00     0.030 A 
HETATM    4  C   UNL     1      39.245 -14.577  -3.078  1.00  0.00     0.063 A 
HETATM    5  N   UNL     1      38.285 -14.030  -3.883  1.00  0.00    -0.277 N 
HETATM    6  H   UNL     1      38.093 -14.259  -4.851  1.00  0.00     0.189 HD
HETATM    7  N   UNL     1      37.534 -13.085  -3.293  1.00  0.00    -0.168 NA
HETATM    8  C   UNL     1      38.028 -13.017  -2.035  1.00  0.00     0.156 A 
HETATM    9  C   UNL     1      40.211 -15.555  -3.319  1.00  0.00     0.034 A 
HETATM   10  C   UNL     1      41.054 -15.895  -2.253  1.00  0.00     0.032 A 
ENDROOT
BRANCH   1  11
HETATM   11  N   UNL     1      41.817 -15.739   0.015  1.00  0.00    -0.327 N 
HETATM   12  C   UNL     1      41.628 -16.799   0.873  1.00  0.00     0.227 C 
HETATM   13  O   UNL     1      40.645 -17.517   0.964  1.00  0.00    -0.273 OA
HETATM   14  H   UNL     1      42.700 -15.257   0.077  1.00  0.00     0.169 HD
BRANCH  12  15
HETATM   15  C   UNL     1      42.778 -17.101   1.770  1.00  0.00     0.087 A 
HETATM   16  C   UNL     1      43.708 -18.215   1.299  1.00  0.00     0.032 A 
HETATM   17  C   UNL     1      44.235 -16.823   1.521  1.00  0.00     0.025 A 
BRANCH  16  18
HETATM   18  C   UNL     1      43.975 -19.362   2.237  1.00  0.00    -0.053 A 
HETATM   19  C   UNL     1      43.896 -20.686   1.767  1.00  0.00     0.009 A 
HETATM   20  C   UNL     1      44.183 -21.774   2.595  1.00  0.00     0.024 A 
HETATM   21  C   UNL     1      44.555 -21.552   3.916  1.00  0.00     0.034 A 
HETATM   22  C   UNL     1      44.641 -20.253   4.411  1.00  0.00     0.024 A 
HETATM   23 CL   UNL     1      44.917 -22.884   4.941  1.00  0.00    -0.084 Cl
HETATM   24  C   UNL     1      44.358 -19.168   3.573  1.00  0.00     0.009 A 
ENDBRANCH  16  18
ENDBRANCH  12  15
ENDBRANCH   1  11
BRANCH   8  25
HETATM   25  C   UNL     1      37.474 -12.080  -1.048  1.00  0.00     0.270 C 
HETATM   26  N   UNL     1      37.508 -10.770  -1.441  1.00  0.00    -0.365 N 
HETATM   27  H   UNL     1      37.906 -10.544  -2.345  1.00  0.00     0.159 HD
HETATM   28  H   UNL     1      37.161 -10.055  -0.821  1.00  0.00     0.159 HD
HETATM   29  O   UNL     1      37.015 -12.402   0.042  1.00  0.00    -0.266 OA
ENDBRANCH   8  25
TORSDOF 4
ENDMDL
MODEL 3
REMARK VINA RESULT:      -8.2      6.077      9.072
REMARK  4 active torsions:
REMARK  status: ('A' for Active; 'I' for Inactive)
REMARK    1  A    between atoms: C_2  and  C_3 
REMARK    2  A    between atoms: C_4  and  C_5 
REMARK       I    between atoms: C_5  and  N_6 
REMARK    3  A    between atoms: N_6  and  C_7 
REMARK    4  A    between atoms: C_14  and  C_15 
REMARK       I    between atoms: C_15  and  N_16 
ROOT
HETATM    1  C   UNL     1      44.490 -13.271   7.094  1.00  0.00     0.035 A 
HETATM    2  C   UNL     1      43.581 -12.560   7.888  1.00  0.00     0.046 A 
HETATM    3  C   UNL     1      44.057 -11.743   8.936  1.00  0.00     0.030 A 
HETATM    4  C   UNL     1      45.427 -11.661   9.152  1.00  0.00     0.063 A 
HETATM    5  N   UNL     1      45.575 -10.800  10.204  1.00  0.00    -0.277 N 
HETATM    6  H   UNL     1      46.444 -10.498  10.631  1.00  0.00     0.189 HD
HETATM    7  N   UNL     1      44.423 -10.325  10.703  1.00  0.00    -0.168 NA
HETATM    8  C   UNL     1      43.473 -10.902   9.931  1.00  0.00     0.156 A 
HETATM    9  C   UNL     1      46.361 -12.359   8.386  1.00  0.00     0.034 A 
HETATM   10  C   UNL     1      45.863 -13.171   7.358  1.00  0.00     0.032 A 
ENDROOT
BRANCH   1  11
HETATM   11  N   UNL     1      44.107 -14.095   6.012  1.00  0.00    -0.327 N 
HETATM   12  C   UNL     1      43.671 -15.400   6.080  1.00  0.00     0.227 C 
HETATM   13  O   UNL     1      43.584 -16.105   7.072  1.00  0.00    -0.273 OA
HETATM   14  H   UNL     1      44.108 -13.664   5.101  1.00  0.00     0.169 HD
BRANCH  12  15
HETATM   15  C   UNL     1      43.238 -15.991   4.782  1.00  0.00     0.087 A 
HETATM   16  C   UNL     1      42.562 -17.356   4.872  1.00  0.00     0.032 A 
HETATM   17  C   UNL     1      41.833 -16.179   4.281  1.00  0.00     0.025 A 
BRANCH  16  18
HETATM   18  C   UNL     1      43.123 -18.483   4.046  1.00  0.00    -0.053 A 
HETATM   19  C   UNL     1      44.056 -19.371   4.612  1.00  0.00     0.009 A 
HETATM   20  C   UNL     1      44.562 -20.456   3.893  1.00  0.00     0.024 A 
HETATM   21  C   UNL     1      44.141 -20.670   2.585  1.00  0.00     0.034 A 
HETATM   22  C   UNL     1      43.218 -19.808   1.997  1.00  0.00     0.024 A 
HETATM   23 CL   UNL     1      44.752 -22.007   1.694  1.00  0.00    -0.084 Cl
HETATM   24  C   UNL     1      42.712 -18.727   2.727  1.00  0.00     0.009 A 
ENDBRANCH  16  18
ENDBRANCH  12  15
ENDBRANCH   1  11
BRANCH   8  25
HETATM   25  C   UNL     1      42.044 -10.642  10.158  1.00  0.00     0.270 C 
HETATM   26  N   UNL     1      41.470 -11.459  11.093  1.00  0.00    -0.365 N 
HETATM   27  H   UNL     1      42.043 -12.165  11.540  1.00  0.00     0.159 HD
HETATM   28  H   UNL     1      40.488 -11.361  11.305  1.00  0.00     0.159 HD
HETATM   29  O   UNL     1      41.389  -9.782   9.581  1.00  0.00    -0.266 OA
ENDBRANCH   8  25
TORSDOF 4
ENDMDL
MODEL 4
REMARK VINA RESULT:      -8.2      4.890      6.462
REMARK  4 active torsions:
REMARK  status: ('A' for Active; 'I' for Inactive)
REMARK    1  A    between atoms: C_2  and  C_3 
REMARK    2  A    between atoms: C_4  and  C_5 
REMARK       I    between atoms: C_5  and  N_6 
REMARK    3  A    between atoms: N_6  and  C_7 
REMARK    4  A    between atoms: C_14  and  C_15 
REMARK       I    between atoms: C_15  and  N_16 
ROOT
HETATM    1  C   UNL     1      40.887 -14.655   5.104  1.00  0.00     0.035 A 
HETATM    2  C   UNL     1      40.619 -13.771   6.157  1.00  0.00     0.046 A 
HETATM    3  C   UNL     1      39.914 -12.575   5.903  1.00  0.00     0.030 A 
HETATM    4  C   UNL     1      39.496 -12.305   4.606  1.00  0.00     0.063 A 
HETATM    5  N   UNL     1      38.841 -11.108   4.679  1.00  0.00    -0.277 N 
HETATM    6  H   UNL     1      38.395 -10.605   3.920  1.00  0.00     0.189 HD
HETATM    7  N   UNL     1      38.808 -10.564   5.907  1.00  0.00    -0.168 NA
HETATM    8  C   UNL     1      39.470 -11.459   6.676  1.00  0.00     0.156 A 
HETATM    9  C   UNL     1      39.751 -13.160   3.532  1.00  0.00     0.034 A 
HETATM   10  C   UNL     1      40.461 -14.336   3.807  1.00  0.00     0.032 A 
ENDROOT
BRANCH   1  11
HETATM   11  N   UNL     1      41.567 -15.883   5.266  1.00  0.00    -0.327 N 
HETATM   12  C   UNL     1      42.635 -16.134   6.099  1.00  0.00     0.227 C 
HETATM   13  O   UNL     1      43.229 -15.338   6.809  1.00  0.00    -0.273 OA
HETATM   14  H   UNL     1      41.198 -16.669   4.754  1.00  0.00     0.169 HD
BRANCH  12  15
HETATM   15  C   UNL     1      43.087 -17.553   6.139  1.00  0.00     0.087 A 
HETATM   16  C   UNL     1      44.327 -17.875   5.309  1.00  0.00     0.032 A 
HETATM   17  C   UNL     1      44.322 -18.105   6.796  1.00  0.00     0.025 A 
BRANCH  16  18
HETATM   18  C   UNL     1      44.235 -18.986   4.297  1.00  0.00    -0.053 A 
HETATM   19  C   UNL     1      43.633 -18.751   3.047  1.00  0.00     0.009 A 
HETATM   20  C   UNL     1      43.572 -19.743   2.066  1.00  0.00     0.024 A 
HETATM   21  C   UNL     1      44.117 -20.996   2.323  1.00  0.00     0.034 A 
HETATM   22  C   UNL     1      44.719 -21.260   3.551  1.00  0.00     0.024 A 
HETATM   23 CL   UNL     1      44.054 -22.222   1.119  1.00  0.00    -0.084 Cl
HETATM   24  C   UNL     1      44.781 -20.259   4.526  1.00  0.00     0.009 A 
ENDBRANCH  16  18
ENDBRANCH  12  15
ENDBRANCH   1  11
BRANCH   8  25
HETATM   25  C   UNL     1      39.665 -11.231   8.115  1.00  0.00     0.270 C 
HETATM   26  N   UNL     1      39.033 -12.143   8.915  1.00  0.00    -0.365 N 
HETATM   27  H   UNL     1      38.488 -12.878   8.479  1.00  0.00     0.159 HD
HETATM   28  H   UNL     1      39.101 -12.057   9.918  1.00  0.00     0.159 HD
HETATM   29  O   UNL     1      40.324 -10.317   8.595  1.00  0.00    -0.266 OA
ENDBRANCH   8  25
TORSDOF 4
ENDMDL
MODEL 5
REMARK VINA RESULT:      -8.1      1.769      2.382
REMARK  4 active torsions:
REMARK  status: ('A' for Active; 'I' for Inactive)
REMARK    1  A    between atoms: C_2  and  C_3 
REMARK    2  A    between atoms: C_4  and  C_5 
REMARK       I    between atoms: C_5  and  N_6 
REMARK    3  A    between atoms: N_6  and  C_7 
REMARK    4  A    between atoms: C_14  and  C_15 
REMARK       I    between atoms: C_15  and  N_16 
ROOT
HETATM    1  C   UNL     1      41.379 -14.764   0.489  1.00  0.00     0.035 A 
HETATM    2  C   UNL     1      40.649 -15.161  -0.639  1.00  0.00     0.046 A 
HETATM    3  C   UNL     1      40.406 -14.237  -1.677  1.00  0.00     0.030 A 
HETATM    4  C   UNL     1      40.906 -12.946  -1.555  1.00  0.00     0.063 A 
HETATM    5  N   UNL     1      40.529 -12.304  -2.701  1.00  0.00    -0.277 N 
HETATM    6  H   UNL     1      40.727 -11.344  -2.960  1.00  0.00     0.189 HD
HETATM    7  N   UNL     1      39.813 -13.056  -3.553  1.00  0.00    -0.168 NA
HETATM    8  C   UNL     1      39.726 -14.255  -2.933  1.00  0.00     0.156 A 
HETATM    9  C   UNL     1      41.632 -12.513  -0.444  1.00  0.00     0.034 A 
HETATM   10  C   UNL     1      41.851 -13.447   0.577  1.00  0.00     0.032 A 
ENDROOT
BRANCH   1  11
HETATM   11  N   UNL     1      41.688 -15.625   1.566  1.00  0.00    -0.327 N 
HETATM   12  C   UNL     1      41.152 -15.589   2.834  1.00  0.00     0.227 C 
HETATM   13  O   UNL     1      40.355 -14.781   3.283  1.00  0.00    -0.273 OA
HETATM   14  H   UNL     1      42.333 -16.374   1.367  1.00  0.00     0.169 HD
BRANCH  12  15
HETATM   15  C   UNL     1      41.593 -16.688   3.739  1.00  0.00     0.087 A 
HETATM   16  C   UNL     1      43.086 -17.003   3.717  1.00  0.00     0.032 A 
HETATM   17  C   UNL     1      42.415 -16.571   4.993  1.00  0.00     0.025 A 
BRANCH  16  18
HETATM   18  C   UNL     1      43.509 -18.421   3.440  1.00  0.00    -0.053 A 
HETATM   19  C   UNL     1      43.188 -19.023   2.210  1.00  0.00     0.009 A 
HETATM   20  C   UNL     1      43.605 -20.320   1.900  1.00  0.00     0.024 A 
HETATM   21  C   UNL     1      44.353 -21.040   2.824  1.00  0.00     0.034 A 
HETATM   22  C   UNL     1      44.685 -20.472   4.051  1.00  0.00     0.024 A 
HETATM   23 CL   UNL     1      44.877 -22.634   2.448  1.00  0.00    -0.084 Cl
HETATM   24  C   UNL     1      44.270 -19.170   4.352  1.00  0.00     0.009 A 
ENDBRANCH  16  18
ENDBRANCH  12  15
ENDBRANCH   1  11
BRANCH   8  25
HETATM   25  C   UNL     1      39.003 -15.379  -3.543  1.00  0.00     0.270 C 
HETATM   26  N   UNL     1      37.692 -15.471  -3.164  1.00  0.00    -0.365 N 
HETATM   27  H   UNL     1      37.326 -14.791  -2.508  1.00  0.00     0.159 HD
HETATM   28  H   UNL     1      37.121 -16.221  -3.524  1.00  0.00     0.159 HD
HETATM   29  O   UNL     1      39.494 -16.186  -4.324  1.00  0.00    -0.266 OA
ENDBRANCH   8  25
TORSDOF 4
ENDMDL
MODEL 6
REMARK VINA RESULT:      -7.8      1.725      1.975
REMARK  4 active torsions:
REMARK  status: ('A' for Active; 'I' for Inactive)
REMARK    1  A    between atoms: C_2  and  C_3 
REMARK    2  A    between atoms: C_4  and  C_5 
REMARK       I    between atoms: C_5  and  N_6 
REMARK    3  A    between atoms: N_6  and  C_7 
REMARK    4  A    between atoms: C_14  and  C_15 
REMARK       I    between atoms: C_15  and  N_16 
ROOT
HETATM    1  C   UNL     1      40.171 -14.306   1.870  1.00  0.00     0.035 A 
HETATM    2  C   UNL     1      41.081 -13.752   0.961  1.00  0.00     0.046 A 
HETATM    3  C   UNL     1      40.622 -12.864  -0.036  1.00  0.00     0.030 A 
HETATM    4  C   UNL     1      39.268 -12.555  -0.086  1.00  0.00     0.063 A 
HETATM    5  N   UNL     1      39.137 -11.678  -1.126  1.00  0.00    -0.277 N 
HETATM    6  H   UNL     1      38.284 -11.235  -1.450  1.00  0.00     0.189 HD
HETATM    7  N   UNL     1      40.282 -11.398  -1.769  1.00  0.00    -0.168 NA
HETATM    8  C   UNL     1      41.211 -12.127  -1.108  1.00  0.00     0.156 A 
HETATM    9  C   UNL     1      38.333 -13.093   0.799  1.00  0.00     0.034 A 
HETATM   10  C   UNL     1      38.812 -13.980   1.772  1.00  0.00     0.032 A 
ENDROOT
BRANCH   1  11
HETATM   11  N   UNL     1      40.542 -15.186   2.911  1.00  0.00    -0.327 N 
HETATM   12  C   UNL     1      40.833 -16.527   2.797  1.00  0.00     0.227 C 
HETATM   13  O   UNL     1      40.774 -17.219   1.793  1.00  0.00    -0.273 OA
HETATM   14  H   UNL     1      40.652 -14.775   3.825  1.00  0.00     0.169 HD
BRANCH  12  15
HETATM   15  C   UNL     1      41.293 -17.185   4.052  1.00  0.00     0.087 A 
HETATM   16  C   UNL     1      42.805 -17.253   4.246  1.00  0.00     0.032 A 
HETATM   17  C   UNL     1      41.938 -16.537   5.246  1.00  0.00     0.025 A 
BRANCH  16  18
HETATM   18  C   UNL     1      43.429 -18.599   4.503  1.00  0.00    -0.053 A 
HETATM   19  C   UNL     1      43.978 -19.334   3.436  1.00  0.00     0.009 A 
HETATM   20  C   UNL     1      44.607 -20.564   3.642  1.00  0.00     0.024 A 
HETATM   21  C   UNL     1      44.696 -21.082   4.929  1.00  0.00     0.034 A 
HETATM   22  C   UNL     1      44.161 -20.379   6.006  1.00  0.00     0.024 A 
HETATM   23 CL   UNL     1      45.475 -22.592   5.195  1.00  0.00    -0.084 Cl
HETATM   24  C   UNL     1      43.537 -19.145   5.791  1.00  0.00     0.009 A 
ENDBRANCH  16  18
ENDBRANCH  12  15
ENDBRANCH   1  11
BRANCH   8  25
HETATM   25  C   UNL     1      42.624 -12.105  -1.510  1.00  0.00     0.270 C 
HETATM   26  N   UNL     1      42.965 -13.081  -2.407  1.00  0.00    -0.365 N 
HETATM   27  H   UNL     1      42.250 -13.731  -2.714  1.00  0.00     0.159 HD
HETATM   28  H   UNL     1      43.918 -13.151  -2.729  1.00  0.00     0.159 HD
HETATM   29  O   UNL     1      43.457 -11.305  -1.100  1.00  0.00    -0.266 OA
ENDBRANCH   8  25
TORSDOF 4
ENDMDL
MODEL 7
REMARK VINA RESULT:      -7.7      4.488      9.168
REMARK  4 active torsions:
REMARK  status: ('A' for Active; 'I' for Inactive)
REMARK    1  A    between atoms: C_2  and  C_3 
REMARK    2  A    between atoms: C_4  and  C_5 
REMARK       I    between atoms: C_5  and  N_6 
REMARK    3  A    between atoms: N_6  and  C_7 
REMARK    4  A    between atoms: C_14  and  C_15 
REMARK       I    between atoms: C_15  and  N_16 
ROOT
HETATM    1  C   UNL     1      42.706 -17.423   2.630  1.00  0.00     0.035 A 
HETATM    2  C   UNL     1      43.092 -17.645   3.959  1.00  0.00     0.046 A 
HETATM    3  C   UNL     1      43.767 -18.836   4.302  1.00  0.00     0.030 A 
HETATM    4  C   UNL     1      44.039 -19.764   3.304  1.00  0.00     0.063 A 
HETATM    5  N   UNL     1      44.700 -20.783   3.929  1.00  0.00    -0.277 N 
HETATM    6  H   UNL     1      45.060 -21.631   3.506  1.00  0.00     0.189 HD
HETATM    7  N   UNL     1      44.871 -20.610   5.250  1.00  0.00    -0.168 NA
HETATM    8  C   UNL     1      44.297 -19.411   5.497  1.00  0.00     0.156 A 
HETATM    9  C   UNL     1      43.664 -19.580   1.972  1.00  0.00     0.034 A 
HETATM   10  C   UNL     1      42.986 -18.394   1.658  1.00  0.00     0.032 A 
ENDROOT
BRANCH   1  11
HETATM   11  N   UNL     1      42.045 -16.254   2.191  1.00  0.00    -0.327 N 
HETATM   12  C   UNL     1      40.694 -16.097   1.979  1.00  0.00     0.227 C 
HETATM   13  O   UNL     1      39.822 -16.945   2.076  1.00  0.00    -0.273 OA
HETATM   14  H   UNL     1      42.622 -15.436   2.069  1.00  0.00     0.169 HD
BRANCH  12  15
HETATM   15  C   UNL     1      40.266 -14.718   1.611  1.00  0.00     0.087 A 
HETATM   16  C   UNL     1      40.132 -14.445   0.116  1.00  0.00     0.032 A 
HETATM   17  C   UNL     1      38.947 -14.289   1.030  1.00  0.00     0.025 A 
BRANCH  16  18
HETATM   18  C   UNL     1      40.890 -13.281  -0.465  1.00  0.00    -0.053 A 
HETATM   19  C   UNL     1      41.966 -13.511  -1.342  1.00  0.00     0.009 A 
HETATM   20  C   UNL     1      42.662 -12.456  -1.937  1.00  0.00     0.024 A 
HETATM   21  C   UNL     1      42.290 -11.145  -1.660  1.00  0.00     0.034 A 
HETATM   22  C   UNL     1      41.230 -10.886  -0.796  1.00  0.00     0.024 A 
HETATM   23 CL   UNL     1      43.136  -9.840  -2.394  1.00  0.00    -0.084 Cl
HETATM   24  C   UNL     1      40.534 -11.948  -0.208  1.00  0.00     0.009 A 
ENDBRANCH  16  18
ENDBRANCH  12  15
ENDBRANCH   1  11
BRANCH   8  25
HETATM   25  C   UNL     1      44.264 -18.846   6.853  1.00  0.00     0.270 C 
HETATM   26  N   UNL     1      43.663 -19.653   7.780  1.00  0.00    -0.365 N 
HETATM   27  H   UNL     1      43.289 -20.546   7.479  1.00  0.00     0.159 HD
HETATM   28  H   UNL     1      43.584 -19.341   8.736  1.00  0.00     0.159 HD
HETATM   29  O   UNL     1      44.720 -17.753   7.167  1.00  0.00    -0.266 OA
ENDBRANCH   8  25
TORSDOF 4
ENDMDL
MODEL 8
REMARK VINA RESULT:      -7.7      4.939      7.613
REMARK  4 active torsions:
REMARK  status: ('A' for Active; 'I' for Inactive)
REMARK    1  A    between atoms: C_2  and  C_3 
REMARK    2  A    between atoms: C_4  and  C_5 
REMARK       I    between atoms: C_5  and  N_6 
REMARK    3  A    between atoms: N_6  and  C_7 
REMARK    4  A    between atoms: C_14  and  C_15 
REMARK       I    between atoms: C_15  and  N_16 
ROOT
HETATM    1  C   UNL     1      42.987 -13.881   5.501  1.00  0.00     0.035 A 
HETATM    2  C   UNL     1      43.804 -13.535   6.585  1.00  0.00     0.046 A 
HETATM    3  C   UNL     1      43.425 -12.476   7.438  1.00  0.00     0.030 A 
HETATM    4  C   UNL     1      42.238 -11.801   7.181  1.00  0.00     0.063 A 
HETATM    5  N   UNL     1      42.137 -10.859   8.166  1.00  0.00    -0.277 N 
HETATM    6  H   UNL     1      41.390 -10.187   8.297  1.00  0.00     0.189 HD
HETATM    7  N   UNL     1      43.162 -10.849   9.035  1.00  0.00    -0.168 NA
HETATM    8  C   UNL     1      43.969 -11.842   8.596  1.00  0.00     0.156 A 
HETATM    9  C   UNL     1      41.402 -12.114   6.107  1.00  0.00     0.034 A 
HETATM   10  C   UNL     1      41.806 -13.163   5.269  1.00  0.00     0.032 A 
ENDROOT
BRANCH   1  11
HETATM   11  N   UNL     1      43.276 -14.938   4.609  1.00  0.00    -0.327 N 
HETATM   12  C   UNL     1      43.410 -14.852   3.241  1.00  0.00     0.227 C 
HETATM   13  O   UNL     1      43.254 -13.867   2.537  1.00  0.00    -0.273 OA
HETATM   14  H   UNL     1      43.449 -15.839   5.026  1.00  0.00     0.169 HD
BRANCH  12  15
HETATM   15  C   UNL     1      43.816 -16.116   2.564  1.00  0.00     0.087 A 
HETATM   16  C   UNL     1      42.925 -17.325   2.832  1.00  0.00     0.032 A 
HETATM   17  C   UNL     1      43.120 -16.816   1.430  1.00  0.00     0.025 A 
BRANCH  16  18
HETATM   18  C   UNL     1      43.568 -18.581   3.356  1.00  0.00    -0.053 A 
HETATM   19  C   UNL     1      43.778 -18.739   4.738  1.00  0.00     0.009 A 
HETATM   20  C   UNL     1      44.329 -19.910   5.265  1.00  0.00     0.024 A 
HETATM   21  C   UNL     1      44.682 -20.947   4.410  1.00  0.00     0.034 A 
HETATM   22  C   UNL     1      44.487 -20.821   3.037  1.00  0.00     0.024 A 
HETATM   23 CL   UNL     1      45.354 -22.396   5.050  1.00  0.00    -0.084 Cl
HETATM   24  C   UNL     1      43.930 -19.647   2.518  1.00  0.00     0.009 A 
ENDBRANCH  16  18
ENDBRANCH  12  15
ENDBRANCH   1  11
BRANCH   8  25
HETATM   25  C   UNL     1      45.228 -12.160   9.283  1.00  0.00     0.270 C 
HETATM   26  N   UNL     1      45.280 -11.734  10.582  1.00  0.00    -0.365 N 
HETATM   27  H   UNL     1      44.481 -11.239  10.963  1.00  0.00     0.159 HD
HETATM   28  H   UNL     1      46.112 -11.897  11.127  1.00  0.00     0.159 HD
HETATM   29  O   UNL     1      46.174 -12.750   8.773  1.00  0.00    -0.266 OA
ENDBRANCH   8  25
TORSDOF 4
ENDMDL
MODEL 9
REMARK VINA RESULT:      -7.7      3.130      3.973
REMARK  4 active torsions:
REMARK  status: ('A' for Active; 'I' for Inactive)
REMARK    1  A    between atoms: C_2  and  C_3 
REMARK    2  A    between atoms: C_4  and  C_5 
REMARK       I    between atoms: C_5  and  N_6 
REMARK    3  A    between atoms: N_6  and  C_7 
REMARK    4  A    between atoms: C_14  and  C_15 
REMARK       I    between atoms: C_15  and  N_16 
ROOT
HETATM    1  C   UNL     1      40.686 -14.284   4.139  1.00  0.00     0.035 A 
HETATM    2  C   UNL     1      39.886 -14.305   2.989  1.00  0.00     0.046 A 
HETATM    3  C   UNL     1      39.144 -13.160   2.631  1.00  0.00     0.030 A 
HETATM    4  C   UNL     1      39.231 -12.028   3.433  1.00  0.00     0.063 A 
HETATM    5  N   UNL     1      38.428 -11.098   2.832  1.00  0.00    -0.277 N 
HETATM    6  H   UNL     1      38.256 -10.148   3.139  1.00  0.00     0.189 HD
HETATM    7  N   UNL     1      37.813 -11.528   1.718  1.00  0.00    -0.168 NA
HETATM    8  C   UNL     1      38.244 -12.803   1.582  1.00  0.00     0.156 A 
HETATM    9  C   UNL     1      40.012 -11.972   4.588  1.00  0.00     0.034 A 
HETATM   10  C   UNL     1      40.731 -13.126   4.928  1.00  0.00     0.032 A 
ENDROOT
BRANCH   1  11
HETATM   11  N   UNL     1      41.478 -15.375   4.563  1.00  0.00    -0.327 N 
HETATM   12  C   UNL     1      41.243 -16.198   5.642  1.00  0.00     0.227 C 
HETATM   13  O   UNL     1      40.344 -16.111   6.463  1.00  0.00    -0.273 OA
HETATM   14  H   UNL     1      42.271 -15.602   3.984  1.00  0.00     0.169 HD
BRANCH  12  15
HETATM   15  C   UNL     1      42.195 -17.334   5.791  1.00  0.00     0.087 A 
HETATM   16  C   UNL     1      43.375 -17.338   4.823  1.00  0.00     0.032 A 
HETATM   17  C   UNL     1      43.606 -17.287   6.309  1.00  0.00     0.025 A 
BRANCH  16  18
HETATM   18  C   UNL     1      43.606 -18.570   3.989  1.00  0.00    -0.053 A 
HETATM   19  C   UNL     1      42.931 -18.726   2.764  1.00  0.00     0.009 A 
HETATM   20  C   UNL     1      43.156 -19.832   1.941  1.00  0.00     0.024 A 
HETATM   21  C   UNL     1      44.064 -20.808   2.336  1.00  0.00     0.034 A 
HETATM   22  C   UNL     1      44.746 -20.683   3.543  1.00  0.00     0.024 A 
HETATM   23 CL   UNL     1      44.353 -22.170   1.326  1.00  0.00    -0.084 Cl
HETATM   24  C   UNL     1      44.520 -19.569   4.359  1.00  0.00     0.009 A 
ENDBRANCH  16  18
ENDBRANCH  12  15
ENDBRANCH   1  11
BRANCH   8  25
HETATM   25  C   UNL     1      37.790 -13.645   0.466  1.00  0.00     0.270 C 
HETATM   26  N   UNL     1      36.947 -14.657   0.837  1.00  0.00    -0.365 N 
HETATM   27  H   UNL     1      36.710 -14.758   1.817  1.00  0.00     0.159 HD
HETATM   28  H   UNL     1      36.596 -15.294   0.138  1.00  0.00     0.159 HD
HETATM   29  O   UNL     1      38.117 -13.491  -0.705  1.00  0.00    -0.266 OA
ENDBRANCH   8  25
TORSDOF 4
ENDMDL
MODEL 10
REMARK VINA RESULT:      -7.6      2.733      3.546
REMARK  4 active torsions:
REMARK  status: ('A' for Active; 'I' for Inactive)
REMARK    1  A    between atoms: C_2  and  C_3 
REMARK    2  A    between atoms: C_4  and  C_5 
REMARK       I    between atoms: C_5  and  N_6 
REMARK    3  A    between atoms: N_6  and  C_7 
REMARK    4  A    between atoms: C_14  and  C_15 
REMARK       I    between atoms: C_15  and  N_16 
ROOT
HETATM    1  C   UNL     1      39.873 -14.885   1.105  1.00  0.00     0.035 A 
HETATM    2  C   UNL     1      40.443 -14.730  -0.165  1.00  0.00     0.046 A 
HETATM    3  C   UNL     1      39.693 -14.134  -1.201  1.00  0.00     0.030 A 
HETATM    4  C   UNL     1      38.399 -13.705  -0.931  1.00  0.00     0.063 A 
HETATM    5  N   UNL     1      37.944 -13.168  -2.103  1.00  0.00    -0.277 N 
HETATM    6  H   UNL     1      37.037 -12.750  -2.274  1.00  0.00     0.189 HD
HETATM    7  N   UNL     1      38.821 -13.221  -3.118  1.00  0.00    -0.168 NA
HETATM    8  C   UNL     1      39.908 -13.818  -2.577  1.00  0.00     0.156 A 
HETATM    9  C   UNL     1      37.796 -13.849   0.320  1.00  0.00     0.034 A 
HETATM   10  C   UNL     1      38.558 -14.453   1.329  1.00  0.00     0.032 A 
ENDROOT
BRANCH   1  11
HETATM   11  N   UNL     1      40.554 -15.451   2.206  1.00  0.00    -0.327 N 
HETATM   12  C   UNL     1      40.838 -16.784   2.407  1.00  0.00     0.227 C 
HETATM   13  O   UNL     1      40.511 -17.728   1.706  1.00  0.00    -0.273 OA
HETATM   14  H   UNL     1      40.911 -14.803   2.890  1.00  0.00     0.169 HD
BRANCH  12  15
HETATM   15  C   UNL     1      41.659 -17.081   3.613  1.00  0.00     0.087 A 
HETATM   16  C   UNL     1      41.222 -16.384   4.898  1.00  0.00     0.032 A 
HETATM   17  C   UNL     1      41.263 -17.887   4.819  1.00  0.00     0.025 A 
BRANCH  16  18
HETATM   18  C   UNL     1      42.242 -15.565   5.645  1.00  0.00    -0.053 A 
HETATM   19  C   UNL     1      43.154 -16.197   6.509  1.00  0.00     0.009 A 
HETATM   20  C   UNL     1      44.144 -15.476   7.182  1.00  0.00     0.024 A 
HETATM   21  C   UNL     1      44.235 -14.101   7.000  1.00  0.00     0.034 A 
HETATM   22  C   UNL     1      43.345 -13.447   6.151  1.00  0.00     0.024 A 
HETATM   23 CL   UNL     1      45.454 -13.205   7.817  1.00  0.00    -0.084 Cl
HETATM   24  C   UNL     1      42.361 -14.177   5.476  1.00  0.00     0.009 A 
ENDBRANCH  16  18
ENDBRANCH  12  15
ENDBRANCH   1  11
BRANCH   8  25
HETATM   25  C   UNL     1      41.114 -14.074  -3.377  1.00  0.00     0.270 C 
HETATM   26  N   UNL     1      41.790 -12.943  -3.746  1.00  0.00    -0.365 N 
HETATM   27  H   UNL     1      41.423 -12.042  -3.462  1.00  0.00     0.159 HD
HETATM   28  H   UNL     1      42.624 -13.022  -4.308  1.00  0.00     0.159 HD
HETATM   29  O   UNL     1      41.512 -15.185  -3.707  1.00  0.00    -0.266 OA
ENDBRANCH   8  25
TORSDOF 4
ENDMDL
