MODEL 1
REMARK VINA RESULT:      -8.7      0.000      0.000
REMARK  3 active torsions:
REMARK  status: ('A' for Active; 'I' for Inactive)
REMARK    1  A    between atoms: C_3  and  O_4 
REMARK    2  A    between atoms: C_6  and  C_7 
REMARK    3  A    between atoms: N_8  and  N_9 
ROOT
HETATM    1  N   UNL     1      43.213 -16.914   4.361  1.00  0.00    -0.189 N 
HETATM    2  C   UNL     1      41.822 -16.844   4.520  1.00  0.00     0.298 A 
HETATM    3  O   UNL     1      41.167 -17.365   5.419  1.00  0.00    -0.264 OA
HETATM    4  C   UNL     1      41.218 -16.110   3.455  1.00  0.00     0.133 A 
HETATM    5  C   UNL     1      41.923 -15.502   2.458  1.00  0.00     0.103 A 
HETATM    6  N   UNL     1      43.318 -15.505   2.397  1.00  0.00    -0.239 NA
HETATM    7  C   UNL     1      43.865 -16.194   3.358  1.00  0.00     0.239 A 
HETATM    8  N   UNL     1      39.890 -15.885   3.222  1.00  0.00    -0.349 N 
HETATM    9  H   UNL     1      39.136 -16.216   3.811  1.00  0.00     0.166 HD
HETATM   10  C   UNL     1      39.740 -15.155   2.058  1.00  0.00     0.045 A 
HETATM   11  C   UNL     1      41.023 -14.895   1.556  1.00  0.00     0.024 A 
HETATM   12  C   UNL     1      38.577 -14.706   1.419  1.00  0.00     0.032 A 
HETATM   13  C   UNL     1      38.733 -13.976   0.235  1.00  0.00     0.026 A 
HETATM   14  C   UNL     1      40.000 -13.707  -0.279  1.00  0.00     0.035 A 
HETATM   15 CL   UNL     1      40.146 -12.807  -1.741  1.00  0.00    -0.084 Cl
HETATM   16  C   UNL     1      41.156 -14.155   0.367  1.00  0.00     0.040 A 
ENDROOT
BRANCH   1  17
HETATM   17  N   UNL     1      43.944 -17.545   5.345  1.00  0.00    -0.175 NA
HETATM   18  C   UNL     1      44.437 -18.730   5.131  1.00  0.00     0.150 C 
BRANCH  18  19
HETATM   19  C   UNL     1      44.228 -19.657   4.001  1.00  0.00    -0.014 A 
HETATM   20  C   UNL     1      44.636 -20.983   4.169  1.00  0.00     0.049 A 
HETATM   21  C   UNL     1      44.444 -21.891   3.134  1.00  0.00     0.066 A 
HETATM   22  C   UNL     1      43.843 -21.503   1.940  1.00  0.00     0.036 A 
HETATM   23  C   UNL     1      43.414 -20.185   1.786  1.00  0.00     0.004 A 
HETATM   24  C   UNL     1      43.592 -19.262   2.819  1.00  0.00     0.013 A 
BRANCH  21  25
HETATM   25  O   UNL     1      44.865 -23.173   3.335  1.00  0.00    -0.361 OA
HETATM   26  H   UNL     1      45.199 -23.529   2.495  1.00  0.00     0.217 HD
ENDBRANCH  21  25
ENDBRANCH  18  19
ENDBRANCH   1  17
TORSDOF 3
ENDMDL
MODEL 2
REMARK VINA RESULT:      -8.7      3.191      7.130
REMARK  3 active torsions:
REMARK  status: ('A' for Active; 'I' for Inactive)
REMARK    1  A    between atoms: C_3  and  O_4 
REMARK    2  A    between atoms: C_6  and  C_7 
REMARK    3  A    between atoms: N_8  and  N_9 
ROOT
HETATM    1  N   UNL     1      40.302 -15.284   2.699  1.00  0.00    -0.189 N 
HETATM    2  C   UNL     1      41.188 -15.447   3.774  1.00  0.00     0.298 A 
HETATM    3  O   UNL     1      41.342 -14.672   4.713  1.00  0.00    -0.264 OA
HETATM    4  C   UNL     1      41.959 -16.641   3.628  1.00  0.00     0.133 A 
HETATM    5  C   UNL     1      41.793 -17.531   2.608  1.00  0.00     0.103 A 
HETATM    6  N   UNL     1      40.822 -17.383   1.616  1.00  0.00    -0.239 NA
HETATM    7  C   UNL     1      40.135 -16.284   1.739  1.00  0.00     0.239 A 
HETATM    8  N   UNL     1      42.967 -17.105   4.426  1.00  0.00    -0.349 N 
HETATM    9  H   UNL     1      43.297 -16.646   5.266  1.00  0.00     0.166 HD
HETATM   10  C   UNL     1      43.468 -18.283   3.902  1.00  0.00     0.045 A 
HETATM   11  C   UNL     1      42.732 -18.575   2.746  1.00  0.00     0.024 A 
HETATM   12  C   UNL     1      44.505 -19.104   4.362  1.00  0.00     0.032 A 
HETATM   13  C   UNL     1      44.797 -20.252   3.617  1.00  0.00     0.026 A 
HETATM   14  C   UNL     1      44.077 -20.560   2.464  1.00  0.00     0.035 A 
HETATM   15 CL   UNL     1      44.472 -21.982   1.575  1.00  0.00    -0.084 Cl
HETATM   16  C   UNL     1      43.040 -19.738   2.014  1.00  0.00     0.040 A 
ENDROOT
BRANCH   1  17
HETATM   17  N   UNL     1      39.447 -14.203   2.728  1.00  0.00    -0.175 NA
HETATM   18  C   UNL     1      39.438 -13.354   1.742  1.00  0.00     0.150 C 
BRANCH  18  19
HETATM   19  C   UNL     1      40.339 -13.241   0.577  1.00  0.00    -0.014 A 
HETATM   20  C   UNL     1      41.382 -12.314   0.654  1.00  0.00     0.049 A 
HETATM   21  C   UNL     1      42.261 -12.186  -0.415  1.00  0.00     0.066 A 
HETATM   22  C   UNL     1      42.123 -12.973  -1.555  1.00  0.00     0.036 A 
HETATM   23  C   UNL     1      41.096 -13.915  -1.618  1.00  0.00     0.004 A 
HETATM   24  C   UNL     1      40.210 -14.061  -0.548  1.00  0.00     0.013 A 
BRANCH  21  25
HETATM   25  O   UNL     1      43.259 -11.264  -0.303  1.00  0.00    -0.361 OA
HETATM   26  H   UNL     1      43.932 -11.603   0.310  1.00  0.00     0.217 HD
ENDBRANCH  21  25
ENDBRANCH  18  19
ENDBRANCH   1  17
TORSDOF 3
ENDMDL
MODEL 3
REMARK VINA RESULT:      -8.5      3.675      7.085
REMARK  3 active torsions:
REMARK  status: ('A' for Active; 'I' for Inactive)
REMARK    1  A    between atoms: C_3  and  O_4 
REMARK    2  A    between atoms: C_6  and  C_7 
REMARK    3  A    between atoms: N_8  and  N_9 
ROOT
HETATM    1  N   UNL     1      39.669 -15.318   2.202  1.00  0.00    -0.189 N 
HETATM    2  C   UNL     1      40.231 -14.866   3.405  1.00  0.00     0.298 A 
HETATM    3  O   UNL     1      39.948 -13.827   3.994  1.00  0.00    -0.264 OA
HETATM    4  C   UNL     1      41.245 -15.760   3.867  1.00  0.00     0.133 A 
HETATM    5  C   UNL     1      41.563 -16.932   3.246  1.00  0.00     0.103 A 
HETATM    6  N   UNL     1      40.901 -17.398   2.108  1.00  0.00    -0.239 NA
HETATM    7  C   UNL     1      39.992 -16.570   1.677  1.00  0.00     0.239 A 
HETATM    8  N   UNL     1      42.062 -15.630   4.955  1.00  0.00    -0.349 N 
HETATM    9  H   UNL     1      42.039 -14.855   5.606  1.00  0.00     0.166 HD
HETATM   10  C   UNL     1      42.926 -16.708   5.017  1.00  0.00     0.045 A 
HETATM   11  C   UNL     1      42.623 -17.553   3.940  1.00  0.00     0.024 A 
HETATM   12  C   UNL     1      43.941 -16.998   5.938  1.00  0.00     0.032 A 
HETATM   13  C   UNL     1      44.665 -18.180   5.749  1.00  0.00     0.026 A 
HETATM   14  C   UNL     1      44.378 -19.034   4.684  1.00  0.00     0.035 A 
HETATM   15 CL   UNL     1      45.296 -20.478   4.487  1.00  0.00    -0.084 Cl
HETATM   16  C   UNL     1      43.361 -18.740   3.772  1.00  0.00     0.040 A 
ENDROOT
BRANCH   1  17
HETATM   17  N   UNL     1      38.633 -14.588   1.661  1.00  0.00    -0.175 NA
HETATM   18  C   UNL     1      38.814 -13.920   0.559  1.00  0.00     0.150 C 
BRANCH  18  19
HETATM   19  C   UNL     1      40.052 -13.663  -0.205  1.00  0.00    -0.014 A 
HETATM   20  C   UNL     1      40.279 -14.436  -1.346  1.00  0.00     0.049 A 
HETATM   21  C   UNL     1      41.425 -14.216  -2.101  1.00  0.00     0.066 A 
HETATM   22  C   UNL     1      42.343 -13.233  -1.743  1.00  0.00     0.036 A 
HETATM   23  C   UNL     1      42.100 -12.446  -0.617  1.00  0.00     0.004 A 
HETATM   24  C   UNL     1      40.949 -12.649   0.147  1.00  0.00     0.013 A 
BRANCH  21  25
HETATM   25  O   UNL     1      41.614 -14.998  -3.203  1.00  0.00    -0.361 OA
HETATM   26  H   UNL     1      42.479 -15.435  -3.133  1.00  0.00     0.217 HD
ENDBRANCH  21  25
ENDBRANCH  18  19
ENDBRANCH   1  17
TORSDOF 3
ENDMDL
MODEL 4
REMARK VINA RESULT:      -8.2      1.749      2.317
REMARK  3 active torsions:
REMARK  status: ('A' for Active; 'I' for Inactive)
REMARK    1  A    between atoms: C_3  and  O_4 
REMARK    2  A    between atoms: C_6  and  C_7 
REMARK    3  A    between atoms: N_8  and  N_9 
ROOT
HETATM    1  N   UNL     1      42.849 -17.647   5.992  1.00  0.00    -0.189 N 
HETATM    2  C   UNL     1      43.329 -16.370   5.667  1.00  0.00     0.298 A 
HETATM    3  O   UNL     1      44.330 -15.830   6.130  1.00  0.00    -0.264 OA
HETATM    4  C   UNL     1      42.465 -15.718   4.735  1.00  0.00     0.133 A 
HETATM    5  C   UNL     1      41.361 -16.301   4.188  1.00  0.00     0.103 A 
HETATM    6  N   UNL     1      40.979 -17.617   4.458  1.00  0.00    -0.239 NA
HETATM    7  C   UNL     1      41.756 -18.202   5.324  1.00  0.00     0.239 A 
HETATM    8  N   UNL     1      42.556 -14.448   4.236  1.00  0.00    -0.349 N 
HETATM    9  H   UNL     1      43.288 -13.788   4.465  1.00  0.00     0.166 HD
HETATM   10  C   UNL     1      41.491 -14.207   3.387  1.00  0.00     0.045 A 
HETATM   11  C   UNL     1      40.719 -15.376   3.338  1.00  0.00     0.024 A 
HETATM   12  C   UNL     1      41.159 -13.055   2.664  1.00  0.00     0.032 A 
HETATM   13  C   UNL     1      40.005 -13.100   1.873  1.00  0.00     0.026 A 
HETATM   14  C   UNL     1      39.224 -14.253   1.811  1.00  0.00     0.035 A 
HETATM   15 CL   UNL     1      37.809 -14.265   0.827  1.00  0.00    -0.084 Cl
HETATM   16  C   UNL     1      39.565 -15.400   2.532  1.00  0.00     0.040 A 
ENDROOT
BRANCH   1  17
HETATM   17  N   UNL     1      43.609 -18.424   6.840  1.00  0.00    -0.175 NA
HETATM   18  C   UNL     1      44.348 -19.381   6.359  1.00  0.00     0.150 C 
BRANCH  18  19
HETATM   19  C   UNL     1      44.423 -19.926   4.988  1.00  0.00    -0.014 A 
HETATM   20  C   UNL     1      44.560 -21.309   4.849  1.00  0.00     0.049 A 
HETATM   21  C   UNL     1      44.621 -21.865   3.577  1.00  0.00     0.066 A 
HETATM   22  C   UNL     1      44.537 -21.065   2.440  1.00  0.00     0.036 A 
HETATM   23  C   UNL     1      44.375 -19.687   2.582  1.00  0.00     0.004 A 
HETATM   24  C   UNL     1      44.304 -19.115   3.855  1.00  0.00     0.013 A 
BRANCH  21  25
HETATM   25  O   UNL     1      44.765 -23.218   3.485  1.00  0.00    -0.361 OA
HETATM   26  H   UNL     1      44.952 -23.574   4.369  1.00  0.00     0.217 HD
ENDBRANCH  21  25
ENDBRANCH  18  19
ENDBRANCH   1  17
TORSDOF 3
ENDMDL
MODEL 5
REMARK VINA RESULT:      -8.1      3.963      7.848
REMARK  3 active torsions:
REMARK  status: ('A' for Active; 'I' for Inactive)
REMARK    1  A    between atoms: C_3  and  O_4 
REMARK    2  A    between atoms: C_6  and  C_7 
REMARK    3  A    between atoms: N_8  and  N_9 
ROOT
HETATM    1  N   UNL     1      39.672 -14.322  -0.535  1.00  0.00    -0.189 N 
HETATM    2  C   UNL     1      39.262 -14.436   0.801  1.00  0.00     0.298 A 
HETATM    3  O   UNL     1      38.369 -13.792   1.344  1.00  0.00    -0.264 OA
HETATM    4  C   UNL     1      40.059 -15.390   1.504  1.00  0.00     0.133 A 
HETATM    5  C   UNL     1      41.040 -16.136   0.921  1.00  0.00     0.103 A 
HETATM    6  N   UNL     1      41.344 -16.068  -0.440  1.00  0.00    -0.239 NA
HETATM    7  C   UNL     1      40.630 -15.182  -1.075  1.00  0.00     0.239 A 
HETATM    8  N   UNL     1      40.012 -15.726   2.829  1.00  0.00    -0.349 N 
HETATM    9  H   UNL     1      39.368 -15.332   3.503  1.00  0.00     0.166 HD
HETATM   10  C   UNL     1      40.985 -16.670   3.102  1.00  0.00     0.045 A 
HETATM   11  C   UNL     1      41.650 -16.949   1.899  1.00  0.00     0.024 A 
HETATM   12  C   UNL     1      41.322 -17.294   4.310  1.00  0.00     0.032 A 
HETATM   13  C   UNL     1      42.367 -18.224   4.286  1.00  0.00     0.026 A 
HETATM   14  C   UNL     1      43.039 -18.516   3.100  1.00  0.00     0.035 A 
HETATM   15 CL   UNL     1      44.322 -19.666   3.116  1.00  0.00    -0.084 Cl
HETATM   16  C   UNL     1      42.695 -17.892   1.898  1.00  0.00     0.040 A 
ENDROOT
BRANCH   1  17
HETATM   17  N   UNL     1      38.957 -13.479  -1.358  1.00  0.00    -0.175 NA
HETATM   18  C   UNL     1      39.477 -12.349  -1.743  1.00  0.00     0.150 C 
BRANCH  18  19
HETATM   19  C   UNL     1      40.726 -11.684  -1.317  1.00  0.00    -0.014 A 
HETATM   20  C   UNL     1      40.688 -10.931  -0.141  1.00  0.00     0.049 A 
HETATM   21  C   UNL     1      41.844 -10.300   0.302  1.00  0.00     0.066 A 
HETATM   22  C   UNL     1      43.040 -10.416  -0.402  1.00  0.00     0.036 A 
HETATM   23  C   UNL     1      43.080 -11.190  -1.561  1.00  0.00     0.004 A 
HETATM   24  C   UNL     1      41.928 -11.837  -2.015  1.00  0.00     0.013 A 
BRANCH  21  25
HETATM   25  O   UNL     1      41.763  -9.567   1.449  1.00  0.00    -0.361 OA
HETATM   26  H   UNL     1      42.660  -9.408   1.785  1.00  0.00     0.217 HD
ENDBRANCH  21  25
ENDBRANCH  18  19
ENDBRANCH   1  17
TORSDOF 3
ENDMDL
MODEL 6
REMARK VINA RESULT:      -8.1      3.247      6.936
REMARK  3 active torsions:
REMARK  status: ('A' for Active; 'I' for Inactive)
REMARK    1  A    between atoms: C_3  and  O_4 
REMARK    2  A    between atoms: C_6  and  C_7 
REMARK    3  A    between atoms: N_8  and  N_9 
ROOT
HETATM    1  N   UNL     1      43.247 -14.535   4.059  1.00  0.00    -0.189 N 
HETATM    2  C   UNL     1      43.303 -15.346   5.201  1.00  0.00     0.298 A 
HETATM    3  O   UNL     1      43.188 -14.971   6.365  1.00  0.00    -0.264 OA
HETATM    4  C   UNL     1      43.567 -16.706   4.854  1.00  0.00     0.133 A 
HETATM    5  C   UNL     1      43.677 -17.154   3.570  1.00  0.00     0.103 A 
HETATM    6  N   UNL     1      43.506 -16.329   2.457  1.00  0.00    -0.239 NA
HETATM    7  C   UNL     1      43.286 -15.085   2.776  1.00  0.00     0.239 A 
HETATM    8  N   UNL     1      43.762 -17.774   5.685  1.00  0.00    -0.349 N 
HETATM    9  H   UNL     1      43.727 -17.733   6.696  1.00  0.00     0.166 HD
HETATM   10  C   UNL     1      44.024 -18.905   4.934  1.00  0.00     0.045 A 
HETATM   11  C   UNL     1      43.971 -18.533   3.583  1.00  0.00     0.024 A 
HETATM   12  C   UNL     1      44.299 -20.215   5.344  1.00  0.00     0.032 A 
HETATM   13  C   UNL     1      44.528 -21.169   4.345  1.00  0.00     0.026 A 
HETATM   14  C   UNL     1      44.479 -20.819   2.996  1.00  0.00     0.035 A 
HETATM   15 CL   UNL     1      44.770 -22.024   1.799  1.00  0.00    -0.084 Cl
HETATM   16  C   UNL     1      44.200 -19.510   2.595  1.00  0.00     0.040 A 
ENDROOT
BRANCH   1  17
HETATM   17  N   UNL     1      42.942 -13.202   4.230  1.00  0.00    -0.175 NA
HETATM   18  C   UNL     1      41.854 -12.711   3.711  1.00  0.00     0.150 C 
BRANCH  18  19
HETATM   19  C   UNL     1      40.882 -13.326   2.783  1.00  0.00    -0.014 A 
HETATM   20  C   UNL     1      40.933 -12.935   1.443  1.00  0.00     0.049 A 
HETATM   21  C   UNL     1      40.045 -13.500   0.534  1.00  0.00     0.066 A 
HETATM   22  C   UNL     1      39.116 -14.454   0.937  1.00  0.00     0.036 A 
HETATM   23  C   UNL     1      39.086 -14.861   2.271  1.00  0.00     0.004 A 
HETATM   24  C   UNL     1      39.976 -14.309   3.194  1.00  0.00     0.013 A 
BRANCH  21  25
HETATM   25  O   UNL     1      40.121 -13.084  -0.763  1.00  0.00    -0.361 OA
HETATM   26  H   UNL     1      40.463 -12.175  -0.782  1.00  0.00     0.217 HD
ENDBRANCH  21  25
ENDBRANCH  18  19
ENDBRANCH   1  17
TORSDOF 3
ENDMDL
MODEL 7
REMARK VINA RESULT:      -7.9      2.467      4.021
REMARK  3 active torsions:
REMARK  status: ('A' for Active; 'I' for Inactive)
REMARK    1  A    between atoms: C_3  and  O_4 
REMARK    2  A    between atoms: C_6  and  C_7 
REMARK    3  A    between atoms: N_8  and  N_9 
ROOT
HETATM    1  N   UNL     1      42.667 -18.027   2.880  1.00  0.00    -0.189 N 
HETATM    2  C   UNL     1      43.041 -17.441   1.662  1.00  0.00     0.298 A 
HETATM    3  O   UNL     1      44.076 -17.659   1.039  1.00  0.00    -0.264 OA
HETATM    4  C   UNL     1      42.069 -16.489   1.229  1.00  0.00     0.133 A 
HETATM    5  C   UNL     1      40.900 -16.244   1.888  1.00  0.00     0.103 A 
HETATM    6  N   UNL     1      40.517 -16.929   3.043  1.00  0.00    -0.239 NA
HETATM    7  C   UNL     1      41.415 -17.782   3.447  1.00  0.00     0.239 A 
HETATM    8  N   UNL     1      42.110 -15.669   0.135  1.00  0.00    -0.349 N 
HETATM    9  H   UNL     1      42.862 -15.645  -0.541  1.00  0.00     0.166 HD
HETATM   10  C   UNL     1      40.977 -14.876   0.108  1.00  0.00     0.045 A 
HETATM   11  C   UNL     1      40.190 -15.229   1.214  1.00  0.00     0.024 A 
HETATM   12  C   UNL     1      40.592 -13.886  -0.804  1.00  0.00     0.032 A 
HETATM   13  C   UNL     1      39.373 -13.238  -0.577  1.00  0.00     0.026 A 
HETATM   14  C   UNL     1      38.576 -13.575   0.516  1.00  0.00     0.035 A 
HETATM   15 CL   UNL     1      37.083 -12.750   0.761  1.00  0.00    -0.084 Cl
HETATM   16  C   UNL     1      38.965 -14.567   1.420  1.00  0.00     0.040 A 
ENDROOT
BRANCH   1  17
HETATM   17  N   UNL     1      43.480 -19.012   3.398  1.00  0.00    -0.175 NA
HETATM   18  C   UNL     1      43.924 -18.914   4.618  1.00  0.00     0.150 C 
BRANCH  18  19
HETATM   19  C   UNL     1      43.832 -17.794   5.577  1.00  0.00    -0.014 A 
HETATM   20  C   UNL     1      43.705 -18.113   6.931  1.00  0.00     0.049 A 
HETATM   21  C   UNL     1      43.628 -17.089   7.868  1.00  0.00     0.066 A 
HETATM   22  C   UNL     1      43.687 -15.754   7.479  1.00  0.00     0.036 A 
HETATM   23  C   UNL     1      43.840 -15.440   6.128  1.00  0.00     0.004 A 
HETATM   24  C   UNL     1      43.926 -16.458   5.176  1.00  0.00     0.013 A 
BRANCH  21  25
HETATM   25  O   UNL     1      43.495 -17.442   9.179  1.00  0.00    -0.361 OA
HETATM   26  H   UNL     1      43.740 -16.684   9.735  1.00  0.00     0.217 HD
ENDBRANCH  21  25
ENDBRANCH  18  19
ENDBRANCH   1  17
TORSDOF 3
ENDMDL
MODEL 8
REMARK VINA RESULT:      -7.9      2.288      3.279
REMARK  3 active torsions:
REMARK  status: ('A' for Active; 'I' for Inactive)
REMARK    1  A    between atoms: C_3  and  O_4 
REMARK    2  A    between atoms: C_6  and  C_7 
REMARK    3  A    between atoms: N_8  and  N_9 
ROOT
HETATM    1  N   UNL     1      41.123 -14.987   2.853  1.00  0.00    -0.189 N 
HETATM    2  C   UNL     1      40.081 -15.261   1.955  1.00  0.00     0.298 A 
HETATM    3  O   UNL     1      39.093 -15.954   2.180  1.00  0.00    -0.264 OA
HETATM    4  C   UNL     1      40.328 -14.661   0.682  1.00  0.00     0.133 A 
HETATM    5  C   UNL     1      41.404 -13.869   0.413  1.00  0.00     0.103 A 
HETATM    6  N   UNL     1      42.364 -13.533   1.370  1.00  0.00    -0.239 NA
HETATM    7  C   UNL     1      42.149 -14.098   2.523  1.00  0.00     0.239 A 
HETATM    8  N   UNL     1      39.585 -14.758  -0.461  1.00  0.00    -0.349 N 
HETATM    9  H   UNL     1      38.722 -15.280  -0.548  1.00  0.00     0.166 HD
HETATM   10  C   UNL     1      40.201 -14.048  -1.476  1.00  0.00     0.045 A 
HETATM   11  C   UNL     1      41.361 -13.470  -0.940  1.00  0.00     0.024 A 
HETATM   12  C   UNL     1      39.823 -13.875  -2.813  1.00  0.00     0.032 A 
HETATM   13  C   UNL     1      40.653 -13.091  -3.622  1.00  0.00     0.026 A 
HETATM   14  C   UNL     1      41.810 -12.507  -3.107  1.00  0.00     0.035 A 
HETATM   15 CL   UNL     1      42.806 -11.552  -4.139  1.00  0.00    -0.084 Cl
HETATM   16  C   UNL     1      42.179 -12.682  -1.771  1.00  0.00     0.040 A 
ENDROOT
BRANCH   1  17
HETATM   17  N   UNL     1      41.000 -15.452   4.144  1.00  0.00    -0.175 NA
HETATM   18  C   UNL     1      41.622 -16.536   4.507  1.00  0.00     0.150 C 
BRANCH  18  19
HETATM   19  C   UNL     1      42.378 -17.515   3.698  1.00  0.00    -0.014 A 
HETATM   20  C   UNL     1      43.358 -18.270   4.348  1.00  0.00     0.049 A 
HETATM   21  C   UNL     1      44.083 -19.211   3.627  1.00  0.00     0.066 A 
HETATM   22  C   UNL     1      43.840 -19.421   2.273  1.00  0.00     0.036 A 
HETATM   23  C   UNL     1      42.843 -18.683   1.634  1.00  0.00     0.004 A 
HETATM   24  C   UNL     1      42.101 -17.739   2.347  1.00  0.00     0.013 A 
BRANCH  21  25
HETATM   25  O   UNL     1      45.036 -19.920   4.297  1.00  0.00    -0.361 OA
HETATM   26  H   UNL     1      44.599 -20.550   4.893  1.00  0.00     0.217 HD
ENDBRANCH  21  25
ENDBRANCH  18  19
ENDBRANCH   1  17
TORSDOF 3
ENDMDL
MODEL 9
REMARK VINA RESULT:      -7.9      1.942      2.259
REMARK  3 active torsions:
REMARK  status: ('A' for Active; 'I' for Inactive)
REMARK    1  A    between atoms: C_3  and  O_4 
REMARK    2  A    between atoms: C_6  and  C_7 
REMARK    3  A    between atoms: N_8  and  N_9 
ROOT
HETATM    1  N   UNL     1      42.473 -16.428   6.489  1.00  0.00    -0.189 N 
HETATM    2  C   UNL     1      41.153 -16.383   6.017  1.00  0.00     0.298 A 
HETATM    3  O   UNL     1      40.215 -17.066   6.419  1.00  0.00    -0.264 OA
HETATM    4  C   UNL     1      41.022 -15.451   4.943  1.00  0.00     0.133 A 
HETATM    5  C   UNL     1      42.041 -14.664   4.493  1.00  0.00     0.103 A 
HETATM    6  N   UNL     1      43.315 -14.663   5.064  1.00  0.00    -0.239 NA
HETATM    7  C   UNL     1      43.437 -15.529   6.029  1.00  0.00     0.239 A 
HETATM    8  N   UNL     1      39.918 -15.178   4.184  1.00  0.00    -0.349 N 
HETATM    9  H   UNL     1      39.012 -15.613   4.303  1.00  0.00     0.166 HD
HETATM   10  C   UNL     1      40.237 -14.233   3.225  1.00  0.00     0.045 A 
HETATM   11  C   UNL     1      41.584 -13.888   3.407  1.00  0.00     0.024 A 
HETATM   12  C   UNL     1      39.442 -13.662   2.224  1.00  0.00     0.032 A 
HETATM   13  C   UNL     1      40.042 -12.715   1.386  1.00  0.00     0.026 A 
HETATM   14  C   UNL     1      41.380 -12.358   1.550  1.00  0.00     0.035 A 
HETATM   15 CL   UNL     1      42.080 -11.191   0.494  1.00  0.00    -0.084 Cl
HETATM   16  C   UNL     1      42.165 -12.930   2.555  1.00  0.00     0.040 A 
ENDROOT
BRANCH   1  17
HETATM   17  N   UNL     1      42.745 -17.243   7.567  1.00  0.00    -0.175 NA
HETATM   18  C   UNL     1      43.396 -18.356   7.394  1.00  0.00     0.150 C 
BRANCH  18  19
HETATM   19  C   UNL     1      43.808 -19.033   6.147  1.00  0.00    -0.014 A 
HETATM   20  C   UNL     1      44.258 -20.351   6.246  1.00  0.00     0.049 A 
HETATM   21  C   UNL     1      44.642 -21.030   5.095  1.00  0.00     0.066 A 
HETATM   22  C   UNL     1      44.573 -20.419   3.846  1.00  0.00     0.036 A 
HETATM   23  C   UNL     1      44.099 -19.111   3.748  1.00  0.00     0.004 A 
HETATM   24  C   UNL     1      43.702 -18.419   4.895  1.00  0.00     0.013 A 
BRANCH  21  25
HETATM   25  O   UNL     1      45.084 -22.312   5.237  1.00  0.00    -0.361 OA
HETATM   26  H   UNL     1      44.473 -22.793   5.818  1.00  0.00     0.217 HD
ENDBRANCH  21  25
ENDBRANCH  18  19
ENDBRANCH   1  17
TORSDOF 3
ENDMDL
MODEL 10
REMARK VINA RESULT:      -7.9      4.156      8.255
REMARK  3 active torsions:
REMARK  status: ('A' for Active; 'I' for Inactive)
REMARK    1  A    between atoms: C_3  and  O_4 
REMARK    2  A    between atoms: C_6  and  C_7 
REMARK    3  A    between atoms: N_8  and  N_9 
ROOT
HETATM    1  N   UNL     1      38.896 -14.207   0.116  1.00  0.00    -0.189 N 
HETATM    2  C   UNL     1      40.131 -14.447  -0.503  1.00  0.00     0.298 A 
HETATM    3  O   UNL     1      40.487 -14.028  -1.601  1.00  0.00    -0.264 OA
HETATM    4  C   UNL     1      40.948 -15.306   0.294  1.00  0.00     0.133 A 
HETATM    5  C   UNL     1      40.587 -15.767   1.526  1.00  0.00     0.103 A 
HETATM    6  N   UNL     1      39.391 -15.415   2.152  1.00  0.00    -0.239 NA
HETATM    7  C   UNL     1      38.639 -14.649   1.415  1.00  0.00     0.239 A 
HETATM    8  N   UNL     1      42.181 -15.820   0.001  1.00  0.00    -0.349 N 
HETATM    9  H   UNL     1      42.696 -15.636  -0.850  1.00  0.00     0.166 HD
HETATM   10  C   UNL     1      42.601 -16.635   1.036  1.00  0.00     0.045 A 
HETATM   11  C   UNL     1      41.602 -16.613   2.020  1.00  0.00     0.024 A 
HETATM   12  C   UNL     1      43.777 -17.381   1.175  1.00  0.00     0.032 A 
HETATM   13  C   UNL     1      43.935 -18.124   2.350  1.00  0.00     0.026 A 
HETATM   14  C   UNL     1      42.954 -18.115   3.341  1.00  0.00     0.035 A 
HETATM   15 CL   UNL     1      43.187 -19.047   4.771  1.00  0.00    -0.084 Cl
HETATM   16  C   UNL     1      41.784 -17.364   3.197  1.00  0.00     0.040 A 
ENDROOT
BRANCH   1  17
HETATM   17  N   UNL     1      38.019 -13.346  -0.509  1.00  0.00    -0.175 NA
HETATM   18  C   UNL     1      37.960 -12.099  -0.142  1.00  0.00     0.150 C 
BRANCH  18  19
HETATM   19  C   UNL     1      38.600 -11.412   0.999  1.00  0.00    -0.014 A 
HETATM   20  C   UNL     1      37.843 -11.249   2.162  1.00  0.00     0.049 A 
HETATM   21  C   UNL     1      38.412 -10.620   3.263  1.00  0.00     0.066 A 
HETATM   22  C   UNL     1      39.726 -10.161   3.227  1.00  0.00     0.036 A 
HETATM   23  C   UNL     1      40.487 -10.348   2.073  1.00  0.00     0.004 A 
HETATM   24  C   UNL     1      39.931 -10.986   0.962  1.00  0.00     0.013 A 
BRANCH  21  25
HETATM   25  O   UNL     1      37.637 -10.472   4.375  1.00  0.00    -0.361 OA
HETATM   26  H   UNL     1      37.870 -11.165   5.015  1.00  0.00     0.217 HD
ENDBRANCH  21  25
ENDBRANCH  18  19
ENDBRANCH   1  17
TORSDOF 3
ENDMDL
