MODEL 1
REMARK VINA RESULT:      -8.0      0.000      0.000
REMARK  9 active torsions:
REMARK  status: ('A' for Active; 'I' for Inactive)
REMARK    1  A    between atoms: C_6  and  C_7 
REMARK    2  A    between atoms: C_7  and  C_8 
REMARK    3  A    between atoms: C_11  and  N_12 
REMARK       I    between atoms: N_12  and  C_13 
REMARK       I    between atoms: C_13  and  N_14 
REMARK    4  A    between atoms: N_14  and  C_15 
REMARK    5  A    between atoms: C_15  and  C_16 
REMARK    6  A    between atoms: C_16  and  C_17 
REMARK    7  A    between atoms: C_16  and  C_19 
REMARK    8  A    between atoms: C_17  and  O_18 
REMARK    9  A    between atoms: C_19  and  C_20 
ROOT
HETATM    1  N   UNL     1      40.779 -15.387   6.210  1.00  0.00    -0.309 N 
HETATM    2  C   UNL     1      40.099 -14.597   5.338  1.00  0.00     0.320 C 
HETATM    3  N   UNL     1      40.111 -14.935   4.022  1.00  0.00    -0.342 N 
HETATM    4  O   UNL     1      39.468 -13.632   5.769  1.00  0.00    -0.247 OA
HETATM    5  H   UNL     1      40.542 -15.142   7.165  1.00  0.00     0.170 HD
HETATM    6  H   UNL     1      40.209 -15.920   3.820  1.00  0.00     0.164 HD
ENDROOT
BRANCH   1   7
HETATM    7  C   UNL     1      41.792 -16.351   6.050  1.00  0.00     0.036 A 
HETATM    8  C   UNL     1      41.609 -17.616   5.489  1.00  0.00     0.030 A 
HETATM    9  C   UNL     1      42.689 -18.496   5.348  1.00  0.00     0.010 A 
HETATM   10  C   UNL     1      43.979 -18.116   5.740  1.00  0.00    -0.051 A 
HETATM   11  C   UNL     1      44.169 -16.838   6.275  1.00  0.00     0.010 A 
HETATM   12  C   UNL     1      43.086 -15.968   6.427  1.00  0.00     0.030 A 
BRANCH  10  13
HETATM   13  C   UNL     1      45.153 -19.044   5.521  1.00  0.00     0.118 C 
BRANCH  13  14
HETATM   14  C   UNL     1      44.875 -20.196   4.615  1.00  0.00     0.126 A 
HETATM   15  N   UNL     1      44.856 -21.506   5.011  1.00  0.00    -0.263 N 
HETATM   16  N   UNL     1      44.590 -22.327   3.984  1.00  0.00    -0.158 NA
HETATM   17  H   UNL     1      45.017 -21.895   5.934  1.00  0.00     0.190 HD
HETATM   18  C   UNL     1      44.448 -21.460   2.976  1.00  0.00     0.144 A 
HETATM   19  C   UNL     1      44.131 -21.884   1.600  1.00  0.00     0.095 C 
HETATM   20  N   UNL     1      44.614 -20.145   3.325  1.00  0.00    -0.217 NA
ENDBRANCH  13  14
ENDBRANCH  10  13
ENDBRANCH   1   7
BRANCH   3  21
HETATM   21  C   UNL     1      39.495 -14.101   3.007  1.00  0.00     0.131 C 
BRANCH  21  22
HETATM   22  C   UNL     1      39.138 -14.843   1.707  1.00  0.00     0.033 C 
BRANCH  22  23
HETATM   23  C   UNL     1      37.975 -14.170   0.964  1.00  0.00     0.170 C 
BRANCH  23  24
HETATM   24  O   UNL     1      38.120 -14.360  -0.441  1.00  0.00    -0.400 OA
HETATM   25  H   UNL     1      38.939 -14.864  -0.586  1.00  0.00     0.209 HD
ENDBRANCH  23  24
ENDBRANCH  22  23
BRANCH  22  26
HETATM   26  C   UNL     1      40.362 -14.933   0.769  1.00  0.00     0.073 C 
BRANCH  26  27
HETATM   27  C   UNL     1      41.366 -15.946   1.190  1.00  0.00     0.053 A 
HETATM   28  O   UNL     1      42.445 -15.485   1.883  1.00  0.00    -0.327 OA
HETATM   29  C   UNL     1      43.221 -16.562   2.167  1.00  0.00     0.142 A 
HETATM   30  C   UNL     1      42.657 -17.709   1.660  1.00  0.00     0.027 A 
HETATM   31  C   UNL     1      41.454 -17.312   1.029  1.00  0.00     0.034 A 
ENDBRANCH  26  27
ENDBRANCH  22  26
ENDBRANCH  21  22
ENDBRANCH   3  21
TORSDOF 9
ENDMDL
MODEL 2
REMARK VINA RESULT:      -7.9      5.697      8.573
REMARK  9 active torsions:
REMARK  status: ('A' for Active; 'I' for Inactive)
REMARK    1  A    between atoms: C_6  and  C_7 
REMARK    2  A    between atoms: C_7  and  C_8 
REMARK    3  A    between atoms: C_11  and  N_12 
REMARK       I    between atoms: N_12  and  C_13 
REMARK       I    between atoms: C_13  and  N_14 
REMARK    4  A    between atoms: N_14  and  C_15 
REMARK    5  A    between atoms: C_15  and  C_16 
REMARK    6  A    between atoms: C_16  and  C_17 
REMARK    7  A    between atoms: C_16  and  C_19 
REMARK    8  A    between atoms: C_17  and  O_18 
REMARK    9  A    between atoms: C_19  and  C_20 
ROOT
HETATM    1  N   UNL     1      45.357 -13.636   7.409  1.00  0.00    -0.309 N 
HETATM    2  C   UNL     1      45.208 -12.549   8.211  1.00  0.00     0.320 C 
HETATM    3  N   UNL     1      43.980 -12.306   8.740  1.00  0.00    -0.342 N 
HETATM    4  O   UNL     1      46.189 -11.849   8.460  1.00  0.00    -0.247 OA
HETATM    5  H   UNL     1      46.340 -13.812   7.233  1.00  0.00     0.170 HD
HETATM    6  H   UNL     1      43.399 -13.117   8.898  1.00  0.00     0.164 HD
ENDROOT
BRANCH   1   7
HETATM    7  C   UNL     1      44.447 -14.452   6.711  1.00  0.00     0.036 A 
HETATM    8  C   UNL     1      43.878 -14.140   5.477  1.00  0.00     0.030 A 
HETATM    9  C   UNL     1      43.000 -15.033   4.849  1.00  0.00     0.010 A 
HETATM   10  C   UNL     1      42.699 -16.270   5.433  1.00  0.00    -0.051 A 
HETATM   11  C   UNL     1      43.292 -16.598   6.656  1.00  0.00     0.010 A 
HETATM   12  C   UNL     1      44.155 -15.697   7.286  1.00  0.00     0.030 A 
BRANCH  10  13
HETATM   13  C   UNL     1      41.807 -17.260   4.718  1.00  0.00     0.118 C 
BRANCH  13  14
HETATM   14  C   UNL     1      42.511 -18.132   3.732  1.00  0.00     0.126 A 
HETATM   15  N   UNL     1      42.419 -17.996   2.374  1.00  0.00    -0.263 N 
HETATM   16  N   UNL     1      43.148 -18.924   1.735  1.00  0.00    -0.158 NA
HETATM   17  H   UNL     1      41.889 -17.319   1.835  1.00  0.00     0.190 HD
HETATM   18  C   UNL     1      43.673 -19.604   2.759  1.00  0.00     0.144 A 
HETATM   19  C   UNL     1      44.581 -20.751   2.571  1.00  0.00     0.095 C 
HETATM   20  N   UNL     1      43.307 -19.148   3.999  1.00  0.00    -0.217 NA
ENDBRANCH  13  14
ENDBRANCH  10  13
ENDBRANCH   1   7
BRANCH   3  21
HETATM   21  C   UNL     1      43.703 -11.120   9.528  1.00  0.00     0.131 C 
BRANCH  21  22
HETATM   22  C   UNL     1      43.666 -11.362  11.047  1.00  0.00     0.033 C 
BRANCH  22  23
HETATM   23  C   UNL     1      44.680 -12.430  11.482  1.00  0.00     0.170 C 
BRANCH  23  24
HETATM   24  O   UNL     1      44.087 -13.723  11.412  1.00  0.00    -0.400 OA
HETATM   25  H   UNL     1      44.808 -14.374  11.367  1.00  0.00     0.209 HD
ENDBRANCH  23  24
ENDBRANCH  22  23
BRANCH  22  26
HETATM   26  C   UNL     1      43.937 -10.053  11.822  1.00  0.00     0.073 C 
BRANCH  26  27
HETATM   27  C   UNL     1      43.120  -9.908  13.056  1.00  0.00     0.053 A 
HETATM   28  O   UNL     1      41.998 -10.678  13.141  1.00  0.00    -0.327 OA
HETATM   29  C   UNL     1      41.414 -10.394  14.333  1.00  0.00     0.142 A 
HETATM   30  C   UNL     1      42.143  -9.447  15.013  1.00  0.00     0.027 A 
HETATM   31  C   UNL     1      43.250  -9.133  14.189  1.00  0.00     0.034 A 
ENDBRANCH  26  27
ENDBRANCH  22  26
ENDBRANCH  21  22
ENDBRANCH   3  21
TORSDOF 9
ENDMDL
MODEL 3
REMARK VINA RESULT:      -7.8      2.782      6.554
REMARK  9 active torsions:
REMARK  status: ('A' for Active; 'I' for Inactive)
REMARK    1  A    between atoms: C_6  and  C_7 
REMARK    2  A    between atoms: C_7  and  C_8 
REMARK    3  A    between atoms: C_11  and  N_12 
REMARK       I    between atoms: N_12  and  C_13 
REMARK       I    between atoms: C_13  and  N_14 
REMARK    4  A    between atoms: N_14  and  C_15 
REMARK    5  A    between atoms: C_15  and  C_16 
REMARK    6  A    between atoms: C_16  and  C_17 
REMARK    7  A    between atoms: C_16  and  C_19 
REMARK    8  A    between atoms: C_17  and  O_18 
REMARK    9  A    between atoms: C_19  and  C_20 
ROOT
HETATM    1  N   UNL     1      43.445 -18.953   7.056  1.00  0.00    -0.309 N 
HETATM    2  C   UNL     1      43.919 -20.005   6.336  1.00  0.00     0.320 C 
HETATM    3  N   UNL     1      44.552 -19.744   5.162  1.00  0.00    -0.342 N 
HETATM    4  O   UNL     1      43.796 -21.143   6.785  1.00  0.00    -0.247 OA
HETATM    5  H   UNL     1      43.168 -19.258   7.982  1.00  0.00     0.170 HD
HETATM    6  H   UNL     1      45.026 -18.854   5.103  1.00  0.00     0.164 HD
ENDROOT
BRANCH   1   7
HETATM    7  C   UNL     1      43.166 -17.612   6.734  1.00  0.00     0.036 A 
HETATM    8  C   UNL     1      44.115 -16.592   6.671  1.00  0.00     0.030 A 
HETATM    9  C   UNL     1      43.741 -15.290   6.314  1.00  0.00     0.010 A 
HETATM   10  C   UNL     1      42.412 -14.992   5.986  1.00  0.00    -0.051 A 
HETATM   11  C   UNL     1      41.464 -16.019   6.020  1.00  0.00     0.010 A 
HETATM   12  C   UNL     1      41.841 -17.314   6.391  1.00  0.00     0.030 A 
BRANCH  10  13
HETATM   13  C   UNL     1      42.026 -13.601   5.534  1.00  0.00     0.118 C 
BRANCH  13  14
HETATM   14  C   UNL     1      41.914 -13.437   4.055  1.00  0.00     0.126 A 
HETATM   15  N   UNL     1      42.883 -12.885   3.262  1.00  0.00    -0.263 N 
HETATM   16  N   UNL     1      42.507 -12.855   1.974  1.00  0.00    -0.158 NA
HETATM   17  H   UNL     1      43.790 -12.517   3.526  1.00  0.00     0.190 HD
HETATM   18  C   UNL     1      41.292 -13.409   2.036  1.00  0.00     0.144 A 
HETATM   19  C   UNL     1      40.447 -13.612   0.844  1.00  0.00     0.095 C 
HETATM   20  N   UNL     1      40.894 -13.780   3.295  1.00  0.00    -0.217 NA
ENDBRANCH  13  14
ENDBRANCH  10  13
ENDBRANCH   1   7
BRANCH   3  21
HETATM   21  C   UNL     1      45.007 -20.804   4.281  1.00  0.00     0.131 C 
BRANCH  21  22
HETATM   22  C   UNL     1      44.636 -20.602   2.802  1.00  0.00     0.033 C 
BRANCH  22  23
HETATM   23  C   UNL     1      44.604 -21.931   2.033  1.00  0.00     0.170 C 
BRANCH  23  24
HETATM   24  O   UNL     1      44.722 -23.023   2.941  1.00  0.00    -0.400 OA
HETATM   25  H   UNL     1      45.659 -23.282   2.966  1.00  0.00     0.209 HD
ENDBRANCH  23  24
ENDBRANCH  22  23
BRANCH  22  26
HETATM   26  C   UNL     1      43.268 -19.899   2.666  1.00  0.00     0.073 C 
BRANCH  26  27
HETATM   27  C   UNL     1      43.365 -18.468   2.274  1.00  0.00     0.053 A 
HETATM   28  O   UNL     1      43.519 -17.566   3.284  1.00  0.00    -0.327 OA
HETATM   29  C   UNL     1      43.590 -16.338   2.709  1.00  0.00     0.142 A 
HETATM   30  C   UNL     1      43.478 -16.439   1.343  1.00  0.00     0.027 A 
HETATM   31  C   UNL     1      43.335 -17.818   1.058  1.00  0.00     0.034 A 
ENDBRANCH  26  27
ENDBRANCH  22  26
ENDBRANCH  21  22
ENDBRANCH   3  21
TORSDOF 9
ENDMDL
MODEL 4
REMARK VINA RESULT:      -7.7      1.281      1.451
REMARK  9 active torsions:
REMARK  status: ('A' for Active; 'I' for Inactive)
REMARK    1  A    between atoms: C_6  and  C_7 
REMARK    2  A    between atoms: C_7  and  C_8 
REMARK    3  A    between atoms: C_11  and  N_12 
REMARK       I    between atoms: N_12  and  C_13 
REMARK       I    between atoms: C_13  and  N_14 
REMARK    4  A    between atoms: N_14  and  C_15 
REMARK    5  A    between atoms: C_15  and  C_16 
REMARK    6  A    between atoms: C_16  and  C_17 
REMARK    7  A    between atoms: C_16  and  C_19 
REMARK    8  A    between atoms: C_17  and  O_18 
REMARK    9  A    between atoms: C_19  and  C_20 
ROOT
HETATM    1  N   UNL     1      40.644 -15.384   6.253  1.00  0.00    -0.309 N 
HETATM    2  C   UNL     1      40.188 -14.401   5.431  1.00  0.00     0.320 C 
HETATM    3  N   UNL     1      40.521 -14.461   4.115  1.00  0.00    -0.342 N 
HETATM    4  O   UNL     1      39.464 -13.521   5.894  1.00  0.00    -0.247 OA
HETATM    5  H   UNL     1      40.182 -15.331   7.153  1.00  0.00     0.170 HD
HETATM    6  H   UNL     1      40.672 -15.386   3.738  1.00  0.00     0.164 HD
ENDROOT
BRANCH   1   7
HETATM    7  C   UNL     1      41.673 -16.336   6.138  1.00  0.00     0.036 A 
HETATM    8  C   UNL     1      41.507 -17.639   5.667  1.00  0.00     0.030 A 
HETATM    9  C   UNL     1      42.602 -18.506   5.564  1.00  0.00     0.010 A 
HETATM   10  C   UNL     1      43.890 -18.075   5.904  1.00  0.00    -0.051 A 
HETATM   11  C   UNL     1      44.064 -16.760   6.348  1.00  0.00     0.010 A 
HETATM   12  C   UNL     1      42.966 -15.904   6.463  1.00  0.00     0.030 A 
BRANCH  10  13
HETATM   13  C   UNL     1      45.080 -18.992   5.726  1.00  0.00     0.118 C 
BRANCH  13  14
HETATM   14  C   UNL     1      44.844 -20.144   4.806  1.00  0.00     0.126 A 
HETATM   15  N   UNL     1      44.775 -21.451   5.204  1.00  0.00    -0.263 N 
HETATM   16  N   UNL     1      44.566 -22.272   4.163  1.00  0.00    -0.158 NA
HETATM   17  H   UNL     1      44.866 -21.840   6.137  1.00  0.00     0.190 HD
HETATM   18  C   UNL     1      44.509 -21.407   3.146  1.00  0.00     0.144 A 
HETATM   19  C   UNL     1      44.280 -21.831   1.752  1.00  0.00     0.095 C 
HETATM   20  N   UNL     1      44.674 -20.093   3.500  1.00  0.00    -0.217 NA
ENDBRANCH  13  14
ENDBRANCH  10  13
ENDBRANCH   1   7
BRANCH   3  21
HETATM   21  C   UNL     1      40.160 -13.409   3.182  1.00  0.00     0.131 C 
BRANCH  21  22
HETATM   22  C   UNL     1      40.495 -13.722   1.713  1.00  0.00     0.033 C 
BRANCH  22  23
HETATM   23  C   UNL     1      41.917 -13.278   1.342  1.00  0.00     0.170 C 
BRANCH  23  24
HETATM   24  O   UNL     1      42.576 -12.743   2.488  1.00  0.00    -0.400 OA
HETATM   25  H   UNL     1      42.307 -11.813   2.572  1.00  0.00     0.209 HD
ENDBRANCH  23  24
ENDBRANCH  22  23
BRANCH  22  26
HETATM   26  C   UNL     1      40.338 -15.231   1.420  1.00  0.00     0.073 C 
BRANCH  26  27
HETATM   27  C   UNL     1      41.622 -15.980   1.432  1.00  0.00     0.053 A 
HETATM   28  O   UNL     1      42.309 -15.997   2.609  1.00  0.00    -0.327 OA
HETATM   29  C   UNL     1      43.432 -16.730   2.400  1.00  0.00     0.142 A 
HETATM   30  C   UNL     1      43.479 -17.180   1.102  1.00  0.00     0.027 A 
HETATM   31  C   UNL     1      42.306 -16.697   0.474  1.00  0.00     0.034 A 
ENDBRANCH  26  27
ENDBRANCH  22  26
ENDBRANCH  21  22
ENDBRANCH   3  21
TORSDOF 9
ENDMDL
MODEL 5
REMARK VINA RESULT:      -7.6      1.791      2.330
REMARK  9 active torsions:
REMARK  status: ('A' for Active; 'I' for Inactive)
REMARK    1  A    between atoms: C_6  and  C_7 
REMARK    2  A    between atoms: C_7  and  C_8 
REMARK    3  A    between atoms: C_11  and  N_12 
REMARK       I    between atoms: N_12  and  C_13 
REMARK       I    between atoms: C_13  and  N_14 
REMARK    4  A    between atoms: N_14  and  C_15 
REMARK    5  A    between atoms: C_15  and  C_16 
REMARK    6  A    between atoms: C_16  and  C_17 
REMARK    7  A    between atoms: C_16  and  C_19 
REMARK    8  A    between atoms: C_17  and  O_18 
REMARK    9  A    between atoms: C_19  and  C_20 
ROOT
HETATM    1  N   UNL     1      40.247 -14.339   5.082  1.00  0.00    -0.309 N 
HETATM    2  C   UNL     1      39.860 -14.215   3.785  1.00  0.00     0.320 C 
HETATM    3  N   UNL     1      40.077 -15.264   2.948  1.00  0.00    -0.342 N 
HETATM    4  O   UNL     1      39.297 -13.183   3.423  1.00  0.00    -0.247 OA
HETATM    5  H   UNL     1      39.868 -13.580   5.636  1.00  0.00     0.170 HD
HETATM    6  H   UNL     1      40.075 -16.179   3.376  1.00  0.00     0.164 HD
ENDROOT
BRANCH   1   7
HETATM    7  C   UNL     1      41.130 -15.211   5.746  1.00  0.00     0.036 A 
HETATM    8  C   UNL     1      40.783 -16.463   6.255  1.00  0.00     0.030 A 
HETATM    9  C   UNL     1      41.744 -17.271   6.878  1.00  0.00     0.010 A 
HETATM   10  C   UNL     1      43.076 -16.851   6.976  1.00  0.00    -0.051 A 
HETATM   11  C   UNL     1      43.432 -15.610   6.440  1.00  0.00     0.010 A 
HETATM   12  C   UNL     1      42.466 -14.801   5.833  1.00  0.00     0.030 A 
BRANCH  10  13
HETATM   13  C   UNL     1      44.124 -17.756   7.587  1.00  0.00     0.118 C 
BRANCH  13  14
HETATM   14  C   UNL     1      44.083 -19.168   7.104  1.00  0.00     0.126 A 
HETATM   15  N   UNL     1      43.496 -20.201   7.781  1.00  0.00    -0.263 N 
HETATM   16  N   UNL     1      43.622 -21.360   7.116  1.00  0.00    -0.158 NA
HETATM   17  H   UNL     1      43.015 -20.188   8.673  1.00  0.00     0.190 HD
HETATM   18  C   UNL     1      44.295 -20.973   6.027  1.00  0.00     0.144 A 
HETATM   19  C   UNL     1      44.680 -21.910   4.954  1.00  0.00     0.095 C 
HETATM   20  N   UNL     1      44.595 -19.637   5.983  1.00  0.00    -0.217 NA
ENDBRANCH  13  14
ENDBRANCH  10  13
ENDBRANCH   1   7
BRANCH   3  21
HETATM   21  C   UNL     1      39.785 -15.188   1.529  1.00  0.00     0.131 C 
BRANCH  21  22
HETATM   22  C   UNL     1      40.896 -15.746   0.622  1.00  0.00     0.033 C 
BRANCH  22  23
HETATM   23  C   UNL     1      40.933 -15.039  -0.741  1.00  0.00     0.170 C 
BRANCH  23  24
HETATM   24  O   UNL     1      39.608 -14.870  -1.238  1.00  0.00    -0.400 OA
HETATM   25  H   UNL     1      39.649 -14.936  -2.208  1.00  0.00     0.209 HD
ENDBRANCH  23  24
ENDBRANCH  22  23
BRANCH  22  26
HETATM   26  C   UNL     1      42.278 -15.620   1.301  1.00  0.00     0.073 C 
BRANCH  26  27
HETATM   27  C   UNL     1      42.808 -16.907   1.825  1.00  0.00     0.053 A 
HETATM   28  O   UNL     1      42.238 -17.382   2.968  1.00  0.00    -0.327 OA
HETATM   29  C   UNL     1      42.860 -18.552   3.262  1.00  0.00     0.142 A 
HETATM   30  C   UNL     1      43.827 -18.832   2.326  1.00  0.00     0.027 A 
HETATM   31  C   UNL     1      43.793 -17.769   1.392  1.00  0.00     0.034 A 
ENDBRANCH  26  27
ENDBRANCH  22  26
ENDBRANCH  21  22
ENDBRANCH   3  21
TORSDOF 9
ENDMDL
MODEL 6
REMARK VINA RESULT:      -7.4      5.363      8.234
REMARK  9 active torsions:
REMARK  status: ('A' for Active; 'I' for Inactive)
REMARK    1  A    between atoms: C_6  and  C_7 
REMARK    2  A    between atoms: C_7  and  C_8 
REMARK    3  A    between atoms: C_11  and  N_12 
REMARK       I    between atoms: N_12  and  C_13 
REMARK       I    between atoms: C_13  and  N_14 
REMARK    4  A    between atoms: N_14  and  C_15 
REMARK    5  A    between atoms: C_15  and  C_16 
REMARK    6  A    between atoms: C_16  and  C_17 
REMARK    7  A    between atoms: C_16  and  C_19 
REMARK    8  A    between atoms: C_17  and  O_18 
REMARK    9  A    between atoms: C_19  and  C_20 
ROOT
HETATM    1  N   UNL     1      41.772 -11.531   6.074  1.00  0.00    -0.309 N 
HETATM    2  C   UNL     1      41.990 -10.735   7.155  1.00  0.00     0.320 C 
HETATM    3  N   UNL     1      42.514 -11.301   8.273  1.00  0.00    -0.342 N 
HETATM    4  O   UNL     1      41.744  -9.532   7.072  1.00  0.00    -0.247 OA
HETATM    5  H   UNL     1      41.561 -10.967   5.259  1.00  0.00     0.170 HD
HETATM    6  H   UNL     1      43.111 -12.103   8.125  1.00  0.00     0.164 HD
ENDROOT
BRANCH   1   7
HETATM    7  C   UNL     1      41.670 -12.924   5.908  1.00  0.00     0.036 A 
HETATM    8  C   UNL     1      42.750 -13.805   5.864  1.00  0.00     0.030 A 
HETATM    9  C   UNL     1      42.543 -15.183   5.722  1.00  0.00     0.010 A 
HETATM   10  C   UNL     1      41.246 -15.708   5.651  1.00  0.00    -0.051 A 
HETATM   11  C   UNL     1      40.160 -14.830   5.725  1.00  0.00     0.010 A 
HETATM   12  C   UNL     1      40.374 -13.454   5.852  1.00  0.00     0.030 A 
BRANCH  10  13
HETATM   13  C   UNL     1      41.025 -17.202   5.568  1.00  0.00     0.118 C 
BRANCH  13  14
HETATM   14  C   UNL     1      42.027 -17.933   4.737  1.00  0.00     0.126 A 
HETATM   15  N   UNL     1      43.035 -18.707   5.243  1.00  0.00    -0.263 N 
HETATM   16  N   UNL     1      43.790 -19.233   4.265  1.00  0.00    -0.158 NA
HETATM   17  H   UNL     1      43.262 -18.907   6.211  1.00  0.00     0.190 HD
HETATM   18  C   UNL     1      43.190 -18.748   3.173  1.00  0.00     0.144 A 
HETATM   19  C   UNL     1      43.654 -19.056   1.807  1.00  0.00     0.095 C 
HETATM   20  N   UNL     1      42.105 -17.949   3.422  1.00  0.00    -0.217 NA
ENDBRANCH  13  14
ENDBRANCH  10  13
ENDBRANCH   1   7
BRANCH   3  21
HETATM   21  C   UNL     1      42.692 -10.553   9.503  1.00  0.00     0.131 C 
BRANCH  21  22
HETATM   22  C   UNL     1      43.553 -11.266  10.561  1.00  0.00     0.033 C 
BRANCH  22  23
HETATM   23  C   UNL     1      44.713 -12.045   9.924  1.00  0.00     0.170 C 
BRANCH  23  24
HETATM   24  O   UNL     1      44.278 -13.351   9.554  1.00  0.00    -0.400 OA
HETATM   25  H   UNL     1      43.607 -13.630  10.200  1.00  0.00     0.209 HD
ENDBRANCH  23  24
ENDBRANCH  22  23
BRANCH  22  26
HETATM   26  C   UNL     1      44.116 -10.257  11.586  1.00  0.00     0.073 C 
BRANCH  26  27
HETATM   27  C   UNL     1      43.261 -10.086  12.790  1.00  0.00     0.053 A 
HETATM   28  O   UNL     1      42.128 -10.842  12.848  1.00  0.00    -0.327 OA
HETATM   29  C   UNL     1      41.508 -10.535  14.016  1.00  0.00     0.142 A 
HETATM   30  C   UNL     1      42.224  -9.586  14.707  1.00  0.00     0.027 A 
HETATM   31  C   UNL     1      43.361  -9.296  13.916  1.00  0.00     0.034 A 
ENDBRANCH  26  27
ENDBRANCH  22  26
ENDBRANCH  21  22
ENDBRANCH   3  21
TORSDOF 9
ENDMDL
MODEL 7
REMARK VINA RESULT:      -7.4      3.324      6.908
REMARK  9 active torsions:
REMARK  status: ('A' for Active; 'I' for Inactive)
REMARK    1  A    between atoms: C_6  and  C_7 
REMARK    2  A    between atoms: C_7  and  C_8 
REMARK    3  A    between atoms: C_11  and  N_12 
REMARK       I    between atoms: N_12  and  C_13 
REMARK       I    between atoms: C_13  and  N_14 
REMARK    4  A    between atoms: N_14  and  C_15 
REMARK    5  A    between atoms: C_15  and  C_16 
REMARK    6  A    between atoms: C_16  and  C_17 
REMARK    7  A    between atoms: C_16  and  C_19 
REMARK    8  A    between atoms: C_17  and  O_18 
REMARK    9  A    between atoms: C_19  and  C_20 
ROOT
HETATM    1  N   UNL     1      40.175 -15.617   4.469  1.00  0.00    -0.309 N 
HETATM    2  C   UNL     1      40.864 -16.113   5.532  1.00  0.00     0.320 C 
HETATM    3  N   UNL     1      42.217 -15.986   5.535  1.00  0.00    -0.342 N 
HETATM    4  O   UNL     1      40.242 -16.620   6.465  1.00  0.00    -0.247 OA
HETATM    5  H   UNL     1      39.182 -15.604   4.670  1.00  0.00     0.170 HD
HETATM    6  H   UNL     1      42.587 -15.188   5.038  1.00  0.00     0.164 HD
ENDROOT
BRANCH   1   7
HETATM    7  C   UNL     1      40.550 -15.251   3.164  1.00  0.00     0.036 A 
HETATM    8  C   UNL     1      40.554 -16.108   2.063  1.00  0.00     0.030 A 
HETATM    9  C   UNL     1      40.919 -15.640   0.795  1.00  0.00     0.010 A 
HETATM   10  C   UNL     1      41.260 -14.295   0.599  1.00  0.00    -0.051 A 
HETATM   11  C   UNL     1      41.228 -13.427   1.695  1.00  0.00     0.010 A 
HETATM   12  C   UNL     1      40.877 -13.903   2.962  1.00  0.00     0.030 A 
BRANCH  10  13
HETATM   13  C   UNL     1      41.586 -13.779  -0.785  1.00  0.00     0.118 C 
BRANCH  13  14
HETATM   14  C   UNL     1      40.843 -14.453  -1.890  1.00  0.00     0.126 A 
HETATM   15  N   UNL     1      41.410 -15.310  -2.794  1.00  0.00    -0.263 N 
HETATM   16  N   UNL     1      40.509 -15.756  -3.682  1.00  0.00    -0.158 NA
HETATM   17  H   UNL     1      42.375 -15.618  -2.863  1.00  0.00     0.190 HD
HETATM   18  C   UNL     1      39.397 -15.140  -3.269  1.00  0.00     0.144 A 
HETATM   19  C   UNL     1      38.093 -15.318  -3.936  1.00  0.00     0.095 C 
HETATM   20  N   UNL     1      39.562 -14.333  -2.173  1.00  0.00    -0.217 NA
ENDBRANCH  13  14
ENDBRANCH  10  13
ENDBRANCH   1   7
BRANCH   3  21
HETATM   21  C   UNL     1      43.042 -16.567   6.578  1.00  0.00     0.131 C 
BRANCH  21  22
HETATM   22  C   UNL     1      43.968 -17.698   6.098  1.00  0.00     0.033 C 
BRANCH  22  23
HETATM   23  C   UNL     1      44.571 -18.482   7.273  1.00  0.00     0.170 C 
BRANCH  23  24
HETATM   24  O   UNL     1      43.691 -18.435   8.393  1.00  0.00    -0.400 OA
HETATM   25  H   UNL     1      43.077 -17.694   8.252  1.00  0.00     0.209 HD
ENDBRANCH  23  24
ENDBRANCH  22  23
BRANCH  22  26
HETATM   26  C   UNL     1      43.214 -18.671   5.166  1.00  0.00     0.073 C 
BRANCH  26  27
HETATM   27  C   UNL     1      43.497 -18.459   3.722  1.00  0.00     0.053 A 
HETATM   28  O   UNL     1      43.783 -17.183   3.336  1.00  0.00    -0.327 OA
HETATM   29  C   UNL     1      44.010 -17.217   1.998  1.00  0.00     0.142 A 
HETATM   30  C   UNL     1      43.868 -18.497   1.518  1.00  0.00     0.027 A 
HETATM   31  C   UNL     1      43.539 -19.304   2.633  1.00  0.00     0.034 A 
ENDBRANCH  26  27
ENDBRANCH  22  26
ENDBRANCH  21  22
ENDBRANCH   3  21
TORSDOF 9
ENDMDL
MODEL 8
REMARK VINA RESULT:      -7.3      5.129      7.909
REMARK  9 active torsions:
REMARK  status: ('A' for Active; 'I' for Inactive)
REMARK    1  A    between atoms: C_6  and  C_7 
REMARK    2  A    between atoms: C_7  and  C_8 
REMARK    3  A    between atoms: C_11  and  N_12 
REMARK       I    between atoms: N_12  and  C_13 
REMARK       I    between atoms: C_13  and  N_14 
REMARK    4  A    between atoms: N_14  and  C_15 
REMARK    5  A    between atoms: C_15  and  C_16 
REMARK    6  A    between atoms: C_16  and  C_17 
REMARK    7  A    between atoms: C_16  and  C_19 
REMARK    8  A    between atoms: C_17  and  O_18 
REMARK    9  A    between atoms: C_19  and  C_20 
ROOT
HETATM    1  N   UNL     1      42.414 -13.150   5.998  1.00  0.00    -0.309 N 
HETATM    2  C   UNL     1      42.362 -12.038   6.779  1.00  0.00     0.320 C 
HETATM    3  N   UNL     1      43.060 -12.040   7.945  1.00  0.00    -0.342 N 
HETATM    4  O   UNL     1      41.723 -11.061   6.389  1.00  0.00    -0.247 OA
HETATM    5  H   UNL     1      42.015 -12.958   5.087  1.00  0.00     0.170 HD
HETATM    6  H   UNL     1      43.891 -12.615   7.962  1.00  0.00     0.164 HD
ENDROOT
BRANCH   1   7
HETATM    7  C   UNL     1      42.787 -14.484   6.245  1.00  0.00     0.036 A 
HETATM    8  C   UNL     1      44.078 -14.908   6.561  1.00  0.00     0.030 A 
HETATM    9  C   UNL     1      44.343 -16.259   6.816  1.00  0.00     0.010 A 
HETATM   10  C   UNL     1      43.314 -17.208   6.787  1.00  0.00    -0.051 A 
HETATM   11  C   UNL     1      42.014 -16.782   6.500  1.00  0.00     0.010 A 
HETATM   12  C   UNL     1      41.757 -15.434   6.232  1.00  0.00     0.030 A 
BRANCH  10  13
HETATM   13  C   UNL     1      43.593 -18.655   7.132  1.00  0.00     0.118 C 
BRANCH  13  14
HETATM   14  C   UNL     1      44.004 -19.501   5.973  1.00  0.00     0.126 A 
HETATM   15  N   UNL     1      44.372 -20.815   6.067  1.00  0.00    -0.263 N 
HETATM   16  N   UNL     1      44.702 -21.321   4.868  1.00  0.00    -0.158 NA
HETATM   17  H   UNL     1      44.425 -21.406   6.890  1.00  0.00     0.190 HD
HETATM   18  C   UNL     1      44.511 -20.266   4.070  1.00  0.00     0.144 A 
HETATM   19  C   UNL     1      44.737 -20.318   2.613  1.00  0.00     0.095 C 
HETATM   20  N   UNL     1      44.081 -19.133   4.711  1.00  0.00    -0.217 NA
ENDBRANCH  13  14
ENDBRANCH  10  13
ENDBRANCH   1   7
BRANCH   3  21
HETATM   21  C   UNL     1      42.989 -10.938   8.886  1.00  0.00     0.131 C 
BRANCH  21  22
HETATM   22  C   UNL     1      43.310 -11.324  10.340  1.00  0.00     0.033 C 
BRANCH  22  23
HETATM   23  C   UNL     1      44.409 -12.394  10.420  1.00  0.00     0.170 C 
BRANCH  23  24
HETATM   24  O   UNL     1      44.167 -13.260  11.525  1.00  0.00    -0.400 OA
HETATM   25  H   UNL     1      44.612 -12.876  12.300  1.00  0.00     0.209 HD
ENDBRANCH  23  24
ENDBRANCH  22  23
BRANCH  22  26
HETATM   26  C   UNL     1      43.742 -10.086  11.158  1.00  0.00     0.073 C 
BRANCH  26  27
HETATM   27  C   UNL     1      43.121 -10.014  12.507  1.00  0.00     0.053 A 
HETATM   28  O   UNL     1      41.949 -10.687  12.679  1.00  0.00    -0.327 OA
HETATM   29  C   UNL     1      41.567 -10.493  13.966  1.00  0.00     0.142 A 
HETATM   30  C   UNL     1      42.476  -9.698  14.624  1.00  0.00     0.027 A 
HETATM   31  C   UNL     1      43.485  -9.389  13.681  1.00  0.00     0.034 A 
ENDBRANCH  26  27
ENDBRANCH  22  26
ENDBRANCH  21  22
ENDBRANCH   3  21
TORSDOF 9
ENDMDL
MODEL 9
REMARK VINA RESULT:      -7.3      3.490      6.874
REMARK  9 active torsions:
REMARK  status: ('A' for Active; 'I' for Inactive)
REMARK    1  A    between atoms: C_6  and  C_7 
REMARK    2  A    between atoms: C_7  and  C_8 
REMARK    3  A    between atoms: C_11  and  N_12 
REMARK       I    between atoms: N_12  and  C_13 
REMARK       I    between atoms: C_13  and  N_14 
REMARK    4  A    between atoms: N_14  and  C_15 
REMARK    5  A    between atoms: C_15  and  C_16 
REMARK    6  A    between atoms: C_16  and  C_17 
REMARK    7  A    between atoms: C_16  and  C_19 
REMARK    8  A    between atoms: C_17  and  O_18 
REMARK    9  A    between atoms: C_19  and  C_20 
ROOT
HETATM    1  N   UNL     1      42.127 -15.600   6.445  1.00  0.00    -0.309 N 
HETATM    2  C   UNL     1      42.915 -16.626   6.864  1.00  0.00     0.320 C 
HETATM    3  N   UNL     1      44.104 -16.819   6.235  1.00  0.00    -0.342 N 
HETATM    4  O   UNL     1      42.547 -17.315   7.815  1.00  0.00    -0.247 OA
HETATM    5  H   UNL     1      41.371 -15.447   7.103  1.00  0.00     0.170 HD
HETATM    6  H   UNL     1      44.537 -15.993   5.845  1.00  0.00     0.164 HD
ENDROOT
BRANCH   1   7
HETATM    7  C   UNL     1      42.092 -14.828   5.269  1.00  0.00     0.036 A 
HETATM    8  C   UNL     1      42.680 -13.572   5.120  1.00  0.00     0.030 A 
HETATM    9  C   UNL     1      42.614 -12.893   3.897  1.00  0.00     0.010 A 
HETATM   10  C   UNL     1      41.982 -13.474   2.790  1.00  0.00    -0.051 A 
HETATM   11  C   UNL     1      41.418 -14.746   2.928  1.00  0.00     0.010 A 
HETATM   12  C   UNL     1      41.474 -15.413   4.156  1.00  0.00     0.030 A 
BRANCH  10  13
HETATM   13  C   UNL     1      41.973 -12.768   1.452  1.00  0.00     0.118 C 
BRANCH  13  14
HETATM   14  C   UNL     1      41.261 -13.503   0.366  1.00  0.00     0.126 A 
HETATM   15  N   UNL     1      39.917 -13.415   0.124  1.00  0.00    -0.263 N 
HETATM   16  N   UNL     1      39.551 -14.193  -0.906  1.00  0.00    -0.158 NA
HETATM   17  H   UNL     1      39.216 -12.867   0.610  1.00  0.00     0.190 HD
HETATM   18  C   UNL     1      40.720 -14.735  -1.263  1.00  0.00     0.144 A 
HETATM   19  C   UNL     1      40.848 -15.683  -2.385  1.00  0.00     0.095 C 
HETATM   20  N   UNL     1      41.791 -14.335  -0.507  1.00  0.00    -0.217 NA
ENDBRANCH  13  14
ENDBRANCH  10  13
ENDBRANCH   1   7
BRANCH   3  21
HETATM   21  C   UNL     1      44.967 -17.942   6.549  1.00  0.00     0.131 C 
BRANCH  21  22
HETATM   22  C   UNL     1      44.719 -19.192   5.686  1.00  0.00     0.033 C 
BRANCH  22  23
HETATM   23  C   UNL     1      43.812 -20.208   6.397  1.00  0.00     0.170 C 
BRANCH  23  24
HETATM   24  O   UNL     1      43.652 -19.845   7.765  1.00  0.00    -0.400 OA
HETATM   25  H   UNL     1      42.723 -19.584   7.892  1.00  0.00     0.209 HD
ENDBRANCH  23  24
ENDBRANCH  22  23
BRANCH  22  26
HETATM   26  C   UNL     1      44.091 -18.810   4.327  1.00  0.00     0.073 C 
BRANCH  26  27
HETATM   27  C   UNL     1      44.042 -19.933   3.354  1.00  0.00     0.053 A 
HETATM   28  O   UNL     1      44.779 -21.039   3.657  1.00  0.00    -0.327 OA
HETATM   29  C   UNL     1      44.588 -21.929   2.650  1.00  0.00     0.142 A 
HETATM   30  C   UNL     1      43.741 -21.408   1.700  1.00  0.00     0.027 A 
HETATM   31  C   UNL     1      43.384 -20.116   2.156  1.00  0.00     0.034 A 
ENDBRANCH  26  27
ENDBRANCH  22  26
ENDBRANCH  21  22
ENDBRANCH   3  21
TORSDOF 9
ENDMDL
MODEL 10
REMARK VINA RESULT:      -7.2      3.346      7.138
REMARK  9 active torsions:
REMARK  status: ('A' for Active; 'I' for Inactive)
REMARK    1  A    between atoms: C_6  and  C_7 
REMARK    2  A    between atoms: C_7  and  C_8 
REMARK    3  A    between atoms: C_11  and  N_12 
REMARK       I    between atoms: N_12  and  C_13 
REMARK       I    between atoms: C_13  and  N_14 
REMARK    4  A    between atoms: N_14  and  C_15 
REMARK    5  A    between atoms: C_15  and  C_16 
REMARK    6  A    between atoms: C_16  and  C_17 
REMARK    7  A    between atoms: C_16  and  C_19 
REMARK    8  A    between atoms: C_17  and  O_18 
REMARK    9  A    between atoms: C_19  and  C_20 
ROOT
HETATM    1  N   UNL     1      40.311 -15.243   4.616  1.00  0.00    -0.309 N 
HETATM    2  C   UNL     1      40.863 -16.365   5.147  1.00  0.00     0.320 C 
HETATM    3  N   UNL     1      41.943 -16.905   4.524  1.00  0.00    -0.342 N 
HETATM    4  O   UNL     1      40.396 -16.829   6.187  1.00  0.00    -0.247 OA
HETATM    5  H   UNL     1      39.644 -14.839   5.263  1.00  0.00     0.170 HD
HETATM    6  H   UNL     1      42.533 -16.257   4.021  1.00  0.00     0.164 HD
ENDROOT
BRANCH   1   7
HETATM    7  C   UNL     1      40.394 -14.633   3.350  1.00  0.00     0.036 A 
HETATM    8  C   UNL     1      41.320 -13.651   2.996  1.00  0.00     0.030 A 
HETATM    9  C   UNL     1      41.340 -13.124   1.699  1.00  0.00     0.010 A 
HETATM   10  C   UNL     1      40.452 -13.591   0.723  1.00  0.00    -0.051 A 
HETATM   11  C   UNL     1      39.543 -14.597   1.067  1.00  0.00     0.010 A 
HETATM   12  C   UNL     1      39.517 -15.109   2.367  1.00  0.00     0.030 A 
BRANCH  10  13
HETATM   13  C   UNL     1      40.524 -13.069  -0.695  1.00  0.00     0.118 C 
BRANCH  13  14
HETATM   14  C   UNL     1      40.455 -14.123  -1.750  1.00  0.00     0.126 A 
HETATM   15  N   UNL     1      41.517 -14.888  -2.150  1.00  0.00    -0.263 N 
HETATM   16  N   UNL     1      41.168 -15.745  -3.122  1.00  0.00    -0.158 NA
HETATM   17  H   UNL     1      42.475 -14.873  -1.817  1.00  0.00     0.190 HD
HETATM   18  C   UNL     1      39.870 -15.463  -3.275  1.00  0.00     0.144 A 
HETATM   19  C   UNL     1      39.012 -16.164  -4.249  1.00  0.00     0.095 C 
HETATM   20  N   UNL     1      39.397 -14.475  -2.451  1.00  0.00    -0.217 NA
ENDBRANCH  13  14
ENDBRANCH  10  13
ENDBRANCH   1   7
BRANCH   3  21
HETATM   21  C   UNL     1      42.540 -18.153   4.962  1.00  0.00     0.131 C 
BRANCH  21  22
HETATM   22  C   UNL     1      44.068 -18.098   5.135  1.00  0.00     0.033 C 
BRANCH  22  23
HETATM   23  C   UNL     1      44.473 -17.389   6.436  1.00  0.00     0.170 C 
BRANCH  23  24
HETATM   24  O   UNL     1      44.215 -15.992   6.330  1.00  0.00    -0.400 OA
HETATM   25  H   UNL     1      43.272 -15.853   6.525  1.00  0.00     0.209 HD
ENDBRANCH  23  24
ENDBRANCH  22  23
BRANCH  22  26
HETATM   26  C   UNL     1      44.678 -19.518   5.116  1.00  0.00     0.073 C 
BRANCH  26  27
HETATM   27  C   UNL     1      44.445 -20.252   3.844  1.00  0.00     0.053 A 
HETATM   28  O   UNL     1      44.637 -21.601   3.872  1.00  0.00    -0.327 OA
HETATM   29  C   UNL     1      44.369 -22.064   2.625  1.00  0.00     0.142 A 
HETATM   30  C   UNL     1      44.012 -21.029   1.793  1.00  0.00     0.027 A 
HETATM   31  C   UNL     1      44.058 -19.855   2.582  1.00  0.00     0.034 A 
ENDBRANCH  26  27
ENDBRANCH  22  26
ENDBRANCH  21  22
ENDBRANCH   3  21
TORSDOF 9
ENDMDL
