MODEL 1
REMARK VINA RESULT:      -6.8      0.000      0.000
REMARK  2 active torsions:
REMARK  status: ('A' for Active; 'I' for Inactive)
REMARK    1  A    between atoms: N_6  and  C_7 
REMARK    2  A    between atoms: C_8  and  N_9 
ROOT
HETATM    1  C   UNL     1      43.258 -17.929   4.677  1.00  0.00     0.066 A 
HETATM    2  C   UNL     1      42.780 -18.074   3.352  1.00  0.00     0.130 A 
HETATM    3  C   UNL     1      43.110 -19.162   2.527  1.00  0.00     0.060 A 
HETATM    4  C   UNL     1      43.961 -20.142   3.020  1.00  0.00     0.052 A 
HETATM    5 BR   UNL     1      44.413 -21.621   1.938  1.00  0.00    -0.048 Br
HETATM    6  C   UNL     1      44.474 -20.021   4.307  1.00  0.00     0.136 A 
HETATM    7  F   UNL     1      45.296 -20.952   4.812  1.00  0.00    -0.205 F 
HETATM    8  C   UNL     1      44.134 -18.933   5.119  1.00  0.00     0.075 A 
ENDROOT
BRANCH   1   9
HETATM    9  N   UNL     1      42.900 -16.902   5.536  1.00  0.00    -0.376 N 
HETATM   10  C   UNL     1      41.750 -17.028   6.445  1.00  0.00     0.150 C 
HETATM   11  C   UNL     1      40.683 -15.959   6.128  1.00  0.00     0.254 C 
HETATM   12  N   UNL     1      41.310 -14.565   6.112  1.00  0.00    -0.072 N 
HETATM   13  C   UNL     1      40.291 -13.498   5.843  1.00  0.00     0.269 C 
HETATM   14  H   UNL     1      41.696 -14.396   7.050  1.00  0.00     0.279 HD
HETATM   15  C   UNL     1      42.479 -14.493   5.130  1.00  0.00     0.254 C 
HETATM   16  C   UNL     1      43.535 -15.575   5.448  1.00  0.00     0.150 C 
ENDBRANCH   1   9
BRANCH   2  17
HETATM   17  N   UNL     1      41.951 -17.043   2.760  1.00  0.00    -0.113 N 
HETATM   18  O   UNL     1      40.728 -17.126   2.929  1.00  0.00    -0.532 OA
HETATM   19  O   UNL     1      42.534 -16.176   2.098  1.00  0.00    -0.532 OA
ENDBRANCH   2  17
TORSDOF 2
ENDMDL
MODEL 2
REMARK VINA RESULT:      -6.7      2.440      2.843
REMARK  2 active torsions:
REMARK  status: ('A' for Active; 'I' for Inactive)
REMARK    1  A    between atoms: N_6  and  C_7 
REMARK    2  A    between atoms: C_8  and  N_9 
ROOT
HETATM    1  C   UNL     1      43.077 -17.723   4.955  1.00  0.00     0.066 A 
HETATM    2  C   UNL     1      44.006 -18.721   5.340  1.00  0.00     0.130 A 
HETATM    3  C   UNL     1      44.396 -19.778   4.502  1.00  0.00     0.060 A 
HETATM    4  C   UNL     1      43.836 -19.868   3.234  1.00  0.00     0.052 A 
HETATM    5 BR   UNL     1      44.349 -21.272   2.081  1.00  0.00    -0.048 Br
HETATM    6  C   UNL     1      42.899 -18.923   2.829  1.00  0.00     0.136 A 
HETATM    7  F   UNL     1      42.343 -18.982   1.610  1.00  0.00    -0.205 F 
HETATM    8  C   UNL     1      42.523 -17.873   3.674  1.00  0.00     0.075 A 
ENDROOT
BRANCH   1   9
HETATM    9  N   UNL     1      42.722 -16.633   5.734  1.00  0.00    -0.376 N 
HETATM   10  C   UNL     1      41.452 -16.602   6.476  1.00  0.00     0.150 C 
HETATM   11  C   UNL     1      40.564 -15.437   5.991  1.00  0.00     0.254 C 
HETATM   12  N   UNL     1      41.339 -14.119   6.034  1.00  0.00    -0.072 N 
HETATM   13  C   UNL     1      40.491 -12.960   5.603  1.00  0.00     0.269 C 
HETATM   14  H   UNL     1      41.610 -13.959   7.013  1.00  0.00     0.279 HD
HETATM   15  C   UNL     1      42.632 -14.210   5.223  1.00  0.00     0.254 C 
HETATM   16  C   UNL     1      43.507 -15.387   5.707  1.00  0.00     0.150 C 
ENDBRANCH   1   9
BRANCH   2  17
HETATM   17  N   UNL     1      44.563 -18.719   6.679  1.00  0.00    -0.113 N 
HETATM   18  O   UNL     1      43.942 -19.331   7.557  1.00  0.00    -0.532 OA
HETATM   19  O   UNL     1      45.603 -18.070   6.845  1.00  0.00    -0.532 OA
ENDBRANCH   2  17
TORSDOF 2
ENDMDL
MODEL 3
REMARK VINA RESULT:      -6.3      2.446      3.224
REMARK  2 active torsions:
REMARK  status: ('A' for Active; 'I' for Inactive)
REMARK    1  A    between atoms: N_6  and  C_7 
REMARK    2  A    between atoms: C_8  and  N_9 
ROOT
HETATM    1  C   UNL     1      43.326 -18.595   2.854  1.00  0.00     0.066 A 
HETATM    2  C   UNL     1      43.457 -18.683   4.262  1.00  0.00     0.130 A 
HETATM    3  C   UNL     1      44.032 -19.784   4.917  1.00  0.00     0.060 A 
HETATM    4  C   UNL     1      44.484 -20.854   4.156  1.00  0.00     0.052 A 
HETATM    5 BR   UNL     1      45.272 -22.342   5.008  1.00  0.00    -0.048 Br
HETATM    6  C   UNL     1      44.348 -20.817   2.773  1.00  0.00     0.136 A 
HETATM    7  F   UNL     1      44.777 -21.835   2.011  1.00  0.00    -0.205 F 
HETATM    8  C   UNL     1      43.776 -19.713   2.133  1.00  0.00     0.075 A 
ENDROOT
BRANCH   1   9
HETATM    9  N   UNL     1      42.822 -17.497   2.176  1.00  0.00    -0.376 N 
HETATM   10  C   UNL     1      43.626 -16.280   1.982  1.00  0.00     0.150 C 
HETATM   11  C   UNL     1      42.957 -15.068   2.663  1.00  0.00     0.254 C 
HETATM   12  N   UNL     1      41.504 -14.930   2.204  1.00  0.00    -0.072 N 
HETATM   13  C   UNL     1      40.835 -13.738   2.820  1.00  0.00     0.269 C 
HETATM   14  H   UNL     1      41.521 -14.785   1.186  1.00  0.00     0.279 HD
HETATM   15  C   UNL     1      40.718 -16.216   2.457  1.00  0.00     0.254 C 
HETATM   16  C   UNL     1      41.404 -17.425   1.784  1.00  0.00     0.150 C 
ENDBRANCH   1   9
BRANCH   2  17
HETATM   17  N   UNL     1      42.933 -17.629   5.108  1.00  0.00    -0.113 N 
HETATM   18  O   UNL     1      41.719 -17.639   5.349  1.00  0.00    -0.532 OA
HETATM   19  O   UNL     1      43.741 -16.776   5.495  1.00  0.00    -0.532 OA
ENDBRANCH   2  17
TORSDOF 2
ENDMDL
MODEL 4
REMARK VINA RESULT:      -6.2      2.260      3.074
REMARK  2 active torsions:
REMARK  status: ('A' for Active; 'I' for Inactive)
REMARK    1  A    between atoms: N_6  and  C_7 
REMARK    2  A    between atoms: C_8  and  N_9 
ROOT
HETATM    1  C   UNL     1      43.020 -17.145   4.199  1.00  0.00     0.066 A 
HETATM    2  C   UNL     1      43.573 -17.598   5.422  1.00  0.00     0.130 A 
HETATM    3  C   UNL     1      44.169 -18.860   5.579  1.00  0.00     0.060 A 
HETATM    4  C   UNL     1      44.207 -19.722   4.491  1.00  0.00     0.052 A 
HETATM    5 BR   UNL     1      45.010 -21.421   4.670  1.00  0.00    -0.048 Br
HETATM    6  C   UNL     1      43.649 -19.324   3.281  1.00  0.00     0.136 A 
HETATM    7  F   UNL     1      43.673 -20.134   2.212  1.00  0.00    -0.205 F 
HETATM    8  C   UNL     1      43.063 -18.063   3.137  1.00  0.00     0.075 A 
ENDROOT
BRANCH   1   9
HETATM    9  N   UNL     1      42.485 -15.883   3.996  1.00  0.00    -0.376 N 
HETATM   10  C   UNL     1      43.336 -14.736   3.642  1.00  0.00     0.150 C 
HETATM   11  C   UNL     1      43.255 -13.640   4.725  1.00  0.00     0.254 C 
HETATM   12  N   UNL     1      41.797 -13.268   5.002  1.00  0.00    -0.072 N 
HETATM   13  C   UNL     1      41.685 -12.177   6.025  1.00  0.00     0.269 C 
HETATM   14  H   UNL     1      41.405 -12.910   4.121  1.00  0.00     0.279 HD
HETATM   15  C   UNL     1      40.975 -14.496   5.389  1.00  0.00     0.254 C 
HETATM   16  C   UNL     1      41.074 -15.592   4.306  1.00  0.00     0.150 C 
ENDBRANCH   1   9
BRANCH   2  17
HETATM   17  N   UNL     1      43.492 -16.770   6.609  1.00  0.00    -0.113 N 
HETATM   18  O   UNL     1      44.427 -15.989   6.827  1.00  0.00    -0.532 OA
HETATM   19  O   UNL     1      42.503 -16.937   7.334  1.00  0.00    -0.532 OA
ENDBRANCH   2  17
TORSDOF 2
ENDMDL
MODEL 5
REMARK VINA RESULT:      -6.1      1.665      2.317
REMARK  2 active torsions:
REMARK  status: ('A' for Active; 'I' for Inactive)
REMARK    1  A    between atoms: N_6  and  C_7 
REMARK    2  A    between atoms: C_8  and  N_9 
ROOT
HETATM    1  C   UNL     1      42.625 -16.784   3.354  1.00  0.00     0.066 A 
HETATM    2  C   UNL     1      42.340 -17.665   2.281  1.00  0.00     0.130 A 
HETATM    3  C   UNL     1      42.909 -18.943   2.159  1.00  0.00     0.060 A 
HETATM    4  C   UNL     1      43.812 -19.368   3.124  1.00  0.00     0.052 A 
HETATM    5 BR   UNL     1      44.586 -21.085   2.992  1.00  0.00    -0.048 Br
HETATM    6  C   UNL     1      44.140 -18.521   4.178  1.00  0.00     0.136 A 
HETATM    7  F   UNL     1      45.007 -18.905   5.126  1.00  0.00    -0.205 F 
HETATM    8  C   UNL     1      43.562 -17.252   4.289  1.00  0.00     0.075 A 
ENDROOT
BRANCH   1   9
HETATM    9  N   UNL     1      42.031 -15.546   3.536  1.00  0.00    -0.376 N 
HETATM   10  C   UNL     1      42.692 -14.306   3.101  1.00  0.00     0.150 C 
HETATM   11  C   UNL     1      42.963 -13.379   4.304  1.00  0.00     0.254 C 
HETATM   12  N   UNL     1      41.680 -13.149   5.103  1.00  0.00    -0.072 N 
HETATM   13  C   UNL     1      41.902 -12.221   6.260  1.00  0.00     0.269 C 
HETATM   14  H   UNL     1      41.006 -12.699   4.469  1.00  0.00     0.279 HD
HETATM   15  C   UNL     1      41.058 -14.472   5.548  1.00  0.00     0.254 C 
HETATM   16  C   UNL     1      40.804 -15.398   4.338  1.00  0.00     0.150 C 
ENDBRANCH   1   9
BRANCH   2  17
HETATM   17  N   UNL     1      41.464 -17.242   1.206  1.00  0.00    -0.113 N 
HETATM   18  O   UNL     1      41.988 -16.733   0.208  1.00  0.00    -0.532 OA
HETATM   19  O   UNL     1      40.249 -17.393   1.390  1.00  0.00    -0.532 OA
ENDBRANCH   2  17
TORSDOF 2
ENDMDL
MODEL 6
REMARK VINA RESULT:      -6.1      2.642      3.439
REMARK  2 active torsions:
REMARK  status: ('A' for Active; 'I' for Inactive)
REMARK    1  A    between atoms: N_6  and  C_7 
REMARK    2  A    between atoms: C_8  and  N_9 
ROOT
HETATM    1  C   UNL     1      43.240 -17.715   4.586  1.00  0.00     0.066 A 
HETATM    2  C   UNL     1      44.175 -18.688   5.018  1.00  0.00     0.130 A 
HETATM    3  C   UNL     1      44.504 -19.829   4.268  1.00  0.00     0.060 A 
HETATM    4  C   UNL     1      43.874 -20.032   3.047  1.00  0.00     0.052 A 
HETATM    5 BR   UNL     1      44.305 -21.552   2.013  1.00  0.00    -0.048 Br
HETATM    6  C   UNL     1      42.930 -19.114   2.601  1.00  0.00     0.136 A 
HETATM    7  F   UNL     1      42.307 -19.282   1.426  1.00  0.00    -0.205 F 
HETATM    8  C   UNL     1      42.615 -17.980   3.357  1.00  0.00     0.075 A 
ENDROOT
BRANCH   1   9
HETATM    9  N   UNL     1      42.943 -16.548   5.271  1.00  0.00    -0.376 N 
HETATM   10  C   UNL     1      43.193 -15.225   4.679  1.00  0.00     0.150 C 
HETATM   11  C   UNL     1      44.208 -14.430   5.525  1.00  0.00     0.254 C 
HETATM   12  N   UNL     1      43.764 -14.379   6.988  1.00  0.00    -0.072 N 
HETATM   13  C   UNL     1      44.712 -13.581   7.832  1.00  0.00     0.269 C 
HETATM   14  H   UNL     1      42.852 -13.904   7.010  1.00  0.00     0.279 HD
HETATM   15  C   UNL     1      43.548 -15.784   7.550  1.00  0.00     0.254 C 
HETATM   16  C   UNL     1      42.541 -16.576   6.688  1.00  0.00     0.150 C 
ENDBRANCH   1   9
BRANCH   2  17
HETATM   17  N   UNL     1      44.804 -18.565   6.318  1.00  0.00    -0.113 N 
HETATM   18  O   UNL     1      45.826 -17.871   6.396  1.00  0.00    -0.532 OA
HETATM   19  O   UNL     1      44.286 -19.198   7.246  1.00  0.00    -0.532 OA
ENDBRANCH   2  17
TORSDOF 2
ENDMDL
MODEL 7
REMARK VINA RESULT:      -6.1      2.112      2.496
REMARK  2 active torsions:
REMARK  status: ('A' for Active; 'I' for Inactive)
REMARK    1  A    between atoms: N_6  and  C_7 
REMARK    2  A    between atoms: C_8  and  N_9 
ROOT
HETATM    1  C   UNL     1      43.189 -17.594   4.439  1.00  0.00     0.066 A 
HETATM    2  C   UNL     1      43.596 -18.387   3.338  1.00  0.00     0.130 A 
HETATM    3  C   UNL     1      44.134 -19.677   3.472  1.00  0.00     0.060 A 
HETATM    4  C   UNL     1      44.294 -20.206   4.746  1.00  0.00     0.052 A 
HETATM    5 BR   UNL     1      45.004 -21.942   4.957  1.00  0.00    -0.048 Br
HETATM    6  C   UNL     1      43.932 -19.448   5.854  1.00  0.00     0.136 A 
HETATM    7  F   UNL     1      44.073 -19.932   7.097  1.00  0.00    -0.205 F 
HETATM    8  C   UNL     1      43.395 -18.165   5.706  1.00  0.00     0.075 A 
ENDROOT
BRANCH   1   9
HETATM    9  N   UNL     1      42.597 -16.346   4.336  1.00  0.00    -0.376 N 
HETATM   10  C   UNL     1      41.176 -16.197   3.985  1.00  0.00     0.150 C 
HETATM   11  C   UNL     1      41.017 -15.415   2.664  1.00  0.00     0.254 C 
HETATM   12  N   UNL     1      41.781 -14.092   2.730  1.00  0.00    -0.072 N 
HETATM   13  C   UNL     1      41.616 -13.290   1.474  1.00  0.00     0.269 C 
HETATM   14  H   UNL     1      41.374 -13.547   3.502  1.00  0.00     0.279 HD
HETATM   15  C   UNL     1      43.253 -14.317   3.072  1.00  0.00     0.254 C 
HETATM   16  C   UNL     1      43.401 -15.112   4.387  1.00  0.00     0.150 C 
ENDBRANCH   1   9
BRANCH   2  17
HETATM   17  N   UNL     1      43.523 -17.854   1.992  1.00  0.00    -0.113 N 
HETATM   18  O   UNL     1      44.464 -17.151   1.603  1.00  0.00    -0.532 OA
HETATM   19  O   UNL     1      42.500 -18.118   1.347  1.00  0.00    -0.532 OA
ENDBRANCH   2  17
TORSDOF 2
ENDMDL
MODEL 8
REMARK VINA RESULT:      -6.0      1.698      2.324
REMARK  2 active torsions:
REMARK  status: ('A' for Active; 'I' for Inactive)
REMARK    1  A    between atoms: N_6  and  C_7 
REMARK    2  A    between atoms: C_8  and  N_9 
ROOT
HETATM    1  C   UNL     1      43.157 -17.248   4.153  1.00  0.00     0.066 A 
HETATM    2  C   UNL     1      43.588 -18.110   3.114  1.00  0.00     0.130 A 
HETATM    3  C   UNL     1      44.111 -19.393   3.342  1.00  0.00     0.060 A 
HETATM    4  C   UNL     1      44.233 -19.843   4.650  1.00  0.00     0.052 A 
HETATM    5 BR   UNL     1      44.923 -21.567   4.986  1.00  0.00    -0.048 Br
HETATM    6  C   UNL     1      43.847 -19.016   5.699  1.00  0.00     0.136 A 
HETATM    7  F   UNL     1      43.950 -19.424   6.972  1.00  0.00    -0.205 F 
HETATM    8  C   UNL     1      43.324 -17.741   5.457  1.00  0.00     0.075 A 
ENDROOT
BRANCH   1   9
HETATM    9  N   UNL     1      42.577 -16.005   3.957  1.00  0.00    -0.376 N 
HETATM   10  C   UNL     1      43.366 -14.767   4.048  1.00  0.00     0.150 C 
HETATM   11  C   UNL     1      42.838 -13.864   5.182  1.00  0.00     0.254 C 
HETATM   12  N   UNL     1      41.335 -13.630   5.025  1.00  0.00    -0.072 N 
HETATM   13  C   UNL     1      40.797 -12.724   6.092  1.00  0.00     0.269 C 
HETATM   14  H   UNL     1      41.195 -13.161   4.120  1.00  0.00     0.279 HD
HETATM   15  C   UNL     1      40.571 -14.952   4.964  1.00  0.00     0.254 C 
HETATM   16  C   UNL     1      41.116 -15.854   3.835  1.00  0.00     0.150 C 
ENDBRANCH   1   9
BRANCH   2  17
HETATM   17  N   UNL     1      43.555 -17.661   1.736  1.00  0.00    -0.113 N 
HETATM   18  O   UNL     1      44.580 -17.139   1.280  1.00  0.00    -0.532 OA
HETATM   19  O   UNL     1      42.484 -17.803   1.132  1.00  0.00    -0.532 OA
ENDBRANCH   2  17
TORSDOF 2
ENDMDL
MODEL 9
REMARK VINA RESULT:      -6.0      2.720      3.184
REMARK  2 active torsions:
REMARK  status: ('A' for Active; 'I' for Inactive)
REMARK    1  A    between atoms: N_6  and  C_7 
REMARK    2  A    between atoms: C_8  and  N_9 
ROOT
HETATM    1  C   UNL     1      43.004 -17.026   4.267  1.00  0.00     0.066 A 
HETATM    2  C   UNL     1      43.632 -17.495   5.447  1.00  0.00     0.130 A 
HETATM    3  C   UNL     1      44.226 -18.763   5.554  1.00  0.00     0.060 A 
HETATM    4  C   UNL     1      44.186 -19.615   4.458  1.00  0.00     0.052 A 
HETATM    5 BR   UNL     1      44.986 -21.321   4.569  1.00  0.00    -0.048 Br
HETATM    6  C   UNL     1      43.554 -19.202   3.291  1.00  0.00     0.136 A 
HETATM    7  F   UNL     1      43.500 -20.002   2.216  1.00  0.00    -0.205 F 
HETATM    8  C   UNL     1      42.969 -17.935   3.197  1.00  0.00     0.075 A 
ENDROOT
BRANCH   1   9
HETATM    9  N   UNL     1      42.467 -15.758   4.110  1.00  0.00    -0.376 N 
HETATM   10  C   UNL     1      41.062 -15.473   4.441  1.00  0.00     0.150 C 
HETATM   11  C   UNL     1      40.290 -15.003   3.191  1.00  0.00     0.254 C 
HETATM   12  N   UNL     1      41.017 -13.837   2.519  1.00  0.00    -0.072 N 
HETATM   13  C   UNL     1      40.272 -13.332   1.320  1.00  0.00     0.269 C 
HETATM   14  H   UNL     1      41.058 -13.072   3.205  1.00  0.00     0.279 HD
HETATM   15  C   UNL     1      42.460 -14.206   2.177  1.00  0.00     0.254 C 
HETATM   16  C   UNL     1      43.220 -14.688   3.433  1.00  0.00     0.150 C 
ENDBRANCH   1   9
BRANCH   2  17
HETATM   17  N   UNL     1      43.636 -16.676   6.644  1.00  0.00    -0.113 N 
HETATM   18  O   UNL     1      42.694 -16.816   7.435  1.00  0.00    -0.532 OA
HETATM   19  O   UNL     1      44.568 -15.871   6.762  1.00  0.00    -0.532 OA
ENDBRANCH   2  17
TORSDOF 2
ENDMDL
MODEL 10
REMARK VINA RESULT:      -6.0      3.059      3.685
REMARK  2 active torsions:
REMARK  status: ('A' for Active; 'I' for Inactive)
REMARK    1  A    between atoms: N_6  and  C_7 
REMARK    2  A    between atoms: C_8  and  N_9 
ROOT
HETATM    1  C   UNL     1      42.462 -16.782   3.367  1.00  0.00     0.066 A 
HETATM    2  C   UNL     1      43.112 -16.951   4.614  1.00  0.00     0.130 A 
HETATM    3  C   UNL     1      43.849 -18.098   4.951  1.00  0.00     0.060 A 
HETATM    4  C   UNL     1      43.938 -19.132   4.028  1.00  0.00     0.052 A 
HETATM    5 BR   UNL     1      44.930 -20.681   4.449  1.00  0.00    -0.048 Br
HETATM    6  C   UNL     1      43.290 -19.015   2.803  1.00  0.00     0.136 A 
HETATM    7  F   UNL     1      43.358 -19.996   1.891  1.00  0.00    -0.205 F 
HETATM    8  C   UNL     1      42.562 -17.865   2.480  1.00  0.00     0.075 A 
ENDROOT
BRANCH   1   9
HETATM    9  N   UNL     1      41.782 -15.637   2.981  1.00  0.00    -0.376 N 
HETATM   10  C   UNL     1      40.341 -15.480   3.227  1.00  0.00     0.150 C 
HETATM   11  C   UNL     1      39.572 -15.331   1.898  1.00  0.00     0.254 C 
HETATM   12  N   UNL     1      40.180 -14.213   1.050  1.00  0.00    -0.072 N 
HETATM   13  C   UNL     1      39.431 -14.018  -0.234  1.00  0.00     0.269 C 
HETATM   14  H   UNL     1      40.099 -13.344   1.593  1.00  0.00     0.279 HD
HETATM   15  C   UNL     1      41.670 -14.450   0.808  1.00  0.00     0.254 C 
HETATM   16  C   UNL     1      42.429 -14.611   2.144  1.00  0.00     0.150 C 
ENDBRANCH   1   9
BRANCH   2  17
HETATM   17  N   UNL     1      42.989 -15.937   5.642  1.00  0.00    -0.113 N 
HETATM   18  O   UNL     1      43.833 -15.032   5.658  1.00  0.00    -0.532 OA
HETATM   19  O   UNL     1      42.063 -16.078   6.451  1.00  0.00    -0.532 OA
ENDBRANCH   2  17
TORSDOF 2
ENDMDL
