MODEL 1
REMARK VINA RESULT:      -8.8      0.000      0.000
REMARK  3 active torsions:
REMARK  status: ('A' for Active; 'I' for Inactive)
REMARK    1  A    between atoms: C_2  and  N_3 
REMARK       I    between atoms: N_3  and  C_4 
REMARK    2  A    between atoms: C_4  and  C_5 
REMARK    3  A    between atoms: C_22  and  C_23 
REMARK       I    between atoms: C_23  and  N_24 
ROOT
HETATM    1  C   UNL     1      43.484 -18.066   3.187  1.00  0.00     0.109 A 
HETATM    2  C   UNL     1      43.700 -18.191   4.563  1.00  0.00     0.136 A 
HETATM    3  F   UNL     1      43.427 -17.177   5.399  1.00  0.00    -0.205 F 
HETATM    4  C   UNL     1      44.207 -19.364   5.127  1.00  0.00     0.066 A 
HETATM    5  C   UNL     1      44.511 -20.454   4.311  1.00  0.00     0.050 A 
HETATM    6  C   UNL     1      45.036 -21.660   4.879  1.00  0.00     0.099 C 
HETATM    7  N   UNL     1      45.463 -22.634   5.343  1.00  0.00    -0.191 NA
HETATM    8  C   UNL     1      44.301 -20.354   2.936  1.00  0.00     0.066 A 
HETATM    9  C   UNL     1      43.793 -19.173   2.387  1.00  0.00     0.136 A 
HETATM   10  F   UNL     1      43.628 -19.150   1.058  1.00  0.00    -0.205 F 
ENDROOT
BRANCH   1  11
HETATM   11  C   UNL     1      42.953 -16.816   2.561  1.00  0.00     0.262 C 
HETATM   12  N   UNL     1      41.673 -16.884   2.033  1.00  0.00    -0.323 N 
HETATM   13  H   UNL     1      41.200 -17.780   2.067  1.00  0.00     0.169 HD
HETATM   14  O   UNL     1      43.664 -15.818   2.549  1.00  0.00    -0.267 OA
BRANCH  12  15
HETATM   15  C   UNL     1      40.925 -15.843   1.438  1.00  0.00     0.036 A 
HETATM   16  C   UNL     1      39.888 -15.160   2.075  1.00  0.00     0.032 A 
HETATM   17  C   UNL     1      39.167 -14.144   1.429  1.00  0.00     0.034 A 
HETATM   18  C   UNL     1      39.527 -13.839   0.115  1.00  0.00     0.063 A 
HETATM   19  C   UNL     1      40.552 -14.491  -0.556  1.00  0.00     0.030 A 
HETATM   20  N   UNL     1      39.034 -12.926  -0.775  1.00  0.00    -0.277 N 
HETATM   21  C   UNL     1      41.262 -15.508   0.114  1.00  0.00     0.046 A 
HETATM   22  C   UNL     1      40.593 -13.886  -1.847  1.00  0.00     0.156 A 
HETATM   23  N   UNL     1      39.651 -12.924  -1.969  1.00  0.00    -0.168 NA
HETATM   24  H   UNL     1      38.273 -12.273  -0.625  1.00  0.00     0.189 HD
BRANCH  22  25
HETATM   25  C   UNL     1      41.506 -14.212  -2.950  1.00  0.00     0.270 C 
HETATM   26  N   UNL     1      42.698 -13.543  -2.906  1.00  0.00    -0.365 N 
HETATM   27  H   UNL     1      42.863 -12.897  -2.144  1.00  0.00     0.159 HD
HETATM   28  H   UNL     1      43.392 -13.703  -3.619  1.00  0.00     0.159 HD
HETATM   29  O   UNL     1      41.254 -15.009  -3.848  1.00  0.00    -0.266 OA
ENDBRANCH  22  25
ENDBRANCH  12  15
ENDBRANCH   1  11
TORSDOF 3
ENDMDL
MODEL 2
REMARK VINA RESULT:      -8.8      0.096      1.658
REMARK  3 active torsions:
REMARK  status: ('A' for Active; 'I' for Inactive)
REMARK    1  A    between atoms: C_2  and  N_3 
REMARK       I    between atoms: N_3  and  C_4 
REMARK    2  A    between atoms: C_4  and  C_5 
REMARK    3  A    between atoms: C_22  and  C_23 
REMARK       I    between atoms: C_23  and  N_24 
ROOT
HETATM    1  C   UNL     1      43.492 -18.137   3.117  1.00  0.00     0.109 A 
HETATM    2  C   UNL     1      43.823 -19.252   2.340  1.00  0.00     0.136 A 
HETATM    3  F   UNL     1      43.665 -19.235   1.008  1.00  0.00    -0.205 F 
HETATM    4  C   UNL     1      44.328 -20.424   2.909  1.00  0.00     0.066 A 
HETATM    5  C   UNL     1      44.514 -20.504   4.288  1.00  0.00     0.050 A 
HETATM    6  C   UNL     1      45.026 -21.704   4.882  1.00  0.00     0.099 C 
HETATM    7  N   UNL     1      45.438 -22.678   5.357  1.00  0.00    -0.191 NA
HETATM    8  C   UNL     1      44.193 -19.404   5.084  1.00  0.00     0.066 A 
HETATM    9  C   UNL     1      43.689 -18.239   4.500  1.00  0.00     0.136 A 
HETATM   10  F   UNL     1      43.396 -17.229   5.330  1.00  0.00    -0.205 F 
ENDROOT
BRANCH   1  11
HETATM   11  C   UNL     1      42.940 -16.877   2.532  1.00  0.00     0.262 C 
HETATM   12  N   UNL     1      41.675 -16.958   1.970  1.00  0.00    -0.323 N 
HETATM   13  H   UNL     1      41.227 -17.868   1.954  1.00  0.00     0.169 HD
HETATM   14  O   UNL     1      43.620 -15.859   2.579  1.00  0.00    -0.267 OA
BRANCH  12  15
HETATM   15  C   UNL     1      40.911 -15.914   1.401  1.00  0.00     0.036 A 
HETATM   16  C   UNL     1      39.890 -15.236   2.069  1.00  0.00     0.032 A 
HETATM   17  C   UNL     1      39.151 -14.217   1.449  1.00  0.00     0.034 A 
HETATM   18  C   UNL     1      39.478 -13.903   0.128  1.00  0.00     0.063 A 
HETATM   19  C   UNL     1      40.485 -14.549  -0.573  1.00  0.00     0.030 A 
HETATM   20  N   UNL     1      38.961 -12.984  -0.743  1.00  0.00    -0.277 N 
HETATM   21  C   UNL     1      41.213 -15.570   0.071  1.00  0.00     0.046 A 
HETATM   22  C   UNL     1      40.492 -13.936  -1.861  1.00  0.00     0.156 A 
HETATM   23  N   UNL     1      39.547 -12.974  -1.952  1.00  0.00    -0.168 NA
HETATM   24  H   UNL     1      38.203 -12.333  -0.568  1.00  0.00     0.189 HD
BRANCH  22  25
HETATM   25  C   UNL     1      41.376 -14.254  -2.990  1.00  0.00     0.270 C 
HETATM   26  N   UNL     1      42.563 -13.573  -2.980  1.00  0.00    -0.365 N 
HETATM   27  H   UNL     1      42.743 -12.924  -2.224  1.00  0.00     0.159 HD
HETATM   28  H   UNL     1      43.237 -13.726  -3.713  1.00  0.00     0.159 HD
HETATM   29  O   UNL     1      41.106 -15.054  -3.880  1.00  0.00    -0.266 OA
ENDBRANCH  22  25
ENDBRANCH  12  15
ENDBRANCH   1  11
TORSDOF 3
ENDMDL
MODEL 3
REMARK VINA RESULT:      -8.3      3.346      4.966
REMARK  3 active torsions:
REMARK  status: ('A' for Active; 'I' for Inactive)
REMARK    1  A    between atoms: C_2  and  N_3 
REMARK       I    between atoms: N_3  and  C_4 
REMARK    2  A    between atoms: C_4  and  C_5 
REMARK    3  A    between atoms: C_22  and  C_23 
REMARK       I    between atoms: C_23  and  N_24 
ROOT
HETATM    1  C   UNL     1      42.891 -17.440   2.933  1.00  0.00     0.109 A 
HETATM    2  C   UNL     1      43.571 -18.010   4.015  1.00  0.00     0.136 A 
HETATM    3  F   UNL     1      43.789 -17.308   5.138  1.00  0.00    -0.205 F 
HETATM    4  C   UNL     1      44.051 -19.321   3.978  1.00  0.00     0.066 A 
HETATM    5  C   UNL     1      43.856 -20.101   2.839  1.00  0.00     0.050 A 
HETATM    6  C   UNL     1      44.350 -21.446   2.789  1.00  0.00     0.099 C 
HETATM    7  N   UNL     1      44.752 -22.533   2.753  1.00  0.00    -0.191 NA
HETATM    8  C   UNL     1      43.179 -19.557   1.747  1.00  0.00     0.066 A 
HETATM    9  C   UNL     1      42.705 -18.243   1.800  1.00  0.00     0.136 A 
HETATM   10  F   UNL     1      42.073 -17.788   0.711  1.00  0.00    -0.205 F 
ENDROOT
BRANCH   1  11
HETATM   11  C   UNL     1      42.379 -16.036   2.946  1.00  0.00     0.262 C 
HETATM   12  N   UNL     1      41.003 -15.880   3.013  1.00  0.00    -0.323 N 
HETATM   13  H   UNL     1      40.436 -16.721   3.005  1.00  0.00     0.169 HD
HETATM   14  O   UNL     1      43.186 -15.115   2.899  1.00  0.00    -0.267 OA
BRANCH  12  15
HETATM   15  C   UNL     1      40.270 -14.674   3.089  1.00  0.00     0.036 A 
HETATM   16  C   UNL     1      39.583 -14.104   2.016  1.00  0.00     0.032 A 
HETATM   17  C   UNL     1      38.884 -12.894   2.144  1.00  0.00     0.034 A 
HETATM   18  C   UNL     1      38.901 -12.276   3.396  1.00  0.00     0.063 A 
HETATM   19  C   UNL     1      39.568 -12.807   4.490  1.00  0.00     0.030 A 
HETATM   20  N   UNL     1      38.335 -11.115   3.844  1.00  0.00    -0.277 N 
HETATM   21  C   UNL     1      40.264 -14.023   4.336  1.00  0.00     0.046 A 
HETATM   22  C   UNL     1      39.334 -11.882   5.551  1.00  0.00     0.156 A 
HETATM   23  N   UNL     1      38.574 -10.843   5.139  1.00  0.00    -0.168 NA
HETATM   24  H   UNL     1      37.772 -10.462   3.310  1.00  0.00     0.189 HD
BRANCH  22  25
HETATM   25  C   UNL     1      39.823 -11.976   6.933  1.00  0.00     0.270 C 
HETATM   26  N   UNL     1      39.153 -12.887   7.702  1.00  0.00    -0.365 N 
HETATM   27  H   UNL     1      38.398 -13.415   7.281  1.00  0.00     0.159 HD
HETATM   28  H   UNL     1      39.418 -13.026   8.664  1.00  0.00     0.159 HD
HETATM   29  O   UNL     1      40.748 -11.312   7.389  1.00  0.00    -0.266 OA
ENDBRANCH  22  25
ENDBRANCH  12  15
ENDBRANCH   1  11
TORSDOF 3
ENDMDL
MODEL 4
REMARK VINA RESULT:      -8.2      3.345      5.216
REMARK  3 active torsions:
REMARK  status: ('A' for Active; 'I' for Inactive)
REMARK    1  A    between atoms: C_2  and  N_3 
REMARK       I    between atoms: N_3  and  C_4 
REMARK    2  A    between atoms: C_4  and  C_5 
REMARK    3  A    between atoms: C_22  and  C_23 
REMARK       I    between atoms: C_23  and  N_24 
ROOT
HETATM    1  C   UNL     1      42.885 -17.319   2.822  1.00  0.00     0.109 A 
HETATM    2  C   UNL     1      42.973 -18.030   1.621  1.00  0.00     0.136 A 
HETATM    3  F   UNL     1      42.595 -17.471   0.461  1.00  0.00    -0.205 F 
HETATM    4  C   UNL     1      43.451 -19.341   1.572  1.00  0.00     0.066 A 
HETATM    5  C   UNL     1      43.859 -19.977   2.744  1.00  0.00     0.050 A 
HETATM    6  C   UNL     1      44.346 -21.324   2.706  1.00  0.00     0.099 C 
HETATM    7  N   UNL     1      44.738 -22.415   2.670  1.00  0.00    -0.191 NA
HETATM    8  C   UNL     1      43.783 -19.288   3.955  1.00  0.00     0.066 A 
HETATM    9  C   UNL     1      43.302 -17.976   3.986  1.00  0.00     0.136 A 
HETATM   10  F   UNL     1      43.251 -17.383   5.186  1.00  0.00    -0.205 F 
ENDROOT
BRANCH   1  11
HETATM   11  C   UNL     1      42.366 -15.919   2.899  1.00  0.00     0.262 C 
HETATM   12  N   UNL     1      40.988 -15.768   2.878  1.00  0.00    -0.323 N 
HETATM   13  H   UNL     1      40.427 -16.607   2.771  1.00  0.00     0.169 HD
HETATM   14  O   UNL     1      43.169 -14.997   2.975  1.00  0.00    -0.267 OA
BRANCH  12  15
HETATM   15  C   UNL     1      40.245 -14.571   2.988  1.00  0.00     0.036 A 
HETATM   16  C   UNL     1      39.555 -13.976   1.930  1.00  0.00     0.032 A 
HETATM   17  C   UNL     1      38.846 -12.776   2.093  1.00  0.00     0.034 A 
HETATM   18  C   UNL     1      38.854 -12.195   3.362  1.00  0.00     0.063 A 
HETATM   19  C   UNL     1      39.523 -12.753   4.442  1.00  0.00     0.030 A 
HETATM   20  N   UNL     1      38.278 -11.053   3.843  1.00  0.00    -0.277 N 
HETATM   21  C   UNL     1      40.229 -13.958   4.254  1.00  0.00     0.046 A 
HETATM   22  C   UNL     1      39.279 -11.862   5.529  1.00  0.00     0.156 A 
HETATM   23  N   UNL     1      38.511 -10.818   5.146  1.00  0.00    -0.168 NA
HETATM   24  H   UNL     1      37.711 -10.389   3.327  1.00  0.00     0.189 HD
BRANCH  22  25
HETATM   25  C   UNL     1      39.765 -11.992   6.909  1.00  0.00     0.270 C 
HETATM   26  N   UNL     1      39.134 -12.965   7.635  1.00  0.00    -0.365 N 
HETATM   27  H   UNL     1      38.405 -13.507   7.187  1.00  0.00     0.159 HD
HETATM   28  H   UNL     1      39.400 -13.132   8.592  1.00  0.00     0.159 HD
HETATM   29  O   UNL     1      40.657 -11.307   7.399  1.00  0.00    -0.266 OA
ENDBRANCH  22  25
ENDBRANCH  12  15
ENDBRANCH   1  11
TORSDOF 3
ENDMDL
MODEL 5
REMARK VINA RESULT:      -8.1      1.771      2.759
REMARK  3 active torsions:
REMARK  status: ('A' for Active; 'I' for Inactive)
REMARK    1  A    between atoms: C_2  and  N_3 
REMARK       I    between atoms: N_3  and  C_4 
REMARK    2  A    between atoms: C_4  and  C_5 
REMARK    3  A    between atoms: C_22  and  C_23 
REMARK       I    between atoms: C_23  and  N_24 
ROOT
HETATM    1  C   UNL     1      42.362 -17.597   2.341  1.00  0.00     0.109 A 
HETATM    2  C   UNL     1      43.355 -18.339   1.693  1.00  0.00     0.136 A 
HETATM    3  F   UNL     1      43.596 -18.172   0.384  1.00  0.00    -0.205 F 
HETATM    4  C   UNL     1      44.133 -19.280   2.371  1.00  0.00     0.066 A 
HETATM    5  C   UNL     1      43.930 -19.499   3.733  1.00  0.00     0.050 A 
HETATM    6  C   UNL     1      44.720 -20.466   4.437  1.00  0.00     0.099 C 
HETATM    7  N   UNL     1      45.361 -21.251   5.001  1.00  0.00    -0.191 NA
HETATM    8  C   UNL     1      42.947 -18.770   4.402  1.00  0.00     0.066 A 
HETATM    9  C   UNL     1      42.177 -17.832   3.709  1.00  0.00     0.136 A 
HETATM   10  F   UNL     1      41.247 -17.177   4.417  1.00  0.00    -0.205 F 
ENDROOT
BRANCH   1  11
HETATM   11  C   UNL     1      41.509 -16.593   1.633  1.00  0.00     0.262 C 
HETATM   12  N   UNL     1      42.174 -15.630   0.890  1.00  0.00    -0.323 N 
HETATM   13  H   UNL     1      43.189 -15.643   0.908  1.00  0.00     0.169 HD
HETATM   14  O   UNL     1      40.291 -16.674   1.744  1.00  0.00    -0.267 OA
BRANCH  12  15
HETATM   15  C   UNL     1      41.611 -14.608   0.093  1.00  0.00     0.036 A 
HETATM   16  C   UNL     1      41.807 -13.244   0.314  1.00  0.00     0.032 A 
HETATM   17  C   UNL     1      41.209 -12.270  -0.501  1.00  0.00     0.034 A 
HETATM   18  C   UNL     1      40.405 -12.720  -1.550  1.00  0.00     0.063 A 
HETATM   19  C   UNL     1      40.185 -14.066  -1.808  1.00  0.00     0.030 A 
HETATM   20  N   UNL     1      39.694 -12.047  -2.504  1.00  0.00    -0.277 N 
HETATM   21  C   UNL     1      40.797 -15.025  -0.975  1.00  0.00     0.046 A 
HETATM   22  C   UNL     1      39.326 -14.089  -2.946  1.00  0.00     0.156 A 
HETATM   23  N   UNL     1      39.030 -12.838  -3.364  1.00  0.00    -0.168 NA
HETATM   24  H   UNL     1      39.621 -11.042  -2.619  1.00  0.00     0.189 HD
BRANCH  22  25
HETATM   25  C   UNL     1      38.790 -15.274  -3.629  1.00  0.00     0.270 C 
HETATM   26  N   UNL     1      37.516 -15.605  -3.259  1.00  0.00    -0.365 N 
HETATM   27  H   UNL     1      37.048 -15.031  -2.568  1.00  0.00     0.159 HD
HETATM   28  H   UNL     1      37.061 -16.402  -3.676  1.00  0.00     0.159 HD
HETATM   29  O   UNL     1      39.404 -15.932  -4.464  1.00  0.00    -0.266 OA
ENDBRANCH  22  25
ENDBRANCH  12  15
ENDBRANCH   1  11
TORSDOF 3
ENDMDL
MODEL 6
REMARK VINA RESULT:      -8.0      2.904      3.712
REMARK  3 active torsions:
REMARK  status: ('A' for Active; 'I' for Inactive)
REMARK    1  A    between atoms: C_2  and  N_3 
REMARK       I    between atoms: N_3  and  C_4 
REMARK    2  A    between atoms: C_4  and  C_5 
REMARK    3  A    between atoms: C_22  and  C_23 
REMARK       I    between atoms: C_23  and  N_24 
ROOT
HETATM    1  C   UNL     1      43.205 -17.697   3.338  1.00  0.00     0.109 A 
HETATM    2  C   UNL     1      44.046 -18.362   4.237  1.00  0.00     0.136 A 
HETATM    3  F   UNL     1      44.499 -17.746   5.340  1.00  0.00    -0.205 F 
HETATM    4  C   UNL     1      44.452 -19.682   4.030  1.00  0.00     0.066 A 
HETATM    5  C   UNL     1      44.016 -20.375   2.902  1.00  0.00     0.050 A 
HETATM    6  C   UNL     1      44.431 -21.729   2.678  1.00  0.00     0.099 C 
HETATM    7  N   UNL     1      44.771 -22.824   2.501  1.00  0.00    -0.191 NA
HETATM    8  C   UNL     1      43.175 -19.736   1.992  1.00  0.00     0.066 A 
HETATM    9  C   UNL     1      42.778 -18.414   2.213  1.00  0.00     0.136 A 
HETATM   10  F   UNL     1      41.977 -17.864   1.291  1.00  0.00    -0.205 F 
ENDROOT
BRANCH   1  11
HETATM   11  C   UNL     1      42.768 -16.281   3.533  1.00  0.00     0.262 C 
HETATM   12  N   UNL     1      41.506 -16.092   4.073  1.00  0.00    -0.323 N 
HETATM   13  H   UNL     1      40.948 -16.919   4.261  1.00  0.00     0.169 HD
HETATM   14  O   UNL     1      43.534 -15.380   3.211  1.00  0.00    -0.267 OA
BRANCH  12  15
HETATM   15  C   UNL     1      40.878 -14.870   4.404  1.00  0.00     0.036 A 
HETATM   16  C   UNL     1      40.895 -14.299   5.678  1.00  0.00     0.032 A 
HETATM   17  C   UNL     1      40.240 -13.089   5.954  1.00  0.00     0.034 A 
HETATM   18  C   UNL     1      39.566 -12.472   4.899  1.00  0.00     0.063 A 
HETATM   19  C   UNL     1      39.525 -13.001   3.617  1.00  0.00     0.030 A 
HETATM   20  N   UNL     1      38.843 -11.313   4.836  1.00  0.00    -0.277 N 
HETATM   21  C   UNL     1      40.190 -14.218   3.365  1.00  0.00     0.046 A 
HETATM   22  C   UNL     1      38.750 -12.075   2.858  1.00  0.00     0.156 A 
HETATM   23  N   UNL     1      38.335 -11.039   3.622  1.00  0.00    -0.168 NA
HETATM   24  H   UNL     1      38.659 -10.664   5.592  1.00  0.00     0.189 HD
BRANCH  22  25
HETATM   25  C   UNL     1      38.405 -12.166   1.433  1.00  0.00     0.270 C 
HETATM   26  N   UNL     1      39.405 -11.766   0.589  1.00  0.00    -0.365 N 
HETATM   27  H   UNL     1      40.280 -11.449   0.989  1.00  0.00     0.159 HD
HETATM   28  H   UNL     1      39.264 -11.795  -0.408  1.00  0.00     0.159 HD
HETATM   29  O   UNL     1      37.326 -12.561   1.004  1.00  0.00    -0.266 OA
ENDBRANCH  22  25
ENDBRANCH  12  15
ENDBRANCH   1  11
TORSDOF 3
ENDMDL
MODEL 7
REMARK VINA RESULT:      -8.0      3.006      4.002
REMARK  3 active torsions:
REMARK  status: ('A' for Active; 'I' for Inactive)
REMARK    1  A    between atoms: C_2  and  N_3 
REMARK       I    between atoms: N_3  and  C_4 
REMARK    2  A    between atoms: C_4  and  C_5 
REMARK    3  A    between atoms: C_22  and  C_23 
REMARK       I    between atoms: C_23  and  N_24 
ROOT
HETATM    1  C   UNL     1      43.129 -17.659   3.179  1.00  0.00     0.109 A 
HETATM    2  C   UNL     1      42.719 -18.389   2.058  1.00  0.00     0.136 A 
HETATM    3  F   UNL     1      41.902 -17.845   1.143  1.00  0.00    -0.205 F 
HETATM    4  C   UNL     1      43.133 -19.705   1.843  1.00  0.00     0.066 A 
HETATM    5  C   UNL     1      43.981 -20.326   2.758  1.00  0.00     0.050 A 
HETATM    6  C   UNL     1      44.408 -21.678   2.548  1.00  0.00     0.099 C 
HETATM    7  N   UNL     1      44.749 -22.773   2.375  1.00  0.00    -0.191 NA
HETATM    8  C   UNL     1      44.407 -19.619   3.882  1.00  0.00     0.066 A 
HETATM    9  C   UNL     1      43.983 -18.302   4.084  1.00  0.00     0.136 A 
HETATM   10  F   UNL     1      44.426 -17.690   5.190  1.00  0.00    -0.205 F 
ENDROOT
BRANCH   1  11
HETATM   11  C   UNL     1      42.689 -16.253   3.436  1.00  0.00     0.262 C 
HETATM   12  N   UNL     1      41.394 -16.086   3.902  1.00  0.00    -0.323 N 
HETATM   13  H   UNL     1      40.820 -16.917   3.998  1.00  0.00     0.169 HD
HETATM   14  O   UNL     1      43.480 -15.342   3.226  1.00  0.00    -0.267 OA
BRANCH  12  15
HETATM   15  C   UNL     1      40.754 -14.881   4.269  1.00  0.00     0.036 A 
HETATM   16  C   UNL     1      40.683 -14.398   5.577  1.00  0.00     0.032 A 
HETATM   17  C   UNL     1      40.018 -13.201   5.887  1.00  0.00     0.034 A 
HETATM   18  C   UNL     1      39.427 -12.506   4.831  1.00  0.00     0.063 A 
HETATM   19  C   UNL     1      39.474 -12.948   3.517  1.00  0.00     0.030 A 
HETATM   20  N   UNL     1      38.719 -11.337   4.795  1.00  0.00    -0.277 N 
HETATM   21  C   UNL     1      40.147 -14.153   3.230  1.00  0.00     0.046 A 
HETATM   22  C   UNL     1      38.764 -11.963   2.769  1.00  0.00     0.156 A 
HETATM   23  N   UNL     1      38.302 -10.976   3.569  1.00  0.00    -0.168 NA
HETATM   24  H   UNL     1      38.486 -10.737   5.579  1.00  0.00     0.189 HD
BRANCH  22  25
HETATM   25  C   UNL     1      38.522 -11.954   1.320  1.00  0.00     0.270 C 
HETATM   26  N   UNL     1      37.464 -12.726   0.924  1.00  0.00    -0.365 N 
HETATM   27  H   UNL     1      36.941 -13.229   1.630  1.00  0.00     0.159 HD
HETATM   28  H   UNL     1      37.217 -12.780  -0.051  1.00  0.00     0.159 HD
HETATM   29  O   UNL     1      39.189 -11.320   0.508  1.00  0.00    -0.266 OA
ENDBRANCH  22  25
ENDBRANCH  12  15
ENDBRANCH   1  11
TORSDOF 3
ENDMDL
MODEL 8
REMARK VINA RESULT:      -7.8      2.530      3.936
REMARK  3 active torsions:
REMARK  status: ('A' for Active; 'I' for Inactive)
REMARK    1  A    between atoms: C_2  and  N_3 
REMARK       I    between atoms: N_3  and  C_4 
REMARK    2  A    between atoms: C_4  and  C_5 
REMARK    3  A    between atoms: C_22  and  C_23 
REMARK       I    between atoms: C_23  and  N_24 
ROOT
HETATM    1  C   UNL     1      43.360 -17.891   3.392  1.00  0.00     0.109 A 
HETATM    2  C   UNL     1      43.520 -18.143   4.758  1.00  0.00     0.136 A 
HETATM    3  F   UNL     1      43.158 -17.232   5.674  1.00  0.00    -0.205 F 
HETATM    4  C   UNL     1      44.062 -19.342   5.228  1.00  0.00     0.066 A 
HETATM    5  C   UNL     1      44.459 -20.328   4.326  1.00  0.00     0.050 A 
HETATM    6  C   UNL     1      45.020 -21.559   4.798  1.00  0.00     0.099 C 
HETATM    7  N   UNL     1      45.475 -22.553   5.186  1.00  0.00    -0.191 NA
HETATM    8  C   UNL     1      44.306 -20.100   2.958  1.00  0.00     0.066 A 
HETATM    9  C   UNL     1      43.763 -18.895   2.503  1.00  0.00     0.136 A 
HETATM   10  F   UNL     1      43.656 -18.747   1.176  1.00  0.00    -0.205 F 
ENDROOT
BRANCH   1  11
HETATM   11  C   UNL     1      42.794 -16.610   2.865  1.00  0.00     0.262 C 
HETATM   12  N   UNL     1      41.412 -16.507   2.847  1.00  0.00    -0.323 N 
HETATM   13  H   UNL     1      40.877 -17.314   3.150  1.00  0.00     0.169 HD
HETATM   14  O   UNL     1      43.566 -15.739   2.486  1.00  0.00    -0.267 OA
BRANCH  12  15
HETATM   15  C   UNL     1      40.631 -15.397   2.451  1.00  0.00     0.036 A 
HETATM   16  C   UNL     1      40.160 -15.193   1.153  1.00  0.00     0.032 A 
HETATM   17  C   UNL     1      39.401 -14.063   0.812  1.00  0.00     0.034 A 
HETATM   18  C   UNL     1      39.132 -13.143   1.826  1.00  0.00     0.063 A 
HETATM   19  C   UNL     1      39.578 -13.306   3.130  1.00  0.00     0.030 A 
HETATM   20  N   UNL     1      38.439 -11.965   1.825  1.00  0.00    -0.277 N 
HETATM   21  C   UNL     1      40.339 -14.450   3.448  1.00  0.00     0.046 A 
HETATM   22  C   UNL     1      39.092 -12.165   3.833  1.00  0.00     0.156 A 
HETATM   23  N   UNL     1      38.392 -11.345   3.017  1.00  0.00    -0.168 NA
HETATM   24  H   UNL     1      37.974 -11.528   1.037  1.00  0.00     0.189 HD
BRANCH  22  25
HETATM   25  C   UNL     1      39.285 -11.851   5.255  1.00  0.00     0.270 C 
HETATM   26  N   UNL     1      40.136 -10.805   5.486  1.00  0.00    -0.365 N 
HETATM   27  H   UNL     1      40.556 -10.338   4.692  1.00  0.00     0.159 HD
HETATM   28  H   UNL     1      40.329 -10.513   6.431  1.00  0.00     0.159 HD
HETATM   29  O   UNL     1      38.745 -12.452   6.179  1.00  0.00    -0.266 OA
ENDBRANCH  22  25
ENDBRANCH  12  15
ENDBRANCH   1  11
TORSDOF 3
ENDMDL
MODEL 9
REMARK VINA RESULT:      -7.6      1.988      2.378
REMARK  3 active torsions:
REMARK  status: ('A' for Active; 'I' for Inactive)
REMARK    1  A    between atoms: C_2  and  N_3 
REMARK       I    between atoms: N_3  and  C_4 
REMARK    2  A    between atoms: C_4  and  C_5 
REMARK    3  A    between atoms: C_22  and  C_23 
REMARK       I    between atoms: C_23  and  N_24 
ROOT
HETATM    1  C   UNL     1      41.856 -16.173   4.128  1.00  0.00     0.109 A 
HETATM    2  C   UNL     1      41.512 -16.089   5.481  1.00  0.00     0.136 A 
HETATM    3  F   UNL     1      40.674 -15.138   5.921  1.00  0.00    -0.205 F 
HETATM    4  C   UNL     1      42.020 -16.981   6.428  1.00  0.00     0.066 A 
HETATM    5  C   UNL     1      42.896 -17.992   6.033  1.00  0.00     0.050 A 
HETATM    6  C   UNL     1      43.426 -18.909   6.998  1.00  0.00     0.099 C 
HETATM    7  N   UNL     1      43.855 -19.647   7.783  1.00  0.00    -0.191 NA
HETATM    8  C   UNL     1      43.252 -18.097   4.689  1.00  0.00     0.066 A 
HETATM    9  C   UNL     1      42.735 -17.196   3.753  1.00  0.00     0.136 A 
HETATM   10  F   UNL     1      43.131 -17.356   2.483  1.00  0.00    -0.205 F 
ENDROOT
BRANCH   1  11
HETATM   11  C   UNL     1      41.334 -15.222   3.099  1.00  0.00     0.262 C 
HETATM   12  N   UNL     1      40.371 -15.716   2.233  1.00  0.00    -0.323 N 
HETATM   13  H   UNL     1      40.115 -16.693   2.325  1.00  0.00     0.169 HD
HETATM   14  O   UNL     1      41.776 -14.079   3.076  1.00  0.00    -0.267 OA
BRANCH  12  15
HETATM   15  C   UNL     1      39.683 -15.019   1.213  1.00  0.00     0.036 A 
HETATM   16  C   UNL     1      38.408 -14.471   1.361  1.00  0.00     0.032 A 
HETATM   17  C   UNL     1      37.764 -13.803   0.308  1.00  0.00     0.034 A 
HETATM   18  C   UNL     1      38.453 -13.705  -0.903  1.00  0.00     0.063 A 
HETATM   19  C   UNL     1      39.722 -14.232  -1.094  1.00  0.00     0.030 A 
HETATM   20  N   UNL     1      38.114 -13.133  -2.098  1.00  0.00    -0.277 N 
HETATM   21  C   UNL     1      40.347 -14.900  -0.021  1.00  0.00     0.046 A 
HETATM   22  C   UNL     1      40.055 -13.917  -2.444  1.00  0.00     0.156 A 
HETATM   23  N   UNL     1      39.055 -13.240  -3.052  1.00  0.00    -0.168 NA
HETATM   24  H   UNL     1      37.250 -12.653  -2.324  1.00  0.00     0.189 HD
BRANCH  22  25
HETATM   25  C   UNL     1      41.299 -14.250  -3.152  1.00  0.00     0.270 C 
HETATM   26  N   UNL     1      42.132 -13.183  -3.350  1.00  0.00    -0.365 N 
HETATM   27  H   UNL     1      41.846 -12.274  -3.007  1.00  0.00     0.159 HD
HETATM   28  H   UNL     1      43.012 -13.313  -3.824  1.00  0.00     0.159 HD
HETATM   29  O   UNL     1      41.595 -15.374  -3.543  1.00  0.00    -0.266 OA
ENDBRANCH  22  25
ENDBRANCH  12  15
ENDBRANCH   1  11
TORSDOF 3
ENDMDL
MODEL 10
REMARK VINA RESULT:      -7.6      2.798      8.594
REMARK  3 active torsions:
REMARK  status: ('A' for Active; 'I' for Inactive)
REMARK    1  A    between atoms: C_2  and  N_3 
REMARK       I    between atoms: N_3  and  C_4 
REMARK    2  A    between atoms: C_4  and  C_5 
REMARK    3  A    between atoms: C_22  and  C_23 
REMARK       I    between atoms: C_23  and  N_24 
ROOT
HETATM    1  C   UNL     1      40.597 -14.940   0.178  1.00  0.00     0.109 A 
HETATM    2  C   UNL     1      40.700 -15.091  -1.208  1.00  0.00     0.136 A 
HETATM    3  F   UNL     1      41.700 -15.802  -1.752  1.00  0.00    -0.205 F 
HETATM    4  C   UNL     1      39.778 -14.513  -2.084  1.00  0.00     0.066 A 
HETATM    5  C   UNL     1      38.717 -13.762  -1.581  1.00  0.00     0.050 A 
HETATM    6  C   UNL     1      37.768 -13.161  -2.471  1.00  0.00     0.099 C 
HETATM    7  N   UNL     1      37.004 -12.675  -3.196  1.00  0.00    -0.191 NA
HETATM    8  C   UNL     1      38.591 -13.599  -0.201  1.00  0.00     0.066 A 
HETATM    9  C   UNL     1      39.523 -14.183   0.662  1.00  0.00     0.136 A 
HETATM   10  F   UNL     1      39.341 -13.975   1.973  1.00  0.00    -0.205 F 
ENDROOT
BRANCH   1  11
HETATM   11  C   UNL     1      41.580 -15.539   1.134  1.00  0.00     0.262 C 
HETATM   12  N   UNL     1      41.420 -16.885   1.421  1.00  0.00    -0.323 N 
HETATM   13  H   UNL     1      40.630 -17.364   1.001  1.00  0.00     0.169 HD
HETATM   14  O   UNL     1      42.456 -14.822   1.602  1.00  0.00    -0.267 OA
BRANCH  12  15
HETATM   15  C   UNL     1      42.233 -17.699   2.242  1.00  0.00     0.036 A 
HETATM   16  C   UNL     1      43.083 -18.697   1.762  1.00  0.00     0.032 A 
HETATM   17  C   UNL     1      43.857 -19.487   2.626  1.00  0.00     0.034 A 
HETATM   18  C   UNL     1      43.746 -19.235   3.995  1.00  0.00     0.063 A 
HETATM   19  C   UNL     1      42.916 -18.252   4.516  1.00  0.00     0.030 A 
HETATM   20  N   UNL     1      44.347 -19.814   5.077  1.00  0.00    -0.277 N 
HETATM   21  C   UNL     1      42.148 -17.472   3.628  1.00  0.00     0.046 A 
HETATM   22  C   UNL     1      43.099 -18.324   5.928  1.00  0.00     0.156 A 
HETATM   23  N   UNL     1      43.983 -19.291   6.261  1.00  0.00    -0.168 NA
HETATM   24  H   UNL     1      45.018 -20.574   5.072  1.00  0.00     0.189 HD
BRANCH  22  25
HETATM   25  C   UNL     1      42.449 -17.492   6.950  1.00  0.00     0.270 C 
HETATM   26  N   UNL     1      43.218 -17.266   8.059  1.00  0.00    -0.365 N 
HETATM   27  H   UNL     1      44.146 -17.670   8.096  1.00  0.00     0.159 HD
HETATM   28  H   UNL     1      42.859 -16.703   8.814  1.00  0.00     0.159 HD
HETATM   29  O   UNL     1      41.319 -17.025   6.849  1.00  0.00    -0.266 OA
ENDBRANCH  22  25
ENDBRANCH  12  15
ENDBRANCH   1  11
TORSDOF 3
ENDMDL
