MODEL 1
REMARK VINA RESULT:     -10.5      0.000      0.000
REMARK  4 active torsions:
REMARK  status: ('A' for Active; 'I' for Inactive)
REMARK    1  A    between atoms: C_4  and  C_5 
REMARK    2  A    between atoms: C_16  and  C_17 
REMARK    3  A    between atoms: C_20  and  C_21 
REMARK    4  A    between atoms: C_21  and  N_22 
REMARK       I    between atoms: N_22  and  C_23 
REMARK       I    between atoms: C_23  and  N_24 
ROOT
HETATM    1  C   UNL     1      42.344 -12.957   4.953  1.00  0.00     0.067 C 
HETATM    2  C   UNL     1      41.032 -12.642   5.700  1.00  0.00     0.001 C 
HETATM    3  C   UNL     1      39.825 -13.355   5.052  1.00  0.00     0.040 C 
HETATM    4  C   UNL     1      39.620 -12.906   3.595  1.00  0.00     0.206 C 
HETATM    5  N   UNL     1      40.787 -11.996   3.253  1.00  0.00    -0.065 N 
HETATM    6  H   UNL     1      40.716 -11.778   2.234  1.00  0.00     0.280 HD
HETATM    7  C   UNL     1      42.136 -12.654   3.443  1.00  0.00     0.246 C 
HETATM    8  C   UNL     1      40.778 -11.116   5.542  1.00  0.00     0.033 C 
HETATM    9  C   UNL     1      40.718 -10.725   4.058  1.00  0.00     0.236 C 
ENDROOT
BRANCH   1  10
HETATM   10  C   UNL     1      43.046 -14.283   5.105  1.00  0.00     0.038 C 
HETATM   11  N   UNL     1      43.809 -14.822   6.115  1.00  0.00    -0.277 N 
HETATM   12  C   UNL     1      44.408 -14.233   7.288  1.00  0.00     0.179 C 
HETATM   13  N   UNL     1      44.014 -16.145   5.963  1.00  0.00    -0.172 NA
HETATM   14  C   UNL     1      43.609 -16.433   4.722  1.00  0.00     0.089 C 
HETATM   15  C   UNL     1      43.021 -15.286   4.144  1.00  0.00     0.061 C 
BRANCH  14  16
HETATM   16  C   UNL     1      43.711 -17.770   4.138  1.00  0.00    -0.005 A 
HETATM   17  C   UNL     1      44.096 -18.864   4.929  1.00  0.00     0.026 A 
HETATM   18  C   UNL     1      44.278 -20.141   4.369  1.00  0.00    -0.025 A 
HETATM   19  C   UNL     1      44.062 -20.327   2.986  1.00  0.00    -0.026 A 
HETATM   20  C   UNL     1      44.679 -21.233   5.156  1.00  0.00     0.012 A 
HETATM   21  C   UNL     1      43.651 -19.237   2.203  1.00  0.00     0.013 A 
HETATM   22  C   UNL     1      44.267 -21.598   2.425  1.00  0.00     0.012 A 
HETATM   23  C   UNL     1      43.474 -17.973   2.775  1.00  0.00     0.014 A 
HETATM   24  C   UNL     1      44.673 -22.672   3.219  1.00  0.00     0.001 A 
HETATM   25  C   UNL     1      44.876 -22.490   4.583  1.00  0.00     0.001 A 
ENDBRANCH  14  16
ENDBRANCH   1  10
BRANCH   4  26
HETATM   26  C   UNL     1      39.457 -14.112   2.635  1.00  0.00     0.157 C 
BRANCH  26  27
HETATM   27  N   UNL     1      39.707 -13.862   1.225  1.00  0.00    -0.341 N 
HETATM   28  C   UNL     1      40.441 -14.667   0.405  1.00  0.00     0.318 C 
HETATM   29  N   UNL     1      40.256 -14.465  -0.947  1.00  0.00    -0.330 N 
HETATM   30  O   UNL     1      41.223 -15.493   0.874  1.00  0.00    -0.247 OA
HETATM   31  C   UNL     1      38.971 -14.012  -1.514  1.00  0.00     0.153 C 
HETATM   32  C   UNL     1      41.007 -15.345  -1.852  1.00  0.00     0.153 C 
HETATM   33  C   UNL     1      39.121 -13.516  -2.955  1.00  0.00     0.187 C 
HETATM   34  O   UNL     1      39.761 -14.501  -3.773  1.00  0.00    -0.388 OA
HETATM   35  C   UNL     1      41.074 -14.789  -3.274  1.00  0.00     0.187 C 
HETATM   36  H   UNL     1      39.355 -13.003   0.828  1.00  0.00     0.164 HD
ENDBRANCH  26  27
ENDBRANCH   4  26
TORSDOF 4
ENDMDL
MODEL 2
REMARK VINA RESULT:     -10.4      1.087      1.647
REMARK  4 active torsions:
REMARK  status: ('A' for Active; 'I' for Inactive)
REMARK    1  A    between atoms: C_4  and  C_5 
REMARK    2  A    between atoms: C_16  and  C_17 
REMARK    3  A    between atoms: C_20  and  C_21 
REMARK    4  A    between atoms: C_21  and  N_22 
REMARK       I    between atoms: N_22  and  C_23 
REMARK       I    between atoms: C_23  and  N_24 
ROOT
HETATM    1  C   UNL     1      42.092 -13.205   5.481  1.00  0.00     0.067 C 
HETATM    2  C   UNL     1      40.594 -13.265   5.841  1.00  0.00     0.001 C 
HETATM    3  C   UNL     1      39.797 -14.099   4.815  1.00  0.00     0.040 C 
HETATM    4  C   UNL     1      39.885 -13.492   3.404  1.00  0.00     0.206 C 
HETATM    5  N   UNL     1      40.861 -12.331   3.491  1.00  0.00    -0.065 N 
HETATM    6  H   UNL     1      41.013 -11.987   2.517  1.00  0.00     0.280 HD
HETATM    7  C   UNL     1      42.225 -12.733   4.006  1.00  0.00     0.246 C 
HETATM    8  C   UNL     1      40.048 -11.812   5.745  1.00  0.00     0.033 C 
HETATM    9  C   UNL     1      40.294 -11.229   4.346  1.00  0.00     0.236 C 
ENDROOT
BRANCH   1  10
HETATM   10  C   UNL     1      43.012 -14.375   5.717  1.00  0.00     0.038 C 
HETATM   11  N   UNL     1      43.956 -14.637   6.683  1.00  0.00    -0.277 N 
HETATM   12  C   UNL     1      44.572 -13.796   7.681  1.00  0.00     0.179 C 
HETATM   13  N   UNL     1      44.357 -15.924   6.684  1.00  0.00    -0.172 NA
HETATM   14  C   UNL     1      43.875 -16.452   5.555  1.00  0.00     0.089 C 
HETATM   15  C   UNL     1      43.051 -15.506   4.909  1.00  0.00     0.061 C 
BRANCH  14  16
HETATM   16  C   UNL     1      44.132 -17.834   5.146  1.00  0.00    -0.005 A 
HETATM   17  C   UNL     1      43.894 -18.239   3.824  1.00  0.00     0.026 A 
HETATM   18  C   UNL     1      44.057 -19.580   3.431  1.00  0.00    -0.025 A 
HETATM   19  C   UNL     1      44.476 -20.534   4.385  1.00  0.00    -0.026 A 
HETATM   20  C   UNL     1      43.805 -19.991   2.112  1.00  0.00     0.012 A 
HETATM   21  C   UNL     1      44.740 -20.119   5.700  1.00  0.00     0.013 A 
HETATM   22  C   UNL     1      44.616 -21.876   3.996  1.00  0.00     0.012 A 
HETATM   23  C   UNL     1      44.573 -18.781   6.074  1.00  0.00     0.014 A 
HETATM   24  C   UNL     1      44.353 -22.270   2.684  1.00  0.00     0.001 A 
HETATM   25  C   UNL     1      43.950 -21.328   1.742  1.00  0.00     0.001 A 
ENDBRANCH  14  16
ENDBRANCH   1  10
BRANCH   4  26
HETATM   26  C   UNL     1      40.262 -14.555   2.340  1.00  0.00     0.157 C 
BRANCH  26  27
HETATM   27  N   UNL     1      40.178 -14.144   0.948  1.00  0.00    -0.341 N 
HETATM   28  C   UNL     1      41.212 -13.643   0.216  1.00  0.00     0.318 C 
HETATM   29  N   UNL     1      41.037 -13.663  -1.152  1.00  0.00    -0.330 N 
HETATM   30  O   UNL     1      42.213 -13.191   0.772  1.00  0.00    -0.247 OA
HETATM   31  C   UNL     1      40.241 -14.700  -1.836  1.00  0.00     0.153 C 
HETATM   32  C   UNL     1      42.154 -13.162  -1.965  1.00  0.00     0.153 C 
HETATM   33  C   UNL     1      39.895 -14.305  -3.275  1.00  0.00     0.187 C 
HETATM   34  O   UNL     1      41.072 -13.949  -4.007  1.00  0.00    -0.388 OA
HETATM   35  C   UNL     1      41.723 -12.829  -3.394  1.00  0.00     0.187 C 
HETATM   36  H   UNL     1      39.274 -14.183   0.498  1.00  0.00     0.164 HD
ENDBRANCH  26  27
ENDBRANCH   4  26
TORSDOF 4
ENDMDL
MODEL 3
REMARK VINA RESULT:     -10.3      2.280      5.442
REMARK  4 active torsions:
REMARK  status: ('A' for Active; 'I' for Inactive)
REMARK    1  A    between atoms: C_4  and  C_5 
REMARK    2  A    between atoms: C_16  and  C_17 
REMARK    3  A    between atoms: C_20  and  C_21 
REMARK    4  A    between atoms: C_21  and  N_22 
REMARK       I    between atoms: N_22  and  C_23 
REMARK       I    between atoms: C_23  and  N_24 
ROOT
HETATM    1  C   UNL     1      40.759 -14.517  -1.079  1.00  0.00     0.067 C 
HETATM    2  C   UNL     1      41.914 -13.733  -1.734  1.00  0.00     0.001 C 
HETATM    3  C   UNL     1      42.173 -12.394  -1.009  1.00  0.00     0.040 C 
HETATM    4  C   UNL     1      40.938 -11.479  -1.056  1.00  0.00     0.206 C 
HETATM    5  N   UNL     1      39.823 -12.286  -1.698  1.00  0.00    -0.065 N 
HETATM    6  H   UNL     1      38.953 -11.713  -1.630  1.00  0.00     0.280 HD
HETATM    7  C   UNL     1      39.525 -13.579  -0.971  1.00  0.00     0.246 C 
HETATM    8  C   UNL     1      41.453 -13.371  -3.175  1.00  0.00     0.033 C 
HETATM    9  C   UNL     1      40.142 -12.571  -3.142  1.00  0.00     0.236 C 
ENDROOT
BRANCH   1  10
HETATM   10  C   UNL     1      40.940 -15.257   0.223  1.00  0.00     0.038 C 
HETATM   11  N   UNL     1      40.150 -15.379   1.342  1.00  0.00    -0.277 N 
HETATM   12  C   UNL     1      38.974 -14.662   1.773  1.00  0.00     0.179 C 
HETATM   13  N   UNL     1      40.564 -16.360   2.168  1.00  0.00    -0.172 NA
HETATM   14  C   UNL     1      41.775 -16.715   1.727  1.00  0.00     0.089 C 
HETATM   15  C   UNL     1      42.057 -16.027   0.527  1.00  0.00     0.061 C 
BRANCH  14  16
HETATM   16  C   UNL     1      42.601 -17.727   2.387  1.00  0.00    -0.005 A 
HETATM   17  C   UNL     1      42.806 -18.978   1.786  1.00  0.00     0.026 A 
HETATM   18  C   UNL     1      43.528 -19.993   2.440  1.00  0.00    -0.025 A 
HETATM   19  C   UNL     1      44.064 -19.742   3.723  1.00  0.00    -0.026 A 
HETATM   20  C   UNL     1      43.721 -21.251   1.848  1.00  0.00     0.012 A 
HETATM   21  C   UNL     1      43.880 -18.480   4.309  1.00  0.00     0.013 A 
HETATM   22  C   UNL     1      44.765 -20.763   4.384  1.00  0.00     0.012 A 
HETATM   23  C   UNL     1      43.159 -17.482   3.645  1.00  0.00     0.014 A 
HETATM   24  C   UNL     1      44.941 -22.012   3.785  1.00  0.00     0.001 A 
HETATM   25  C   UNL     1      44.422 -22.254   2.517  1.00  0.00     0.001 A 
ENDBRANCH  14  16
ENDBRANCH   1  10
BRANCH   4  26
HETATM   26  C   UNL     1      40.583 -10.914   0.343  1.00  0.00     0.157 C 
BRANCH  26  27
HETATM   27  N   UNL     1      41.402 -11.365   1.456  1.00  0.00    -0.341 N 
HETATM   28  C   UNL     1      40.931 -11.692   2.693  1.00  0.00     0.318 C 
HETATM   29  N   UNL     1      41.787 -12.436   3.478  1.00  0.00    -0.330 N 
HETATM   30  O   UNL     1      39.820 -11.312   3.061  1.00  0.00    -0.247 OA
HETATM   31  C   UNL     1      42.750 -13.399   2.910  1.00  0.00     0.153 C 
HETATM   32  C   UNL     1      41.288 -12.832   4.802  1.00  0.00     0.153 C 
HETATM   33  C   UNL     1      43.816 -13.815   3.928  1.00  0.00     0.187 C 
HETATM   34  O   UNL     1      43.214 -14.293   5.135  1.00  0.00    -0.388 OA
HETATM   35  C   UNL     1      42.417 -13.266   5.737  1.00  0.00     0.187 C 
HETATM   36  H   UNL     1      42.403 -11.395   1.324  1.00  0.00     0.164 HD
ENDBRANCH  26  27
ENDBRANCH   4  26
TORSDOF 4
ENDMDL
MODEL 4
REMARK VINA RESULT:     -10.1      1.126      1.508
REMARK  4 active torsions:
REMARK  status: ('A' for Active; 'I' for Inactive)
REMARK    1  A    between atoms: C_4  and  C_5 
REMARK    2  A    between atoms: C_16  and  C_17 
REMARK    3  A    between atoms: C_20  and  C_21 
REMARK    4  A    between atoms: C_21  and  N_22 
REMARK       I    between atoms: N_22  and  C_23 
REMARK       I    between atoms: C_23  and  N_24 
ROOT
HETATM    1  C   UNL     1      41.362 -13.487   5.629  1.00  0.00     0.067 C 
HETATM    2  C   UNL     1      39.897 -13.679   5.187  1.00  0.00     0.001 C 
HETATM    3  C   UNL     1      39.758 -13.629   3.650  1.00  0.00     0.040 C 
HETATM    4  C   UNL     1      40.214 -12.272   3.086  1.00  0.00     0.206 C 
HETATM    5  N   UNL     1      40.782 -11.485   4.254  1.00  0.00    -0.065 N 
HETATM    6  H   UNL     1      41.196 -10.611   3.860  1.00  0.00     0.280 HD
HETATM    7  C   UNL     1      41.914 -12.197   4.961  1.00  0.00     0.246 C 
HETATM    8  C   UNL     1      39.097 -12.466   5.741  1.00  0.00     0.033 C 
HETATM    9  C   UNL     1      39.695 -11.143   5.239  1.00  0.00     0.236 C 
ENDROOT
BRANCH   1  10
HETATM   10  C   UNL     1      42.381 -14.592   5.501  1.00  0.00     0.038 C 
HETATM   11  N   UNL     1      43.551 -14.862   6.172  1.00  0.00    -0.277 N 
HETATM   12  C   UNL     1      44.347 -14.068   7.078  1.00  0.00     0.179 C 
HETATM   13  N   UNL     1      44.015 -16.104   5.930  1.00  0.00    -0.172 NA
HETATM   14  C   UNL     1      43.297 -16.563   4.901  1.00  0.00     0.089 C 
HETATM   15  C   UNL     1      42.282 -15.634   4.586  1.00  0.00     0.061 C 
BRANCH  14  16
HETATM   16  C   UNL     1      43.525 -17.872   4.289  1.00  0.00    -0.005 A 
HETATM   17  C   UNL     1      43.913 -18.967   5.076  1.00  0.00     0.026 A 
HETATM   18  C   UNL     1      44.215 -20.213   4.498  1.00  0.00    -0.025 A 
HETATM   19  C   UNL     1      44.117 -20.366   3.096  1.00  0.00    -0.026 A 
HETATM   20  C   UNL     1      44.619 -21.305   5.282  1.00  0.00     0.012 A 
HETATM   21  C   UNL     1      43.702 -19.277   2.315  1.00  0.00     0.013 A 
HETATM   22  C   UNL     1      44.441 -21.603   2.518  1.00  0.00     0.012 A 
HETATM   23  C   UNL     1      43.405 -18.044   2.907  1.00  0.00     0.014 A 
HETATM   24  C   UNL     1      44.849 -22.677   3.311  1.00  0.00     0.001 A 
HETATM   25  C   UNL     1      44.935 -22.529   4.692  1.00  0.00     0.001 A 
ENDBRANCH  14  16
ENDBRANCH   1  10
BRANCH   4  26
HETATM   26  C   UNL     1      41.197 -12.440   1.899  1.00  0.00     0.157 C 
BRANCH  26  27
HETATM   27  N   UNL     1      40.756 -13.282   0.800  1.00  0.00    -0.341 N 
HETATM   28  C   UNL     1      40.104 -12.841  -0.313  1.00  0.00     0.318 C 
HETATM   29  N   UNL     1      40.103 -13.709  -1.385  1.00  0.00    -0.330 N 
HETATM   30  O   UNL     1      39.546 -11.744  -0.318  1.00  0.00    -0.247 OA
HETATM   31  C   UNL     1      41.211 -14.646  -1.649  1.00  0.00     0.153 C 
HETATM   32  C   UNL     1      39.438 -13.241  -2.609  1.00  0.00     0.153 C 
HETATM   33  C   UNL     1      40.818 -15.734  -2.653  1.00  0.00     0.187 C 
HETATM   34  O   UNL     1      40.292 -15.159  -3.854  1.00  0.00    -0.388 OA
HETATM   35  C   UNL     1      39.118 -14.389  -3.566  1.00  0.00     0.187 C 
HETATM   36  H   UNL     1      40.896 -14.279   0.884  1.00  0.00     0.164 HD
ENDBRANCH  26  27
ENDBRANCH   4  26
TORSDOF 4
ENDMDL
MODEL 5
REMARK VINA RESULT:      -9.7      1.997      3.096
REMARK  4 active torsions:
REMARK  status: ('A' for Active; 'I' for Inactive)
REMARK    1  A    between atoms: C_4  and  C_5 
REMARK    2  A    between atoms: C_16  and  C_17 
REMARK    3  A    between atoms: C_20  and  C_21 
REMARK    4  A    between atoms: C_21  and  N_22 
REMARK       I    between atoms: N_22  and  C_23 
REMARK       I    between atoms: C_23  and  N_24 
ROOT
HETATM    1  C   UNL     1      39.812 -12.604   3.626  1.00  0.00     0.067 C 
HETATM    2  C   UNL     1      38.786 -11.764   2.839  1.00  0.00     0.001 C 
HETATM    3  C   UNL     1      39.361 -11.284   1.488  1.00  0.00     0.040 C 
HETATM    4  C   UNL     1      40.599 -10.393   1.687  1.00  0.00     0.206 C 
HETATM    5  N   UNL     1      40.909 -10.406   3.174  1.00  0.00    -0.065 N 
HETATM    6  H   UNL     1      41.812  -9.897   3.301  1.00  0.00     0.280 HD
HETATM    7  C   UNL     1      41.136 -11.797   3.725  1.00  0.00     0.246 C 
HETATM    8  C   UNL     1      38.511 -10.484   3.679  1.00  0.00     0.033 C 
HETATM    9  C   UNL     1      39.815  -9.719   3.948  1.00  0.00     0.236 C 
ENDROOT
BRANCH   1  10
HETATM   10  C   UNL     1      40.123 -14.031   3.252  1.00  0.00     0.038 C 
HETATM   11  N   UNL     1      39.617 -14.872   2.288  1.00  0.00    -0.277 N 
HETATM   12  C   UNL     1      38.452 -14.777   1.442  1.00  0.00     0.179 C 
HETATM   13  N   UNL     1      40.370 -15.976   2.114  1.00  0.00    -0.172 NA
HETATM   14  C   UNL     1      41.228 -15.994   3.138  1.00  0.00     0.089 C 
HETATM   15  C   UNL     1      41.085 -14.806   3.888  1.00  0.00     0.061 C 
BRANCH  14  16
HETATM   16  C   UNL     1      42.197 -17.069   3.351  1.00  0.00    -0.005 A 
HETATM   17  C   UNL     1      42.274 -18.144   2.453  1.00  0.00     0.026 A 
HETATM   18  C   UNL     1      43.142 -19.227   2.683  1.00  0.00    -0.025 A 
HETATM   19  C   UNL     1      43.958 -19.226   3.837  1.00  0.00    -0.026 A 
HETATM   20  C   UNL     1      43.209 -20.312   1.794  1.00  0.00     0.012 A 
HETATM   21  C   UNL     1      43.898 -18.135   4.718  1.00  0.00     0.013 A 
HETATM   22  C   UNL     1      44.806 -20.318   4.076  1.00  0.00     0.012 A 
HETATM   23  C   UNL     1      43.029 -17.066   4.474  1.00  0.00     0.014 A 
HETATM   24  C   UNL     1      44.855 -21.393   3.187  1.00  0.00     0.001 A 
HETATM   25  C   UNL     1      44.059 -21.389   2.046  1.00  0.00     0.001 A 
ENDBRANCH  14  16
ENDBRANCH   1  10
BRANCH   4  26
HETATM   26  C   UNL     1      41.783 -10.838   0.791  1.00  0.00     0.157 C 
BRANCH  26  27
HETATM   27  N   UNL     1      41.456 -11.673  -0.354  1.00  0.00    -0.341 N 
HETATM   28  C   UNL     1      41.557 -13.032  -0.386  1.00  0.00     0.318 C 
HETATM   29  N   UNL     1      40.864 -13.656  -1.403  1.00  0.00    -0.330 N 
HETATM   30  O   UNL     1      42.245 -13.629   0.441  1.00  0.00    -0.247 OA
HETATM   31  C   UNL     1      39.607 -13.116  -1.955  1.00  0.00     0.153 C 
HETATM   32  C   UNL     1      40.926 -15.123  -1.437  1.00  0.00     0.153 C 
HETATM   33  C   UNL     1      39.238 -13.769  -3.291  1.00  0.00     0.187 C 
HETATM   34  O   UNL     1      39.215 -15.195  -3.175  1.00  0.00    -0.388 OA
HETATM   35  C   UNL     1      40.506 -15.687  -2.794  1.00  0.00     0.187 C 
HETATM   36  H   UNL     1      41.181 -11.213  -1.210  1.00  0.00     0.164 HD
ENDBRANCH  26  27
ENDBRANCH   4  26
TORSDOF 4
ENDMDL
MODEL 6
REMARK VINA RESULT:      -9.4      4.010      7.459
REMARK  4 active torsions:
REMARK  status: ('A' for Active; 'I' for Inactive)
REMARK    1  A    between atoms: C_4  and  C_5 
REMARK    2  A    between atoms: C_16  and  C_17 
REMARK    3  A    between atoms: C_20  and  C_21 
REMARK    4  A    between atoms: C_21  and  N_22 
REMARK       I    between atoms: N_22  and  C_23 
REMARK       I    between atoms: C_23  and  N_24 
ROOT
HETATM    1  C   UNL     1      39.280 -12.196   3.727  1.00  0.00     0.067 C 
HETATM    2  C   UNL     1      40.108 -10.958   3.326  1.00  0.00     0.001 C 
HETATM    3  C   UNL     1      41.348 -10.788   4.230  1.00  0.00     0.040 C 
HETATM    4  C   UNL     1      40.949 -10.591   5.703  1.00  0.00     0.206 C 
HETATM    5  N   UNL     1      39.443 -10.773   5.773  1.00  0.00    -0.065 N 
HETATM    6  H   UNL     1      39.180 -10.754   6.784  1.00  0.00     0.280 HD
HETATM    7  C   UNL     1      38.977 -12.113   5.249  1.00  0.00     0.246 C 
HETATM    8  C   UNL     1      39.208  -9.714   3.574  1.00  0.00     0.033 C 
HETATM    9  C   UNL     1      38.743  -9.662   5.036  1.00  0.00     0.236 C 
ENDROOT
BRANCH   1  10
HETATM   10  C   UNL     1      39.725 -13.594   3.381  1.00  0.00     0.038 C 
HETATM   11  N   UNL     1      39.404 -14.445   2.348  1.00  0.00    -0.277 N 
HETATM   12  C   UNL     1      38.357 -14.402   1.355  1.00  0.00     0.179 C 
HETATM   13  N   UNL     1      40.239 -15.499   2.263  1.00  0.00    -0.172 NA
HETATM   14  C   UNL     1      40.953 -15.486   3.393  1.00  0.00     0.089 C 
HETATM   15  C   UNL     1      40.640 -14.324   4.131  1.00  0.00     0.061 C 
BRANCH  14  16
HETATM   16  C   UNL     1      41.950 -16.506   3.720  1.00  0.00    -0.005 A 
HETATM   17  C   UNL     1      42.262 -17.516   2.798  1.00  0.00     0.026 A 
HETATM   18  C   UNL     1      43.157 -18.551   3.124  1.00  0.00    -0.025 A 
HETATM   19  C   UNL     1      43.758 -18.569   4.403  1.00  0.00    -0.026 A 
HETATM   20  C   UNL     1      43.459 -19.572   2.208  1.00  0.00     0.012 A 
HETATM   21  C   UNL     1      43.464 -17.541   5.312  1.00  0.00     0.013 A 
HETATM   22  C   UNL     1      44.633 -19.615   4.734  1.00  0.00     0.012 A 
HETATM   23  C   UNL     1      42.572 -16.519   4.972  1.00  0.00     0.014 A 
HETATM   24  C   UNL     1      44.916 -20.627   3.816  1.00  0.00     0.001 A 
HETATM   25  C   UNL     1      44.332 -20.604   2.553  1.00  0.00     0.001 A 
ENDBRANCH  14  16
ENDBRANCH   1  10
BRANCH   4  26
HETATM   26  C   UNL     1      41.744 -11.530   6.647  1.00  0.00     0.157 C 
BRANCH  26  27
HETATM   27  N   UNL     1      41.476 -11.402   8.070  1.00  0.00    -0.341 N 
HETATM   28  C   UNL     1      42.311 -10.815   8.974  1.00  0.00     0.318 C 
HETATM   29  N   UNL     1      41.733 -10.463  10.177  1.00  0.00    -0.330 N 
HETATM   30  O   UNL     1      43.500 -10.644   8.710  1.00  0.00    -0.247 OA
HETATM   31  C   UNL     1      40.318 -10.061  10.290  1.00  0.00     0.153 C 
HETATM   32  C   UNL     1      42.604  -9.795  11.153  1.00  0.00     0.153 C 
HETATM   33  C   UNL     1      39.830 -10.080  11.742  1.00  0.00     0.187 C 
HETATM   34  O   UNL     1      40.687  -9.301  12.582  1.00  0.00    -0.388 OA
HETATM   35  C   UNL     1      42.019  -9.831  12.566  1.00  0.00     0.187 C 
HETATM   36  H   UNL     1      40.632 -11.821   8.432  1.00  0.00     0.164 HD
ENDBRANCH  26  27
ENDBRANCH   4  26
TORSDOF 4
ENDMDL
MODEL 7
REMARK VINA RESULT:      -9.4      2.999      6.509
REMARK  4 active torsions:
REMARK  status: ('A' for Active; 'I' for Inactive)
REMARK    1  A    between atoms: C_4  and  C_5 
REMARK    2  A    between atoms: C_16  and  C_17 
REMARK    3  A    between atoms: C_20  and  C_21 
REMARK    4  A    between atoms: C_21  and  N_22 
REMARK       I    between atoms: N_22  and  C_23 
REMARK       I    between atoms: C_23  and  N_24 
ROOT
HETATM    1  C   UNL     1      39.768 -13.523   0.626  1.00  0.00     0.067 C 
HETATM    2  C   UNL     1      40.408 -12.148   0.346  1.00  0.00     0.001 C 
HETATM    3  C   UNL     1      41.230 -11.649   1.554  1.00  0.00     0.040 C 
HETATM    4  C   UNL     1      40.350 -11.478   2.803  1.00  0.00     0.206 C 
HETATM    5  N   UNL     1      38.971 -12.002   2.439  1.00  0.00    -0.065 N 
HETATM    6  H   UNL     1      38.401 -11.994   3.314  1.00  0.00     0.280 HD
HETATM    7  C   UNL     1      38.983 -13.438   1.964  1.00  0.00     0.246 C 
HETATM    8  C   UNL     1      39.241 -11.137   0.160  1.00  0.00     0.033 C 
HETATM    9  C   UNL     1      38.331 -11.122   1.397  1.00  0.00     0.236 C 
ENDROOT
BRANCH   1  10
HETATM   10  C   UNL     1      40.578 -14.795   0.601  1.00  0.00     0.038 C 
HETATM   11  N   UNL     1      41.109 -15.540  -0.426  1.00  0.00    -0.277 N 
HETATM   12  C   UNL     1      40.892 -15.508  -1.853  1.00  0.00     0.179 C 
HETATM   13  N   UNL     1      42.001 -16.456   0.002  1.00  0.00    -0.172 NA
HETATM   14  C   UNL     1      41.867 -16.495   1.331  1.00  0.00     0.089 C 
HETATM   15  C   UNL     1      40.965 -15.489   1.741  1.00  0.00     0.061 C 
BRANCH  14  16
HETATM   16  C   UNL     1      42.627 -17.409   2.184  1.00  0.00    -0.005 A 
HETATM   17  C   UNL     1      42.935 -18.704   1.741  1.00  0.00     0.026 A 
HETATM   18  C   UNL     1      43.594 -19.625   2.576  1.00  0.00    -0.025 A 
HETATM   19  C   UNL     1      43.958 -19.234   3.884  1.00  0.00    -0.026 A 
HETATM   20  C   UNL     1      43.890 -20.926   2.140  1.00  0.00     0.012 A 
HETATM   21  C   UNL     1      43.673 -17.929   4.314  1.00  0.00     0.013 A 
HETATM   22  C   UNL     1      44.595 -20.161   4.724  1.00  0.00     0.012 A 
HETATM   23  C   UNL     1      43.017 -17.025   3.470  1.00  0.00     0.014 A 
HETATM   24  C   UNL     1      44.874 -21.454   4.278  1.00  0.00     0.001 A 
HETATM   25  C   UNL     1      44.524 -21.835   2.986  1.00  0.00     0.001 A 
ENDBRANCH  14  16
ENDBRANCH   1  10
BRANCH   4  26
HETATM   26  C   UNL     1      40.975 -12.157   4.049  1.00  0.00     0.157 C 
BRANCH  26  27
HETATM   27  N   UNL     1      40.927 -11.409   5.294  1.00  0.00    -0.341 N 
HETATM   28  C   UNL     1      40.008 -11.593   6.284  1.00  0.00     0.318 C 
HETATM   29  N   UNL     1      40.343 -11.063   7.513  1.00  0.00    -0.330 N 
HETATM   30  O   UNL     1      38.950 -12.179   6.056  1.00  0.00    -0.247 OA
HETATM   31  C   UNL     1      41.739 -10.958   7.978  1.00  0.00     0.153 C 
HETATM   32  C   UNL     1      39.385 -11.281   8.605  1.00  0.00     0.153 C 
HETATM   33  C   UNL     1      41.875 -10.020   9.181  1.00  0.00     0.187 C 
HETATM   34  O   UNL     1      40.978 -10.397  10.230  1.00  0.00    -0.388 OA
HETATM   35  C   UNL     1      39.620 -10.326   9.776  1.00  0.00     0.187 C 
HETATM   36  H   UNL     1      41.593 -10.660   5.420  1.00  0.00     0.164 HD
ENDBRANCH  26  27
ENDBRANCH   4  26
TORSDOF 4
ENDMDL
MODEL 8
REMARK VINA RESULT:      -9.3      2.829      3.964
REMARK  4 active torsions:
REMARK  status: ('A' for Active; 'I' for Inactive)
REMARK    1  A    between atoms: C_4  and  C_5 
REMARK    2  A    between atoms: C_16  and  C_17 
REMARK    3  A    between atoms: C_20  and  C_21 
REMARK    4  A    between atoms: C_21  and  N_22 
REMARK       I    between atoms: N_22  and  C_23 
REMARK       I    between atoms: C_23  and  N_24 
ROOT
HETATM    1  C   UNL     1      39.664 -13.982   2.517  1.00  0.00     0.067 C 
HETATM    2  C   UNL     1      38.919 -14.626   1.330  1.00  0.00     0.001 C 
HETATM    3  C   UNL     1      39.808 -14.687   0.069  1.00  0.00     0.040 C 
HETATM    4  C   UNL     1      40.234 -13.282  -0.390  1.00  0.00     0.206 C 
HETATM    5  N   UNL     1      39.730 -12.310   0.663  1.00  0.00    -0.065 N 
HETATM    6  H   UNL     1      40.113 -11.369   0.418  1.00  0.00     0.280 HD
HETATM    7  C   UNL     1      40.242 -12.615   2.053  1.00  0.00     0.246 C 
HETATM    8  C   UNL     1      37.728 -13.688   0.984  1.00  0.00     0.033 C 
HETATM    9  C   UNL     1      38.225 -12.270   0.667  1.00  0.00     0.236 C 
ENDROOT
BRANCH   1  10
HETATM   10  C   UNL     1      40.717 -14.731   3.294  1.00  0.00     0.038 C 
HETATM   11  N   UNL     1      41.263 -14.542   4.543  1.00  0.00    -0.277 N 
HETATM   12  C   UNL     1      41.200 -13.433   5.464  1.00  0.00     0.179 C 
HETATM   13  N   UNL     1      41.976 -15.605   4.965  1.00  0.00    -0.172 NA
HETATM   14  C   UNL     1      42.119 -16.392   3.895  1.00  0.00     0.089 C 
HETATM   15  C   UNL     1      41.367 -15.865   2.822  1.00  0.00     0.061 C 
BRANCH  14  16
HETATM   16  C   UNL     1      42.884 -17.639   3.917  1.00  0.00    -0.005 A 
HETATM   17  C   UNL     1      42.848 -18.514   2.820  1.00  0.00     0.026 A 
HETATM   18  C   UNL     1      43.510 -19.755   2.853  1.00  0.00    -0.025 A 
HETATM   19  C   UNL     1      44.232 -20.122   4.011  1.00  0.00    -0.026 A 
HETATM   20  C   UNL     1      43.462 -20.639   1.763  1.00  0.00     0.012 A 
HETATM   21  C   UNL     1      44.289 -19.232   5.095  1.00  0.00     0.013 A 
HETATM   22  C   UNL     1      44.873 -21.370   4.051  1.00  0.00     0.012 A 
HETATM   23  C   UNL     1      43.624 -18.002   5.045  1.00  0.00     0.014 A 
HETATM   24  C   UNL     1      44.809 -22.241   2.962  1.00  0.00     0.001 A 
HETATM   25  C   UNL     1      44.106 -21.875   1.819  1.00  0.00     0.001 A 
ENDBRANCH  14  16
ENDBRANCH   1  10
BRANCH   4  26
HETATM   26  C   UNL     1      41.760 -13.196  -0.650  1.00  0.00     0.157 C 
BRANCH  26  27
HETATM   27  N   UNL     1      42.218 -12.105  -1.494  1.00  0.00    -0.341 N 
HETATM   28  C   UNL     1      42.071 -12.047  -2.848  1.00  0.00     0.318 C 
HETATM   29  N   UNL     1      42.228 -10.798  -3.411  1.00  0.00    -0.330 N 
HETATM   30  O   UNL     1      41.836 -13.066  -3.497  1.00  0.00    -0.247 OA
HETATM   31  C   UNL     1      41.874  -9.556  -2.698  1.00  0.00     0.153 C 
HETATM   32  C   UNL     1      42.038 -10.703  -4.865  1.00  0.00     0.153 C 
HETATM   33  C   UNL     1      42.472  -8.316  -3.370  1.00  0.00     0.187 C 
HETATM   34  O   UNL     1      42.124  -8.266  -4.758  1.00  0.00    -0.388 OA
HETATM   35  C   UNL     1      42.633  -9.418  -5.442  1.00  0.00     0.187 C 
HETATM   36  H   UNL     1      42.728 -11.351  -1.056  1.00  0.00     0.164 HD
ENDBRANCH  26  27
ENDBRANCH   4  26
TORSDOF 4
ENDMDL
MODEL 9
REMARK VINA RESULT:      -9.3      3.226      6.776
REMARK  4 active torsions:
REMARK  status: ('A' for Active; 'I' for Inactive)
REMARK    1  A    between atoms: C_4  and  C_5 
REMARK    2  A    between atoms: C_16  and  C_17 
REMARK    3  A    between atoms: C_20  and  C_21 
REMARK    4  A    between atoms: C_21  and  N_22 
REMARK       I    between atoms: N_22  and  C_23 
REMARK       I    between atoms: C_23  and  N_24 
ROOT
HETATM    1  C   UNL     1      39.968 -13.314   2.176  1.00  0.00     0.067 C 
HETATM    2  C   UNL     1      40.632 -11.922   2.177  1.00  0.00     0.001 C 
HETATM    3  C   UNL     1      41.521 -11.719   3.423  1.00  0.00     0.040 C 
HETATM    4  C   UNL     1      40.702 -11.817   4.722  1.00  0.00     0.206 C 
HETATM    5  N   UNL     1      39.295 -12.223   4.320  1.00  0.00    -0.065 N 
HETATM    6  H   UNL     1      38.765 -12.402   5.202  1.00  0.00     0.280 HD
HETATM    7  C   UNL     1      39.247 -13.517   3.538  1.00  0.00     0.246 C 
HETATM    8  C   UNL     1      39.486 -10.876   2.280  1.00  0.00     0.033 C 
HETATM    9  C   UNL     1      38.633 -11.123   3.533  1.00  0.00     0.236 C 
ENDROOT
BRANCH   1  10
HETATM   10  C   UNL     1      40.741 -14.561   1.828  1.00  0.00     0.038 C 
HETATM   11  N   UNL     1      41.207 -15.066   0.636  1.00  0.00    -0.277 N 
HETATM   12  C   UNL     1      40.929 -14.710  -0.735  1.00  0.00     0.179 C 
HETATM   13  N   UNL     1      42.090 -16.069   0.805  1.00  0.00    -0.172 NA
HETATM   14  C   UNL     1      42.013 -16.404   2.097  1.00  0.00     0.089 C 
HETATM   15  C   UNL     1      41.158 -15.500   2.765  1.00  0.00     0.061 C 
BRANCH  14  16
HETATM   16  C   UNL     1      42.784 -17.499   2.687  1.00  0.00    -0.005 A 
HETATM   17  C   UNL     1      42.929 -18.715   2.002  1.00  0.00     0.026 A 
HETATM   18  C   UNL     1      43.597 -19.807   2.585  1.00  0.00    -0.025 A 
HETATM   19  C   UNL     1      44.139 -19.672   3.883  1.00  0.00    -0.026 A 
HETATM   20  C   UNL     1      43.729 -21.029   1.908  1.00  0.00     0.012 A 
HETATM   21  C   UNL     1      44.016 -18.445   4.554  1.00  0.00     0.013 A 
HETATM   22  C   UNL     1      44.785 -20.770   4.473  1.00  0.00     0.012 A 
HETATM   23  C   UNL     1      43.348 -17.369   3.959  1.00  0.00     0.014 A 
HETATM   24  C   UNL     1      44.901 -21.982   3.790  1.00  0.00     0.001 A 
HETATM   25  C   UNL     1      44.376 -22.110   2.508  1.00  0.00     0.001 A 
ENDBRANCH  14  16
ENDBRANCH   1  10
BRANCH   4  26
HETATM   26  C   UNL     1      41.364 -12.768   5.753  1.00  0.00     0.157 C 
BRANCH  26  27
HETATM   27  N   UNL     1      42.382 -12.190   6.615  1.00  0.00    -0.341 N 
HETATM   28  C   UNL     1      42.135 -11.499   7.764  1.00  0.00     0.318 C 
HETATM   29  N   UNL     1      43.210 -11.359   8.616  1.00  0.00    -0.330 N 
HETATM   30  O   UNL     1      41.020 -11.027   7.983  1.00  0.00    -0.247 OA
HETATM   31  C   UNL     1      44.277 -12.373   8.722  1.00  0.00     0.153 C 
HETATM   32  C   UNL     1      42.960 -10.650   9.878  1.00  0.00     0.153 C 
HETATM   33  C   UNL     1      45.516 -11.830   9.440  1.00  0.00     0.187 C 
HETATM   34  O   UNL     1      45.169 -11.269  10.710  1.00  0.00    -0.388 OA
HETATM   35  C   UNL     1      44.255 -10.179  10.541  1.00  0.00     0.187 C 
HETATM   36  H   UNL     1      43.345 -12.260   6.320  1.00  0.00     0.164 HD
ENDBRANCH  26  27
ENDBRANCH   4  26
TORSDOF 4
ENDMDL
MODEL 10
REMARK VINA RESULT:      -9.0      2.647      7.731
REMARK  4 active torsions:
REMARK  status: ('A' for Active; 'I' for Inactive)
REMARK    1  A    between atoms: C_4  and  C_5 
REMARK    2  A    between atoms: C_16  and  C_17 
REMARK    3  A    between atoms: C_20  and  C_21 
REMARK    4  A    between atoms: C_21  and  N_22 
REMARK       I    between atoms: N_22  and  C_23 
REMARK       I    between atoms: C_23  and  N_24 
ROOT
HETATM    1  C   UNL     1      43.631 -16.968   4.047  1.00  0.00     0.067 C 
HETATM    2  C   UNL     1      43.504 -18.162   5.015  1.00  0.00     0.001 C 
HETATM    3  C   UNL     1      42.142 -18.160   5.743  1.00  0.00     0.040 C 
HETATM    4  C   UNL     1      41.956 -16.887   6.587  1.00  0.00     0.206 C 
HETATM    5  N   UNL     1      43.149 -15.994   6.296  1.00  0.00    -0.065 N 
HETATM    6  H   UNL     1      42.973 -15.084   6.776  1.00  0.00     0.280 HD
HETATM    7  C   UNL     1      43.305 -15.664   4.828  1.00  0.00     0.246 C 
HETATM    8  C   UNL     1      44.589 -17.970   6.112  1.00  0.00     0.033 C 
HETATM    9  C   UNL     1      44.415 -16.618   6.819  1.00  0.00     0.236 C 
ENDROOT
BRANCH   1  10
HETATM   10  C   UNL     1      42.920 -16.945   2.717  1.00  0.00     0.038 C 
HETATM   11  N   UNL     1      42.572 -17.938   1.831  1.00  0.00    -0.277 N 
HETATM   12  C   UNL     1      42.961 -19.325   1.736  1.00  0.00     0.179 C 
HETATM   13  N   UNL     1      41.700 -17.517   0.894  1.00  0.00    -0.172 NA
HETATM   14  C   UNL     1      41.671 -16.185   1.001  1.00  0.00     0.089 C 
HETATM   15  C   UNL     1      42.443 -15.787   2.114  1.00  0.00     0.061 C 
BRANCH  14  16
HETATM   16  C   UNL     1      40.876 -15.329   0.119  1.00  0.00    -0.005 A 
HETATM   17  C   UNL     1      39.887 -14.487   0.649  1.00  0.00     0.026 A 
HETATM   18  C   UNL     1      39.058 -13.717  -0.187  1.00  0.00    -0.025 A 
HETATM   19  C   UNL     1      39.231 -13.789  -1.588  1.00  0.00    -0.026 A 
HETATM   20  C   UNL     1      38.057 -12.885   0.340  1.00  0.00     0.012 A 
HETATM   21  C   UNL     1      40.240 -14.612  -2.112  1.00  0.00     0.013 A 
HETATM   22  C   UNL     1      38.388 -13.038  -2.422  1.00  0.00     0.012 A 
HETATM   23  C   UNL     1      41.056 -15.371  -1.266  1.00  0.00     0.014 A 
HETATM   24  C   UNL     1      37.392 -12.223  -1.882  1.00  0.00     0.001 A 
HETATM   25  C   UNL     1      37.229 -12.144  -0.503  1.00  0.00     0.001 A 
ENDBRANCH  14  16
ENDBRANCH   1  10
BRANCH   4  26
HETATM   26  C   UNL     1      40.584 -16.214   6.325  1.00  0.00     0.157 C 
BRANCH  26  27
HETATM   27  N   UNL     1      40.553 -14.761   6.355  1.00  0.00    -0.341 N 
HETATM   28  C   UNL     1      39.982 -13.970   5.403  1.00  0.00     0.318 C 
HETATM   29  N   UNL     1      39.731 -12.668   5.785  1.00  0.00    -0.330 N 
HETATM   30  O   UNL     1      39.740 -14.414   4.282  1.00  0.00    -0.247 OA
HETATM   31  C   UNL     1      39.403 -12.297   7.175  1.00  0.00     0.153 C 
HETATM   32  C   UNL     1      39.081 -11.805   4.789  1.00  0.00     0.153 C 
HETATM   33  C   UNL     1      39.531 -10.790   7.414  1.00  0.00     0.187 C 
HETATM   34  O   UNL     1      38.764 -10.052   6.457  1.00  0.00    -0.388 OA
HETATM   35  C   UNL     1      39.228 -10.322   5.128  1.00  0.00     0.187 C 
HETATM   36  H   UNL     1      41.033 -14.295   7.112  1.00  0.00     0.164 HD
ENDBRANCH  26  27
ENDBRANCH   4  26
TORSDOF 4
ENDMDL
