MODEL 1
REMARK VINA RESULT:      -8.4      0.000      0.000
REMARK  7 active torsions:
REMARK  status: ('A' for Active; 'I' for Inactive)
REMARK    1  A    between atoms: C_2  and  O_3 
REMARK    2  A    between atoms: O_3  and  C_4 
REMARK    3  A    between atoms: C_7  and  N_8 
REMARK    4  A    between atoms: N_8  and  C_9 
REMARK    5  A    between atoms: C_9  and  C_10 
REMARK       I    between atoms: C_10  and  N_11 
REMARK    6  A    between atoms: N_11  and  N_12 
REMARK    7  A    between atoms: C_13  and  C_14 
ROOT
HETATM    1  C   UNL     1      42.990 -13.857   2.711  1.00  0.00     0.255 C 
HETATM    2  N   UNL     1      42.783 -15.151   2.227  1.00  0.00    -0.246 N 
HETATM    3  O   UNL     1      43.939 -13.502   3.409  1.00  0.00    -0.270 OA
HETATM    4  H   UNL     1      41.848 -15.390   1.910  1.00  0.00     0.192 HD
ENDROOT
BRANCH   2   5
HETATM    5  N   UNL     1      43.505 -16.247   2.648  1.00  0.00    -0.184 NA
HETATM    6  C   UNL     1      43.021 -16.944   3.628  1.00  0.00     0.153 C 
BRANCH   6   7
HETATM    7  C   UNL     1      43.682 -18.164   4.062  1.00  0.00     0.018 A 
HETATM    8  C   UNL     1      43.811 -19.424   3.385  1.00  0.00     0.004 A 
HETATM    9  C   UNL     1      44.510 -20.283   4.233  1.00  0.00     0.043 A 
HETATM   10  C   UNL     1      43.391 -19.926   2.133  1.00  0.00     0.014 A 
HETATM   11  C   UNL     1      44.809 -21.610   3.897  1.00  0.00     0.030 A 
HETATM   12  N   UNL     1      44.803 -19.579   5.374  1.00  0.00    -0.358 N 
HETATM   13  C   UNL     1      44.379 -22.079   2.653  1.00  0.00     0.002 A 
HETATM   14  C   UNL     1      43.680 -21.250   1.780  1.00  0.00     0.001 A 
HETATM   15  H   UNL     1      45.302 -19.963   6.164  1.00  0.00     0.166 HD
HETATM   16  C   UNL     1      44.310 -18.301   5.294  1.00  0.00     0.018 A 
HETATM   17  C   UNL     1      44.481 -17.338   6.414  1.00  0.00     0.069 C 
ENDBRANCH   6   7
ENDBRANCH   2   5
BRANCH   1  18
HETATM   18  C   UNL     1      41.892 -12.881   2.280  1.00  0.00     0.224 C 
BRANCH  18  19
HETATM   19  N   UNL     1      42.247 -12.214   1.028  1.00  0.00    -0.381 N 
HETATM   20  H   UNL     1      43.139 -11.725   1.029  1.00  0.00     0.160 HD
BRANCH  19  21
HETATM   21  C   UNL     1      41.895 -12.758  -0.204  1.00  0.00     0.028 A 
HETATM   22  C   UNL     1      42.631 -12.566  -1.378  1.00  0.00     0.032 A 
HETATM   23  C   UNL     1      42.296 -13.221  -2.573  1.00  0.00     0.039 A 
HETATM   24  C   UNL     1      41.224 -14.107  -2.611  1.00  0.00     0.068 A 
HETATM   25  C   UNL     1      40.489 -14.321  -1.447  1.00  0.00     0.039 A 
HETATM   26  C   UNL     1      40.828 -13.665  -0.257  1.00  0.00     0.032 A 
BRANCH  24  27
HETATM   27  O   UNL     1      40.806 -14.822  -3.699  1.00  0.00    -0.352 OA
BRANCH  27  28
HETATM   28  C   UNL     1      40.141 -16.058  -3.442  1.00  0.00     0.171 C 
HETATM   29  C   UNL     1      38.895 -16.112  -4.309  1.00  0.00     0.034 C 
ENDBRANCH  27  28
ENDBRANCH  24  27
ENDBRANCH  19  21
ENDBRANCH  18  19
ENDBRANCH   1  18
TORSDOF 7
ENDMDL
MODEL 2
REMARK VINA RESULT:      -8.3      1.945      2.606
REMARK  7 active torsions:
REMARK  status: ('A' for Active; 'I' for Inactive)
REMARK    1  A    between atoms: C_2  and  O_3 
REMARK    2  A    between atoms: O_3  and  C_4 
REMARK    3  A    between atoms: C_7  and  N_8 
REMARK    4  A    between atoms: N_8  and  C_9 
REMARK    5  A    between atoms: C_9  and  C_10 
REMARK       I    between atoms: C_10  and  N_11 
REMARK    6  A    between atoms: N_11  and  N_12 
REMARK    7  A    between atoms: C_13  and  C_14 
ROOT
HETATM    1  C   UNL     1      41.668 -16.016   0.840  1.00  0.00     0.255 C 
HETATM    2  N   UNL     1      41.821 -16.059   2.228  1.00  0.00    -0.246 N 
HETATM    3  O   UNL     1      41.683 -16.993   0.093  1.00  0.00    -0.270 OA
HETATM    4  H   UNL     1      42.071 -15.194   2.700  1.00  0.00     0.192 HD
ENDROOT
BRANCH   2   5
HETATM    5  N   UNL     1      42.222 -17.183   2.917  1.00  0.00    -0.184 NA
HETATM    6  C   UNL     1      43.489 -17.315   3.163  1.00  0.00     0.153 C 
BRANCH   6   7
HETATM    7  C   UNL     1      43.971 -18.429   3.963  1.00  0.00     0.018 A 
HETATM    8  C   UNL     1      44.167 -19.802   3.594  1.00  0.00     0.004 A 
HETATM    9  C   UNL     1      44.619 -20.479   4.727  1.00  0.00     0.043 A 
HETATM   10  C   UNL     1      43.994 -20.546   2.405  1.00  0.00     0.014 A 
HETATM   11  C   UNL     1      44.904 -21.850   4.734  1.00  0.00     0.030 A 
HETATM   12  N   UNL     1      44.703 -19.559   5.743  1.00  0.00    -0.358 N 
HETATM   13  C   UNL     1      44.721 -22.559   3.544  1.00  0.00     0.002 A 
HETATM   14  C   UNL     1      44.274 -21.917   2.393  1.00  0.00     0.001 A 
HETATM   15  H   UNL     1      45.000 -19.780   6.683  1.00  0.00     0.166 HD
HETATM   16  C   UNL     1      44.314 -18.318   5.306  1.00  0.00     0.018 A 
HETATM   17  C   UNL     1      44.299 -17.148   6.223  1.00  0.00     0.069 C 
ENDBRANCH   6   7
ENDBRANCH   2   5
BRANCH   1  18
HETATM   18  C   UNL     1      41.471 -14.593   0.309  1.00  0.00     0.224 C 
BRANCH  18  19
HETATM   19  N   UNL     1      41.731 -14.531  -1.129  1.00  0.00    -0.381 N 
HETATM   20  H   UNL     1      42.634 -14.891  -1.427  1.00  0.00     0.160 HD
BRANCH  19  21
HETATM   21  C   UNL     1      40.708 -14.715  -2.055  1.00  0.00     0.028 A 
HETATM   22  C   UNL     1      40.650 -15.792  -2.945  1.00  0.00     0.032 A 
HETATM   23  C   UNL     1      39.546 -15.993  -3.788  1.00  0.00     0.039 A 
HETATM   24  C   UNL     1      38.459 -15.126  -3.738  1.00  0.00     0.068 A 
HETATM   25  C   UNL     1      38.494 -14.056  -2.847  1.00  0.00     0.039 A 
HETATM   26  C   UNL     1      39.598 -13.861  -2.008  1.00  0.00     0.032 A 
BRANCH  24  27
HETATM   27  O   UNL     1      37.318 -15.219  -4.487  1.00  0.00    -0.352 OA
BRANCH  27  28
HETATM   28  C   UNL     1      36.350 -14.184  -4.317  1.00  0.00     0.171 C 
HETATM   29  C   UNL     1      35.655 -13.966  -5.649  1.00  0.00     0.034 C 
ENDBRANCH  27  28
ENDBRANCH  24  27
ENDBRANCH  19  21
ENDBRANCH  18  19
ENDBRANCH   1  18
TORSDOF 7
ENDMDL
MODEL 3
REMARK VINA RESULT:      -8.2      6.577     10.177
REMARK  7 active torsions:
REMARK  status: ('A' for Active; 'I' for Inactive)
REMARK    1  A    between atoms: C_2  and  O_3 
REMARK    2  A    between atoms: O_3  and  C_4 
REMARK    3  A    between atoms: C_7  and  N_8 
REMARK    4  A    between atoms: N_8  and  C_9 
REMARK    5  A    between atoms: C_9  and  C_10 
REMARK       I    between atoms: C_10  and  N_11 
REMARK    6  A    between atoms: N_11  and  N_12 
REMARK    7  A    between atoms: C_13  and  C_14 
ROOT
HETATM    1  C   UNL     1      44.861 -13.247   7.744  1.00  0.00     0.255 C 
HETATM    2  N   UNL     1      43.951 -14.285   7.525  1.00  0.00    -0.246 N 
HETATM    3  O   UNL     1      46.018 -13.215   7.327  1.00  0.00    -0.270 OA
HETATM    4  H   UNL     1      43.142 -14.337   8.137  1.00  0.00     0.192 HD
ENDROOT
BRANCH   2   5
HETATM    5  N   UNL     1      44.303 -15.506   6.991  1.00  0.00    -0.184 NA
HETATM    6  C   UNL     1      43.364 -16.215   6.445  1.00  0.00     0.153 C 
BRANCH   6   7
HETATM    7  C   UNL     1      43.679 -17.469   5.783  1.00  0.00     0.018 A 
HETATM    8  C   UNL     1      43.731 -17.773   4.380  1.00  0.00     0.004 A 
HETATM    9  C   UNL     1      44.052 -19.126   4.258  1.00  0.00     0.043 A 
HETATM   10  C   UNL     1      43.524 -17.034   3.195  1.00  0.00     0.014 A 
HETATM   11  C   UNL     1      44.176 -19.773   3.022  1.00  0.00     0.030 A 
HETATM   12  N   UNL     1      44.198 -19.625   5.529  1.00  0.00    -0.358 N 
HETATM   13  C   UNL     1      43.964 -19.014   1.867  1.00  0.00     0.002 A 
HETATM   14  C   UNL     1      43.644 -17.662   1.950  1.00  0.00     0.001 A 
HETATM   15  H   UNL     1      44.427 -20.586   5.736  1.00  0.00     0.166 HD
HETATM   16  C   UNL     1      43.974 -18.645   6.463  1.00  0.00     0.018 A 
HETATM   17  C   UNL     1      44.055 -18.935   7.919  1.00  0.00     0.069 C 
ENDBRANCH   6   7
ENDBRANCH   2   5
BRANCH   1  18
HETATM   18  C   UNL     1      44.270 -12.108   8.580  1.00  0.00     0.224 C 
BRANCH  18  19
HETATM   19  N   UNL     1      43.975 -12.556   9.941  1.00  0.00    -0.381 N 
HETATM   20  H   UNL     1      44.450 -13.406  10.234  1.00  0.00     0.160 HD
BRANCH  19  21
HETATM   21  C   UNL     1      43.749 -11.643  10.967  1.00  0.00     0.028 A 
HETATM   22  C   UNL     1      43.840 -10.257  10.807  1.00  0.00     0.032 A 
HETATM   23  C   UNL     1      43.501  -9.372  11.843  1.00  0.00     0.039 A 
HETATM   24  C   UNL     1      43.035  -9.862  13.060  1.00  0.00     0.068 A 
HETATM   25  C   UNL     1      42.925 -11.240  13.230  1.00  0.00     0.039 A 
HETATM   26  C   UNL     1      43.265 -12.117  12.193  1.00  0.00     0.032 A 
BRANCH  24  27
HETATM   27  O   UNL     1      42.653  -9.112  14.137  1.00  0.00    -0.352 OA
BRANCH  27  28
HETATM   28  C   UNL     1      42.037  -9.808  15.221  1.00  0.00     0.171 C 
HETATM   29  C   UNL     1      41.841  -8.826  16.362  1.00  0.00     0.034 C 
ENDBRANCH  27  28
ENDBRANCH  24  27
ENDBRANCH  19  21
ENDBRANCH  18  19
ENDBRANCH   1  18
TORSDOF 7
ENDMDL
MODEL 4
REMARK VINA RESULT:      -8.2      6.105      9.588
REMARK  7 active torsions:
REMARK  status: ('A' for Active; 'I' for Inactive)
REMARK    1  A    between atoms: C_2  and  O_3 
REMARK    2  A    between atoms: O_3  and  C_4 
REMARK    3  A    between atoms: C_7  and  N_8 
REMARK    4  A    between atoms: N_8  and  C_9 
REMARK    5  A    between atoms: C_9  and  C_10 
REMARK       I    between atoms: C_10  and  N_11 
REMARK    6  A    between atoms: N_11  and  N_12 
REMARK    7  A    between atoms: C_13  and  C_14 
ROOT
HETATM    1  C   UNL     1      44.999 -13.541   7.266  1.00  0.00     0.255 C 
HETATM    2  N   UNL     1      43.904 -14.345   6.940  1.00  0.00    -0.246 N 
HETATM    3  O   UNL     1      45.998 -13.383   6.566  1.00  0.00    -0.270 OA
HETATM    4  H   UNL     1      43.282 -14.620   7.695  1.00  0.00     0.192 HD
ENDROOT
BRANCH   2   5
HETATM    5  N   UNL     1      43.897 -15.234   5.887  1.00  0.00    -0.184 NA
HETATM    6  C   UNL     1      42.906 -16.067   5.811  1.00  0.00     0.153 C 
BRANCH   6   7
HETATM    7  C   UNL     1      42.788 -16.970   4.678  1.00  0.00     0.018 A 
HETATM    8  C   UNL     1      43.513 -18.175   4.391  1.00  0.00     0.004 A 
HETATM    9  C   UNL     1      43.048 -18.660   3.167  1.00  0.00     0.043 A 
HETATM   10  C   UNL     1      44.531 -18.902   5.046  1.00  0.00     0.014 A 
HETATM   11  C   UNL     1      43.546 -19.824   2.568  1.00  0.00     0.030 A 
HETATM   12  N   UNL     1      42.078 -17.793   2.729  1.00  0.00    -0.358 N 
HETATM   13  C   UNL     1      44.555 -20.521   3.240  1.00  0.00     0.002 A 
HETATM   14  C   UNL     1      45.041 -20.068   4.463  1.00  0.00     0.001 A 
HETATM   15  H   UNL     1      41.573 -17.900   1.861  1.00  0.00     0.166 HD
HETATM   16  C   UNL     1      41.907 -16.766   3.623  1.00  0.00     0.018 A 
HETATM   17  C   UNL     1      40.921 -15.682   3.370  1.00  0.00     0.069 C 
ENDBRANCH   6   7
ENDBRANCH   2   5
BRANCH   1  18
HETATM   18  C   UNL     1      44.842 -12.846   8.621  1.00  0.00     0.224 C 
BRANCH  18  19
HETATM   19  N   UNL     1      43.618 -12.047   8.660  1.00  0.00    -0.381 N 
HETATM   20  H   UNL     1      42.776 -12.519   8.339  1.00  0.00     0.160 HD
BRANCH  19  21
HETATM   21  C   UNL     1      43.400 -11.111   9.667  1.00  0.00     0.028 A 
HETATM   22  C   UNL     1      42.319 -10.223   9.682  1.00  0.00     0.032 A 
HETATM   23  C   UNL     1      42.083  -9.369  10.770  1.00  0.00     0.039 A 
HETATM   24  C   UNL     1      42.914  -9.407  11.886  1.00  0.00     0.068 A 
HETATM   25  C   UNL     1      43.986 -10.296  11.894  1.00  0.00     0.039 A 
HETATM   26  C   UNL     1      44.217 -11.145  10.805  1.00  0.00     0.032 A 
BRANCH  24  27
HETATM   27  O   UNL     1      42.783  -8.647  13.015  1.00  0.00    -0.352 OA
BRANCH  27  28
HETATM   28  C   UNL     1      43.089  -9.281  14.257  1.00  0.00     0.171 C 
HETATM   29  C   UNL     1      41.817  -9.919  14.787  1.00  0.00     0.034 C 
ENDBRANCH  27  28
ENDBRANCH  24  27
ENDBRANCH  19  21
ENDBRANCH  18  19
ENDBRANCH   1  18
TORSDOF 7
ENDMDL
MODEL 5
REMARK VINA RESULT:      -8.0      2.910      5.302
REMARK  7 active torsions:
REMARK  status: ('A' for Active; 'I' for Inactive)
REMARK    1  A    between atoms: C_2  and  O_3 
REMARK    2  A    between atoms: O_3  and  C_4 
REMARK    3  A    between atoms: C_7  and  N_8 
REMARK    4  A    between atoms: N_8  and  C_9 
REMARK    5  A    between atoms: C_9  and  C_10 
REMARK       I    between atoms: C_10  and  N_11 
REMARK    6  A    between atoms: N_11  and  N_12 
REMARK    7  A    between atoms: C_13  and  C_14 
ROOT
HETATM    1  C   UNL     1      40.256 -15.764   1.881  1.00  0.00     0.255 C 
HETATM    2  N   UNL     1      40.335 -16.400   3.123  1.00  0.00    -0.246 N 
HETATM    3  O   UNL     1      40.748 -16.184   0.835  1.00  0.00    -0.270 OA
HETATM    4  H   UNL     1      40.144 -15.841   3.950  1.00  0.00     0.192 HD
ENDROOT
BRANCH   2   5
HETATM    5  N   UNL     1      41.159 -17.475   3.378  1.00  0.00    -0.184 NA
HETATM    6  C   UNL     1      42.412 -17.229   3.603  1.00  0.00     0.153 C 
BRANCH   6   7
HETATM    7  C   UNL     1      43.319 -18.305   3.969  1.00  0.00     0.018 A 
HETATM    8  C   UNL     1      43.606 -19.532   3.280  1.00  0.00     0.004 A 
HETATM    9  C   UNL     1      44.525 -20.240   4.055  1.00  0.00     0.043 A 
HETATM   10  C   UNL     1      43.166 -20.120   2.074  1.00  0.00     0.014 A 
HETATM   11  C   UNL     1      45.023 -21.497   3.690  1.00  0.00     0.030 A 
HETATM   12  N   UNL     1      44.794 -19.477   5.165  1.00  0.00    -0.358 N 
HETATM   13  C   UNL     1      44.567 -22.054   2.492  1.00  0.00     0.002 A 
HETATM   14  C   UNL     1      43.652 -21.376   1.692  1.00  0.00     0.001 A 
HETATM   15  H   UNL     1      45.426 -19.754   5.902  1.00  0.00     0.166 HD
HETATM   16  C   UNL     1      44.076 -18.308   5.135  1.00  0.00     0.018 A 
HETATM   17  C   UNL     1      44.177 -17.314   6.235  1.00  0.00     0.069 C 
ENDBRANCH   6   7
ENDBRANCH   2   5
BRANCH   1  18
HETATM   18  C   UNL     1      39.471 -14.450   1.937  1.00  0.00     0.224 C 
BRANCH  18  19
HETATM   19  N   UNL     1      40.371 -13.311   2.111  1.00  0.00    -0.381 N 
HETATM   20  H   UNL     1      39.954 -12.396   1.961  1.00  0.00     0.160 HD
BRANCH  19  21
HETATM   21  C   UNL     1      41.380 -13.329   3.070  1.00  0.00     0.028 A 
HETATM   22  C   UNL     1      41.152 -13.175   4.442  1.00  0.00     0.032 A 
HETATM   23  C   UNL     1      42.187 -13.305   5.380  1.00  0.00     0.039 A 
HETATM   24  C   UNL     1      43.477 -13.620   4.963  1.00  0.00     0.068 A 
HETATM   25  C   UNL     1      43.719 -13.791   3.602  1.00  0.00     0.039 A 
HETATM   26  C   UNL     1      42.682 -13.660   2.670  1.00  0.00     0.032 A 
BRANCH  24  27
HETATM   27  O   UNL     1      44.566 -13.795   5.771  1.00  0.00    -0.352 OA
BRANCH  27  28
HETATM   28  C   UNL     1      44.347 -13.690   7.178  1.00  0.00     0.171 C 
HETATM   29  C   UNL     1      45.605 -13.120   7.809  1.00  0.00     0.034 C 
ENDBRANCH  27  28
ENDBRANCH  24  27
ENDBRANCH  19  21
ENDBRANCH  18  19
ENDBRANCH   1  18
TORSDOF 7
ENDMDL
MODEL 6
REMARK VINA RESULT:      -8.0      7.126     10.755
REMARK  7 active torsions:
REMARK  status: ('A' for Active; 'I' for Inactive)
REMARK    1  A    between atoms: C_2  and  O_3 
REMARK    2  A    between atoms: O_3  and  C_4 
REMARK    3  A    between atoms: C_7  and  N_8 
REMARK    4  A    between atoms: N_8  and  C_9 
REMARK    5  A    between atoms: C_9  and  C_10 
REMARK       I    between atoms: C_10  and  N_11 
REMARK    6  A    between atoms: N_11  and  N_12 
REMARK    7  A    between atoms: C_13  and  C_14 
ROOT
HETATM    1  C   UNL     1      44.740 -12.977   8.225  1.00  0.00     0.255 C 
HETATM    2  N   UNL     1      43.616 -12.157   8.088  1.00  0.00    -0.246 N 
HETATM    3  O   UNL     1      45.578 -12.891   9.121  1.00  0.00    -0.270 OA
HETATM    4  H   UNL     1      43.161 -12.133   7.180  1.00  0.00     0.192 HD
ENDROOT
BRANCH   2   5
HETATM    5  N   UNL     1      43.418 -11.008   8.821  1.00  0.00    -0.184 NA
HETATM    6  C   UNL     1      42.214 -10.758   9.232  1.00  0.00     0.153 C 
BRANCH   6   7
HETATM    7  C   UNL     1      41.950  -9.613  10.087  1.00  0.00     0.018 A 
HETATM    8  C   UNL     1      42.374  -9.363  11.436  1.00  0.00     0.004 A 
HETATM    9  C   UNL     1      41.836  -8.135  11.822  1.00  0.00     0.043 A 
HETATM   10  C   UNL     1      43.158 -10.066  12.377  1.00  0.00     0.014 A 
HETATM   11  C   UNL     1      42.038  -7.578  13.091  1.00  0.00     0.030 A 
HETATM   12  N   UNL     1      41.120  -7.652  10.755  1.00  0.00    -0.358 N 
HETATM   13  C   UNL     1      42.816  -8.298  14.001  1.00  0.00     0.002 A 
HETATM   14  C   UNL     1      43.371  -9.526  13.651  1.00  0.00     0.001 A 
HETATM   15  H   UNL     1      40.617  -6.776  10.761  1.00  0.00     0.166 HD
HETATM   16  C   UNL     1      41.172  -8.528   9.700  1.00  0.00     0.018 A 
HETATM   17  C   UNL     1      40.461  -8.243   8.426  1.00  0.00     0.069 C 
ENDBRANCH   6   7
ENDBRANCH   2   5
BRANCH   1  18
HETATM   18  C   UNL     1      44.840 -14.034   7.120  1.00  0.00     0.224 C 
BRANCH  18  19
HETATM   19  N   UNL     1      43.974 -15.176   7.409  1.00  0.00    -0.381 N 
HETATM   20  H   UNL     1      43.086 -14.952   7.850  1.00  0.00     0.160 HD
BRANCH  19  21
HETATM   21  C   UNL     1      43.931 -16.279   6.561  1.00  0.00     0.028 A 
HETATM   22  C   UNL     1      43.144 -16.342   5.407  1.00  0.00     0.032 A 
HETATM   23  C   UNL     1      43.212 -17.432   4.527  1.00  0.00     0.039 A 
HETATM   24  C   UNL     1      44.095 -18.480   4.773  1.00  0.00     0.068 A 
HETATM   25  C   UNL     1      44.896 -18.426   5.911  1.00  0.00     0.039 A 
HETATM   26  C   UNL     1      44.824 -17.335   6.786  1.00  0.00     0.032 A 
BRANCH  24  27
HETATM   27  O   UNL     1      44.273 -19.586   3.990  1.00  0.00    -0.352 OA
BRANCH  27  28
HETATM   28  C   UNL     1      44.328 -19.374   2.579  1.00  0.00     0.171 C 
HETATM   29  C   UNL     1      43.186 -20.146   1.942  1.00  0.00     0.034 C 
ENDBRANCH  27  28
ENDBRANCH  24  27
ENDBRANCH  19  21
ENDBRANCH  18  19
ENDBRANCH   1  18
TORSDOF 7
ENDMDL
MODEL 7
REMARK VINA RESULT:      -7.8      2.257      3.222
REMARK  7 active torsions:
REMARK  status: ('A' for Active; 'I' for Inactive)
REMARK    1  A    between atoms: C_2  and  O_3 
REMARK    2  A    between atoms: O_3  and  C_4 
REMARK    3  A    between atoms: C_7  and  N_8 
REMARK    4  A    between atoms: N_8  and  C_9 
REMARK    5  A    between atoms: C_9  and  C_10 
REMARK       I    between atoms: C_10  and  N_11 
REMARK    6  A    between atoms: N_11  and  N_12 
REMARK    7  A    between atoms: C_13  and  C_14 
ROOT
HETATM    1  C   UNL     1      39.552 -14.962   1.978  1.00  0.00     0.255 C 
HETATM    2  N   UNL     1      39.839 -16.295   1.672  1.00  0.00    -0.246 N 
HETATM    3  O   UNL     1      40.123 -14.291   2.836  1.00  0.00    -0.270 OA
HETATM    4  H   UNL     1      39.136 -16.821   1.160  1.00  0.00     0.192 HD
ENDROOT
BRANCH   2   5
HETATM    5  N   UNL     1      40.655 -17.095   2.442  1.00  0.00    -0.184 NA
HETATM    6  C   UNL     1      41.894 -17.216   2.077  1.00  0.00     0.153 C 
BRANCH   6   7
HETATM    7  C   UNL     1      42.832 -17.969   2.892  1.00  0.00     0.018 A 
HETATM    8  C   UNL     1      43.329 -19.305   2.716  1.00  0.00     0.004 A 
HETATM    9  C   UNL     1      44.186 -19.575   3.784  1.00  0.00     0.043 A 
HETATM   10  C   UNL     1      43.127 -20.321   1.757  1.00  0.00     0.014 A 
HETATM   11  C   UNL     1      44.845 -20.801   3.942  1.00  0.00     0.030 A 
HETATM   12  N   UNL     1      44.217 -18.453   4.574  1.00  0.00    -0.358 N 
HETATM   13  C   UNL     1      44.624 -21.787   2.977  1.00  0.00     0.002 A 
HETATM   14  C   UNL     1      43.777 -21.552   1.897  1.00  0.00     0.001 A 
HETATM   15  H   UNL     1      44.757 -18.374   5.424  1.00  0.00     0.166 HD
HETATM   16  C   UNL     1      43.406 -17.474   4.057  1.00  0.00     0.018 A 
HETATM   17  C   UNL     1      43.253 -16.161   4.739  1.00  0.00     0.069 C 
ENDBRANCH   6   7
ENDBRANCH   2   5
BRANCH   1  18
HETATM   18  C   UNL     1      38.424 -14.387   1.117  1.00  0.00     0.224 C 
BRANCH  18  19
HETATM   19  N   UNL     1      38.766 -14.446  -0.303  1.00  0.00    -0.381 N 
HETATM   20  H   UNL     1      37.977 -14.516  -0.941  1.00  0.00     0.160 HD
BRANCH  19  21
HETATM   21  C   UNL     1      39.853 -13.742  -0.812  1.00  0.00     0.028 A 
HETATM   22  C   UNL     1      40.884 -14.331  -1.551  1.00  0.00     0.032 A 
HETATM   23  C   UNL     1      41.905 -13.564  -2.133  1.00  0.00     0.039 A 
HETATM   24  C   UNL     1      41.900 -12.178  -2.008  1.00  0.00     0.068 A 
HETATM   25  C   UNL     1      40.872 -11.574  -1.288  1.00  0.00     0.039 A 
HETATM   26  C   UNL     1      39.856 -12.344  -0.709  1.00  0.00     0.032 A 
BRANCH  24  27
HETATM   27  O   UNL     1      42.818 -11.317  -2.541  1.00  0.00    -0.352 OA
BRANCH  27  28
HETATM   28  C   UNL     1      42.729  -9.950  -2.139  1.00  0.00     0.171 C 
HETATM   29  C   UNL     1      43.941  -9.630  -1.283  1.00  0.00     0.034 C 
ENDBRANCH  27  28
ENDBRANCH  24  27
ENDBRANCH  19  21
ENDBRANCH  18  19
ENDBRANCH   1  18
TORSDOF 7
ENDMDL
MODEL 8
REMARK VINA RESULT:      -7.7      5.018      8.045
REMARK  7 active torsions:
REMARK  status: ('A' for Active; 'I' for Inactive)
REMARK    1  A    between atoms: C_2  and  O_3 
REMARK    2  A    between atoms: O_3  and  C_4 
REMARK    3  A    between atoms: C_7  and  N_8 
REMARK    4  A    between atoms: N_8  and  C_9 
REMARK    5  A    between atoms: C_9  and  C_10 
REMARK       I    between atoms: C_10  and  N_11 
REMARK    6  A    between atoms: N_11  and  N_12 
REMARK    7  A    between atoms: C_13  and  C_14 
ROOT
HETATM    1  C   UNL     1      39.786 -14.170   5.226  1.00  0.00     0.255 C 
HETATM    2  N   UNL     1      40.175 -14.970   6.303  1.00  0.00    -0.246 N 
HETATM    3  O   UNL     1      39.846 -14.494   4.041  1.00  0.00    -0.270 OA
HETATM    4  H   UNL     1      40.345 -14.510   7.193  1.00  0.00     0.192 HD
ENDROOT
BRANCH   2   5
HETATM    5  N   UNL     1      40.878 -16.147   6.163  1.00  0.00    -0.184 NA
HETATM    6  C   UNL     1      42.137 -16.063   5.866  1.00  0.00     0.153 C 
BRANCH   6   7
HETATM    7  C   UNL     1      42.959 -17.260   5.794  1.00  0.00     0.018 A 
HETATM    8  C   UNL     1      43.316 -18.055   4.653  1.00  0.00     0.004 A 
HETATM    9  C   UNL     1      44.099 -19.115   5.112  1.00  0.00     0.043 A 
HETATM   10  C   UNL     1      43.042 -17.987   3.269  1.00  0.00     0.014 A 
HETATM   11  C   UNL     1      44.617 -20.104   4.266  1.00  0.00     0.030 A 
HETATM   12  N   UNL     1      44.221 -18.971   6.472  1.00  0.00    -0.358 N 
HETATM   13  C   UNL     1      44.327 -20.010   2.902  1.00  0.00     0.002 A 
HETATM   14  C   UNL     1      43.551 -18.965   2.407  1.00  0.00     0.001 A 
HETATM   15  H   UNL     1      44.734 -19.607   7.064  1.00  0.00     0.166 HD
HETATM   16  C   UNL     1      43.539 -17.861   6.904  1.00  0.00     0.018 A 
HETATM   17  C   UNL     1      43.502 -17.493   8.344  1.00  0.00     0.069 C 
ENDBRANCH   6   7
ENDBRANCH   2   5
BRANCH   1  18
HETATM   18  C   UNL     1      39.256 -12.802   5.665  1.00  0.00     0.224 C 
BRANCH  18  19
HETATM   19  N   UNL     1      40.356 -11.872   5.921  1.00  0.00    -0.381 N 
HETATM   20  H   UNL     1      40.578 -11.237   5.159  1.00  0.00     0.160 HD
BRANCH  19  21
HETATM   21  C   UNL     1      40.570 -11.342   7.190  1.00  0.00     0.028 A 
HETATM   22  C   UNL     1      39.605 -11.332   8.202  1.00  0.00     0.032 A 
HETATM   23  C   UNL     1      39.900 -10.882   9.497  1.00  0.00     0.039 A 
HETATM   24  C   UNL     1      41.186 -10.453   9.816  1.00  0.00     0.068 A 
HETATM   25  C   UNL     1      42.163 -10.470   8.823  1.00  0.00     0.039 A 
HETATM   26  C   UNL     1      41.862 -10.921   7.532  1.00  0.00     0.032 A 
BRANCH  24  27
HETATM   27  O   UNL     1      41.609 -10.012  11.039  1.00  0.00    -0.352 OA
BRANCH  27  28
HETATM   28  C   UNL     1      42.468 -10.882  11.775  1.00  0.00     0.171 C 
HETATM   29  C   UNL     1      43.686 -10.086  12.208  1.00  0.00     0.034 C 
ENDBRANCH  27  28
ENDBRANCH  24  27
ENDBRANCH  19  21
ENDBRANCH  18  19
ENDBRANCH   1  18
TORSDOF 7
ENDMDL
MODEL 9
REMARK VINA RESULT:      -7.7      1.750      2.337
REMARK  7 active torsions:
REMARK  status: ('A' for Active; 'I' for Inactive)
REMARK    1  A    between atoms: C_2  and  O_3 
REMARK    2  A    between atoms: O_3  and  C_4 
REMARK    3  A    between atoms: C_7  and  N_8 
REMARK    4  A    between atoms: N_8  and  C_9 
REMARK    5  A    between atoms: C_9  and  C_10 
REMARK       I    between atoms: C_10  and  N_11 
REMARK    6  A    between atoms: N_11  and  N_12 
REMARK    7  A    between atoms: C_13  and  C_14 
ROOT
HETATM    1  C   UNL     1      43.173 -13.913   2.831  1.00  0.00     0.255 C 
HETATM    2  N   UNL     1      42.999 -15.174   2.253  1.00  0.00    -0.246 N 
HETATM    3  O   UNL     1      44.065 -13.609   3.620  1.00  0.00    -0.270 OA
HETATM    4  H   UNL     1      42.091 -15.385   1.850  1.00  0.00     0.192 HD
ENDROOT
BRANCH   2   5
HETATM    5  N   UNL     1      43.682 -16.299   2.661  1.00  0.00    -0.184 NA
HETATM    6  C   UNL     1      43.194 -16.969   3.659  1.00  0.00     0.153 C 
BRANCH   6   7
HETATM    7  C   UNL     1      43.811 -18.215   4.082  1.00  0.00     0.018 A 
HETATM    8  C   UNL     1      43.906 -19.469   3.388  1.00  0.00     0.004 A 
HETATM    9  C   UNL     1      44.568 -20.362   4.231  1.00  0.00     0.043 A 
HETATM   10  C   UNL     1      43.483 -19.941   2.126  1.00  0.00     0.014 A 
HETATM   11  C   UNL     1      44.827 -21.694   3.880  1.00  0.00     0.030 A 
HETATM   12  N   UNL     1      44.871 -19.684   5.385  1.00  0.00    -0.358 N 
HETATM   13  C   UNL     1      44.394 -22.131   2.625  1.00  0.00     0.002 A 
HETATM   14  C   UNL     1      43.732 -21.267   1.757  1.00  0.00     0.001 A 
HETATM   15  H   UNL     1      45.350 -20.094   6.174  1.00  0.00     0.166 HD
HETATM   16  C   UNL     1      44.422 -18.389   5.318  1.00  0.00     0.018 A 
HETATM   17  C   UNL     1      44.612 -17.448   6.453  1.00  0.00     0.069 C 
ENDBRANCH   6   7
ENDBRANCH   2   5
BRANCH   1  18
HETATM   18  C   UNL     1      42.115 -12.903   2.376  1.00  0.00     0.224 C 
BRANCH  18  19
HETATM   19  N   UNL     1      41.595 -13.249   1.054  1.00  0.00    -0.381 N 
HETATM   20  H   UNL     1      40.678 -13.689   1.045  1.00  0.00     0.160 HD
BRANCH  19  21
HETATM   21  C   UNL     1      41.857 -12.450  -0.055  1.00  0.00     0.028 A 
HETATM   22  C   UNL     1      42.353 -11.145   0.027  1.00  0.00     0.032 A 
HETATM   23  C   UNL     1      42.700 -10.415  -1.120  1.00  0.00     0.039 A 
HETATM   24  C   UNL     1      42.582 -10.992  -2.382  1.00  0.00     0.068 A 
HETATM   25  C   UNL     1      42.104 -12.296  -2.480  1.00  0.00     0.039 A 
HETATM   26  C   UNL     1      41.759 -13.019  -1.332  1.00  0.00     0.032 A 
BRANCH  24  27
HETATM   27  O   UNL     1      42.904 -10.401  -3.572  1.00  0.00    -0.352 OA
BRANCH  27  28
HETATM   28  C   UNL     1      42.413 -11.029  -4.756  1.00  0.00     0.171 C 
HETATM   29  C   UNL     1      41.761  -9.963  -5.619  1.00  0.00     0.034 C 
ENDBRANCH  27  28
ENDBRANCH  24  27
ENDBRANCH  19  21
ENDBRANCH  18  19
ENDBRANCH   1  18
TORSDOF 7
ENDMDL
MODEL 10
REMARK VINA RESULT:      -7.5      2.631      8.663
REMARK  7 active torsions:
REMARK  status: ('A' for Active; 'I' for Inactive)
REMARK    1  A    between atoms: C_2  and  O_3 
REMARK    2  A    between atoms: O_3  and  C_4 
REMARK    3  A    between atoms: C_7  and  N_8 
REMARK    4  A    between atoms: N_8  and  C_9 
REMARK    5  A    between atoms: C_9  and  C_10 
REMARK       I    between atoms: C_10  and  N_11 
REMARK    6  A    between atoms: N_11  and  N_12 
REMARK    7  A    between atoms: C_13  and  C_14 
ROOT
HETATM    1  C   UNL     1      40.357 -14.940   2.338  1.00  0.00     0.255 C 
HETATM    2  N   UNL     1      41.360 -14.118   1.818  1.00  0.00    -0.246 N 
HETATM    3  O   UNL     1      39.404 -15.387   1.703  1.00  0.00    -0.270 OA
HETATM    4  H   UNL     1      41.924 -13.591   2.478  1.00  0.00     0.192 HD
ENDROOT
BRANCH   2   5
HETATM    5  N   UNL     1      41.293 -13.527   0.575  1.00  0.00    -0.184 NA
HETATM    6  C   UNL     1      41.961 -14.080  -0.389  1.00  0.00     0.153 C 
BRANCH   6   7
HETATM    7  C   UNL     1      41.862 -13.564  -1.744  1.00  0.00     0.018 A 
HETATM    8  C   UNL     1      42.201 -12.264  -2.254  1.00  0.00     0.004 A 
HETATM    9  C   UNL     1      41.896 -12.258  -3.616  1.00  0.00     0.043 A 
HETATM   10  C   UNL     1      42.729 -11.083  -1.690  1.00  0.00     0.014 A 
HETATM   11  C   UNL     1      42.090 -11.140  -4.436  1.00  0.00     0.030 A 
HETATM   12  N   UNL     1      41.400 -13.500  -3.927  1.00  0.00    -0.358 N 
HETATM   13  C   UNL     1      42.612  -9.984  -3.848  1.00  0.00     0.002 A 
HETATM   14  C   UNL     1      42.930  -9.954  -2.493  1.00  0.00     0.001 A 
HETATM   15  H   UNL     1      41.092 -13.772  -4.849  1.00  0.00     0.166 HD
HETATM   16  C   UNL     1      41.368 -14.301  -2.813  1.00  0.00     0.018 A 
HETATM   17  C   UNL     1      40.854 -15.695  -2.882  1.00  0.00     0.069 C 
ENDBRANCH   6   7
ENDBRANCH   2   5
BRANCH   1  18
HETATM   18  C   UNL     1      40.556 -15.250   3.825  1.00  0.00     0.224 C 
BRANCH  18  19
HETATM   19  N   UNL     1      40.526 -16.692   4.068  1.00  0.00    -0.381 N 
HETATM   20  H   UNL     1      39.648 -17.155   3.846  1.00  0.00     0.160 HD
BRANCH  19  21
HETATM   21  C   UNL     1      41.655 -17.480   3.868  1.00  0.00     0.028 A 
HETATM   22  C   UNL     1      42.378 -18.080   4.905  1.00  0.00     0.032 A 
HETATM   23  C   UNL     1      43.447 -18.951   4.649  1.00  0.00     0.039 A 
HETATM   24  C   UNL     1      43.801 -19.263   3.340  1.00  0.00     0.068 A 
HETATM   25  C   UNL     1      43.083 -18.686   2.296  1.00  0.00     0.039 A 
HETATM   26  C   UNL     1      42.016 -17.817   2.557  1.00  0.00     0.032 A 
BRANCH  24  27
HETATM   27  O   UNL     1      44.804 -20.109   2.955  1.00  0.00    -0.352 OA
BRANCH  27  28
HETATM   28  C   UNL     1      44.520 -21.508   3.002  1.00  0.00     0.171 C 
HETATM   29  C   UNL     1      44.222 -21.975   1.588  1.00  0.00     0.034 C 
ENDBRANCH  27  28
ENDBRANCH  24  27
ENDBRANCH  19  21
ENDBRANCH  18  19
ENDBRANCH   1  18
TORSDOF 7
ENDMDL
