MODEL 1
REMARK VINA RESULT:      -7.8      0.000      0.000
REMARK  5 active torsions:
REMARK  status: ('A' for Active; 'I' for Inactive)
REMARK    1  A    between atoms: C_2  and  C_3 
REMARK    2  A    between atoms: C_7  and  C_8 
REMARK       I    between atoms: C_8  and  N_9 
REMARK    3  A    between atoms: N_9  and  C_10 
REMARK    4  A    between atoms: C_13  and  C_14 
REMARK       I    between atoms: C_14  and  N_15 
REMARK    5  A    between atoms: N_15  and  C_16 
ROOT
HETATM    1  C   UNL     1      43.191 -12.665   7.068  1.00  0.00     0.035 A 
HETATM    2  C   UNL     1      44.090 -13.663   6.689  1.00  0.00     0.030 A 
HETATM    3  C   UNL     1      44.091 -14.168   5.381  1.00  0.00     0.019 A 
HETATM    4  C   UNL     1      43.179 -13.685   4.436  1.00  0.00     0.032 A 
HETATM    5  C   UNL     1      42.298 -12.664   4.805  1.00  0.00     0.019 A 
HETATM    6  C   UNL     1      42.303 -12.160   6.110  1.00  0.00     0.030 A 
ENDROOT
BRANCH   1   7
HETATM    7  N   UNL     1      43.106 -12.125   8.368  1.00  0.00    -0.322 N 
HETATM    8  C   UNL     1      44.107 -11.519   9.102  1.00  0.00     0.274 C 
HETATM    9  O   UNL     1      45.248 -11.308   8.707  1.00  0.00    -0.266 OA
HETATM   10  H   UNL     1      42.207 -12.212   8.819  1.00  0.00     0.169 HD
BRANCH   8  11
HETATM   11  C   UNL     1      43.716 -11.131  10.438  1.00  0.00     0.120 A 
HETATM   12  N   UNL     1      42.686 -11.764  11.083  1.00  0.00    -0.273 N 
HETATM   13  N   UNL     1      42.425 -11.284  12.308  1.00  0.00    -0.179 NA
HETATM   14  H   UNL     1      42.123 -12.530  10.722  1.00  0.00     0.189 HD
HETATM   15  C   UNL     1      43.318 -10.302  12.467  1.00  0.00     0.056 A 
HETATM   16  C   UNL     1      44.152 -10.171  11.331  1.00  0.00     0.065 A 
BRANCH  15  17
HETATM   17  C   UNL     1      43.343  -9.499  13.723  1.00  0.00     0.056 C 
HETATM   18  C   UNL     1      42.325  -9.990  14.742  1.00  0.00     0.011 C 
ENDBRANCH  15  17
ENDBRANCH   8  11
ENDBRANCH   1   7
BRANCH   4  19
HETATM   19  C   UNL     1      43.112 -14.207   3.040  1.00  0.00     0.252 C 
HETATM   20  N   UNL     1      43.357 -15.556   2.870  1.00  0.00    -0.352 N 
HETATM   21  H   UNL     1      43.367 -16.146   3.688  1.00  0.00     0.163 HD
HETATM   22  O   UNL     1      42.813 -13.454   2.119  1.00  0.00    -0.268 OA
BRANCH  20  23
HETATM   23  C   UNL     1      43.164 -16.211   1.580  1.00  0.00     0.084 C 
HETATM   24  C   UNL     1      44.255 -17.261   1.337  1.00  0.00     0.025 C 
HETATM   25  C   UNL     1      44.094 -18.502   2.216  1.00  0.00     0.002 C 
HETATM   26  C   UNL     1      42.696 -19.101   2.098  1.00  0.00     0.000 C 
HETATM   27  C   UNL     1      41.611 -18.066   2.377  1.00  0.00     0.002 C 
HETATM   28  C   UNL     1      41.764 -16.833   1.487  1.00  0.00     0.025 C 
ENDBRANCH  20  23
ENDBRANCH   4  19
TORSDOF 5
ENDMDL
MODEL 2
REMARK VINA RESULT:      -7.6      2.299      9.926
REMARK  5 active torsions:
REMARK  status: ('A' for Active; 'I' for Inactive)
REMARK    1  A    between atoms: C_2  and  C_3 
REMARK    2  A    between atoms: C_7  and  C_8 
REMARK       I    between atoms: C_8  and  N_9 
REMARK    3  A    between atoms: N_9  and  C_10 
REMARK    4  A    between atoms: C_13  and  C_14 
REMARK       I    between atoms: C_14  and  N_15 
REMARK    5  A    between atoms: N_15  and  C_16 
ROOT
HETATM    1  C   UNL     1      43.720 -14.610   6.176  1.00  0.00     0.035 A 
HETATM    2  C   UNL     1      42.779 -13.583   6.083  1.00  0.00     0.030 A 
HETATM    3  C   UNL     1      42.827 -12.486   6.954  1.00  0.00     0.019 A 
HETATM    4  C   UNL     1      43.815 -12.409   7.942  1.00  0.00     0.032 A 
HETATM    5  C   UNL     1      44.777 -13.422   8.017  1.00  0.00     0.019 A 
HETATM    6  C   UNL     1      44.729 -14.512   7.143  1.00  0.00     0.030 A 
ENDROOT
BRANCH   1   7
HETATM    7  N   UNL     1      43.724 -15.759   5.359  1.00  0.00    -0.322 N 
HETATM    8  C   UNL     1      42.990 -16.919   5.522  1.00  0.00     0.274 C 
HETATM    9  O   UNL     1      42.162 -17.117   6.404  1.00  0.00    -0.266 OA
HETATM   10  H   UNL     1      44.355 -15.733   4.572  1.00  0.00     0.169 HD
BRANCH   8  11
HETATM   11  C   UNL     1      43.273 -17.946   4.546  1.00  0.00     0.120 A 
HETATM   12  N   UNL     1      42.494 -18.090   3.428  1.00  0.00    -0.273 N 
HETATM   13  N   UNL     1      42.867 -19.097   2.623  1.00  0.00    -0.179 NA
HETATM   14  H   UNL     1      41.689 -17.524   3.172  1.00  0.00     0.189 HD
HETATM   15  C   UNL     1      43.926 -19.629   3.240  1.00  0.00     0.056 A 
HETATM   16  C   UNL     1      44.225 -18.942   4.442  1.00  0.00     0.065 A 
BRANCH  15  17
HETATM   17  C   UNL     1      44.631 -20.805   2.654  1.00  0.00     0.056 C 
HETATM   18  C   UNL     1      43.719 -21.640   1.768  1.00  0.00     0.011 C 
ENDBRANCH  15  17
ENDBRANCH   8  11
ENDBRANCH   1   7
BRANCH   4  19
HETATM   19  C   UNL     1      43.896 -11.283   8.917  1.00  0.00     0.252 C 
HETATM   20  N   UNL     1      42.742 -10.984   9.614  1.00  0.00    -0.352 N 
HETATM   21  H   UNL     1      41.981 -11.646   9.586  1.00  0.00     0.163 HD
HETATM   22  O   UNL     1      44.961 -10.701   9.092  1.00  0.00    -0.268 OA
BRANCH  20  23
HETATM   23  C   UNL     1      42.739 -10.014  10.705  1.00  0.00     0.084 C 
HETATM   24  C   UNL     1      41.305  -9.598  11.056  1.00  0.00     0.025 C 
HETATM   25  C   UNL     1      40.520 -10.699  11.768  1.00  0.00     0.002 C 
HETATM   26  C   UNL     1      41.270 -11.229  12.987  1.00  0.00     0.000 C 
HETATM   27  C   UNL     1      42.683 -11.680  12.632  1.00  0.00     0.002 C 
HETATM   28  C   UNL     1      43.471 -10.571  11.934  1.00  0.00     0.025 C 
ENDBRANCH  20  23
ENDBRANCH   4  19
TORSDOF 5
ENDMDL
MODEL 3
REMARK VINA RESULT:      -7.4      3.403      9.629
REMARK  5 active torsions:
REMARK  status: ('A' for Active; 'I' for Inactive)
REMARK    1  A    between atoms: C_2  and  C_3 
REMARK    2  A    between atoms: C_7  and  C_8 
REMARK       I    between atoms: C_8  and  N_9 
REMARK    3  A    between atoms: N_9  and  C_10 
REMARK    4  A    between atoms: C_13  and  C_14 
REMARK       I    between atoms: C_14  and  N_15 
REMARK    5  A    between atoms: N_15  and  C_16 
ROOT
HETATM    1  C   UNL     1      42.458 -15.912   5.037  1.00  0.00     0.035 A 
HETATM    2  C   UNL     1      43.201 -14.738   4.896  1.00  0.00     0.030 A 
HETATM    3  C   UNL     1      42.643 -13.494   5.221  1.00  0.00     0.019 A 
HETATM    4  C   UNL     1      41.324 -13.408   5.681  1.00  0.00     0.032 A 
HETATM    5  C   UNL     1      40.589 -14.586   5.852  1.00  0.00     0.019 A 
HETATM    6  C   UNL     1      41.151 -15.826   5.531  1.00  0.00     0.030 A 
ENDROOT
BRANCH   1   7
HETATM    7  N   UNL     1      42.934 -17.197   4.706  1.00  0.00    -0.322 N 
HETATM    8  C   UNL     1      43.959 -17.903   5.306  1.00  0.00     0.274 C 
HETATM    9  O   UNL     1      44.603 -17.530   6.281  1.00  0.00    -0.266 OA
HETATM   10  H   UNL     1      42.481 -17.643   3.922  1.00  0.00     0.169 HD
BRANCH   8  11
HETATM   11  C   UNL     1      44.252 -19.174   4.685  1.00  0.00     0.120 A 
HETATM   12  N   UNL     1      44.715 -20.231   5.425  1.00  0.00    -0.273 N 
HETATM   13  N   UNL     1      44.960 -21.339   4.709  1.00  0.00    -0.179 NA
HETATM   14  H   UNL     1      44.885 -20.242   6.427  1.00  0.00     0.189 HD
HETATM   15  C   UNL     1      44.647 -20.992   3.458  1.00  0.00     0.056 A 
HETATM   16  C   UNL     1      44.193 -19.652   3.390  1.00  0.00     0.065 A 
BRANCH  15  17
HETATM   17  C   UNL     1      44.799 -21.967   2.341  1.00  0.00     0.056 C 
HETATM   18  C   UNL     1      43.669 -21.864   1.327  1.00  0.00     0.011 C 
ENDBRANCH  15  17
ENDBRANCH   8  11
ENDBRANCH   1   7
BRANCH   4  19
HETATM   19  C   UNL     1      40.667 -12.110   6.011  1.00  0.00     0.252 C 
HETATM   20  N   UNL     1      40.568 -11.790   7.351  1.00  0.00    -0.352 N 
HETATM   21  H   UNL     1      41.106 -12.328   8.013  1.00  0.00     0.163 HD
HETATM   22  O   UNL     1      40.283 -11.373   5.110  1.00  0.00    -0.268 OA
BRANCH  20  23
HETATM   23  C   UNL     1      40.091 -10.481   7.790  1.00  0.00     0.084 C 
HETATM   24  C   UNL     1      39.221 -10.615   9.046  1.00  0.00     0.025 C 
HETATM   25  C   UNL     1      40.029 -10.962  10.297  1.00  0.00     0.002 C 
HETATM   26  C   UNL     1      41.185  -9.990  10.510  1.00  0.00     0.000 C 
HETATM   27  C   UNL     1      42.074  -9.886   9.275  1.00  0.00     0.002 C 
HETATM   28  C   UNL     1      41.267  -9.524   8.028  1.00  0.00     0.025 C 
ENDBRANCH  20  23
ENDBRANCH   4  19
TORSDOF 5
ENDMDL
MODEL 4
REMARK VINA RESULT:      -7.1      6.324     10.182
REMARK  5 active torsions:
REMARK  status: ('A' for Active; 'I' for Inactive)
REMARK    1  A    between atoms: C_2  and  C_3 
REMARK    2  A    between atoms: C_7  and  C_8 
REMARK       I    between atoms: C_8  and  N_9 
REMARK    3  A    between atoms: N_9  and  C_10 
REMARK    4  A    between atoms: C_13  and  C_14 
REMARK       I    between atoms: C_14  and  N_15 
REMARK    5  A    between atoms: N_15  and  C_16 
ROOT
HETATM    1  C   UNL     1      41.137 -16.235   0.800  1.00  0.00     0.035 A 
HETATM    2  C   UNL     1      40.864 -16.521   2.139  1.00  0.00     0.030 A 
HETATM    3  C   UNL     1      41.769 -17.261   2.912  1.00  0.00     0.019 A 
HETATM    4  C   UNL     1      42.957 -17.738   2.348  1.00  0.00     0.032 A 
HETATM    5  C   UNL     1      43.246 -17.427   1.015  1.00  0.00     0.019 A 
HETATM    6  C   UNL     1      42.343 -16.684   0.248  1.00  0.00     0.030 A 
ENDROOT
BRANCH   1   7
HETATM    7  N   UNL     1      40.268 -15.523  -0.053  1.00  0.00    -0.322 N 
HETATM    8  C   UNL     1      40.282 -14.171  -0.341  1.00  0.00     0.274 C 
HETATM    9  O   UNL     1      41.105 -13.365   0.077  1.00  0.00    -0.266 OA
HETATM   10  H   UNL     1      39.538 -16.068  -0.487  1.00  0.00     0.169 HD
BRANCH   8  11
HETATM   11  C   UNL     1      39.209 -13.735  -1.204  1.00  0.00     0.120 A 
HETATM   12  N   UNL     1      38.630 -14.595  -2.100  1.00  0.00    -0.273 N 
HETATM   13  N   UNL     1      37.661 -14.043  -2.846  1.00  0.00    -0.179 NA
HETATM   14  H   UNL     1      38.869 -15.572  -2.244  1.00  0.00     0.189 HD
HETATM   15  C   UNL     1      37.606 -12.777  -2.421  1.00  0.00     0.056 A 
HETATM   16  C   UNL     1      38.548 -12.535  -1.391  1.00  0.00     0.065 A 
BRANCH  15  17
HETATM   17  C   UNL     1      36.641 -11.816  -3.027  1.00  0.00     0.056 C 
HETATM   18  C   UNL     1      35.902 -12.414  -4.215  1.00  0.00     0.011 C 
ENDBRANCH  15  17
ENDBRANCH   8  11
ENDBRANCH   1   7
BRANCH   4  19
HETATM   19  C   UNL     1      43.941 -18.558   3.112  1.00  0.00     0.252 C 
HETATM   20  N   UNL     1      44.262 -18.118   4.381  1.00  0.00    -0.352 N 
HETATM   21  H   UNL     1      43.685 -17.404   4.799  1.00  0.00     0.163 HD
HETATM   22  O   UNL     1      44.392 -19.587   2.620  1.00  0.00    -0.268 OA
BRANCH  20  23
HETATM   23  C   UNL     1      45.087 -18.918   5.282  1.00  0.00     0.084 C 
HETATM   24  C   UNL     1      45.576 -18.071   6.463  1.00  0.00     0.025 C 
HETATM   25  C   UNL     1      44.465 -17.735   7.458  1.00  0.00     0.002 C 
HETATM   26  C   UNL     1      43.727 -18.986   7.925  1.00  0.00     0.000 C 
HETATM   27  C   UNL     1      43.206 -19.808   6.751  1.00  0.00     0.002 C 
HETATM   28  C   UNL     1      44.321 -20.157   5.766  1.00  0.00     0.025 C 
ENDBRANCH  20  23
ENDBRANCH   4  19
TORSDOF 5
ENDMDL
MODEL 5
REMARK VINA RESULT:      -7.1      2.828      9.935
REMARK  5 active torsions:
REMARK  status: ('A' for Active; 'I' for Inactive)
REMARK    1  A    between atoms: C_2  and  C_3 
REMARK    2  A    between atoms: C_7  and  C_8 
REMARK       I    between atoms: C_8  and  N_9 
REMARK    3  A    between atoms: N_9  and  C_10 
REMARK    4  A    between atoms: C_13  and  C_14 
REMARK       I    between atoms: C_14  and  N_15 
REMARK    5  A    between atoms: N_15  and  C_16 
ROOT
HETATM    1  C   UNL     1      41.567 -14.939   4.987  1.00  0.00     0.035 A 
HETATM    2  C   UNL     1      40.203 -14.704   5.167  1.00  0.00     0.030 A 
HETATM    3  C   UNL     1      39.753 -13.516   5.759  1.00  0.00     0.019 A 
HETATM    4  C   UNL     1      40.667 -12.549   6.191  1.00  0.00     0.032 A 
HETATM    5  C   UNL     1      42.033 -12.770   5.985  1.00  0.00     0.019 A 
HETATM    6  C   UNL     1      42.478 -13.954   5.389  1.00  0.00     0.030 A 
ENDROOT
BRANCH   1   7
HETATM    7  N   UNL     1      42.103 -16.117   4.428  1.00  0.00    -0.322 N 
HETATM    8  C   UNL     1      42.558 -16.313   3.138  1.00  0.00     0.274 C 
HETATM    9  O   UNL     1      42.612 -15.454   2.265  1.00  0.00    -0.266 OA
HETATM   10  H   UNL     1      42.138 -16.916   5.043  1.00  0.00     0.169 HD
BRANCH   8  11
HETATM   11  C   UNL     1      42.985 -17.664   2.855  1.00  0.00     0.120 A 
HETATM   12  N   UNL     1      42.379 -18.405   1.874  1.00  0.00    -0.273 N 
HETATM   13  N   UNL     1      42.870 -19.646   1.739  1.00  0.00    -0.179 NA
HETATM   14  H   UNL     1      41.618 -18.106   1.270  1.00  0.00     0.189 HD
HETATM   15  C   UNL     1      43.830 -19.718   2.666  1.00  0.00     0.056 A 
HETATM   16  C   UNL     1      43.947 -18.504   3.385  1.00  0.00     0.065 A 
BRANCH  15  17
HETATM   17  C   UNL     1      44.618 -20.970   2.844  1.00  0.00     0.056 C 
HETATM   18  C   UNL     1      44.311 -22.002   1.768  1.00  0.00     0.011 C 
ENDBRANCH  15  17
ENDBRANCH   8  11
ENDBRANCH   1   7
BRANCH   4  19
HETATM   19  C   UNL     1      40.248 -11.282   6.857  1.00  0.00     0.252 C 
HETATM   20  N   UNL     1      40.393 -11.227   8.230  1.00  0.00    -0.352 N 
HETATM   21  H   UNL     1      40.945 -11.940   8.681  1.00  0.00     0.163 HD
HETATM   22  O   UNL     1      39.837 -10.344   6.183  1.00  0.00    -0.268 OA
BRANCH  20  23
HETATM   23  C   UNL     1      40.168  -9.990   8.972  1.00  0.00     0.084 C 
HETATM   24  C   UNL     1      39.460 -10.277  10.302  1.00  0.00     0.025 C 
HETATM   25  C   UNL     1      40.365 -10.962  11.326  1.00  0.00     0.002 C 
HETATM   26  C   UNL     1      41.666 -10.192  11.532  1.00  0.00     0.000 C 
HETATM   27  C   UNL     1      42.392  -9.940  10.215  1.00  0.00     0.002 C 
HETATM   28  C   UNL     1      41.490  -9.241   9.198  1.00  0.00     0.025 C 
ENDBRANCH  20  23
ENDBRANCH   4  19
TORSDOF 5
ENDMDL
MODEL 6
REMARK VINA RESULT:      -6.9      6.552     10.370
REMARK  5 active torsions:
REMARK  status: ('A' for Active; 'I' for Inactive)
REMARK    1  A    between atoms: C_2  and  C_3 
REMARK    2  A    between atoms: C_7  and  C_8 
REMARK       I    between atoms: C_8  and  N_9 
REMARK    3  A    between atoms: N_9  and  C_10 
REMARK    4  A    between atoms: C_13  and  C_14 
REMARK       I    between atoms: C_14  and  N_15 
REMARK    5  A    between atoms: N_15  and  C_16 
ROOT
HETATM    1  C   UNL     1      40.954 -15.860   1.189  1.00  0.00     0.035 A 
HETATM    2  C   UNL     1      40.376 -16.338   2.367  1.00  0.00     0.030 A 
HETATM    3  C   UNL     1      41.176 -16.734   3.447  1.00  0.00     0.019 A 
HETATM    4  C   UNL     1      42.571 -16.670   3.357  1.00  0.00     0.032 A 
HETATM    5  C   UNL     1      43.151 -16.164   2.188  1.00  0.00     0.019 A 
HETATM    6  C   UNL     1      42.349 -15.764   1.115  1.00  0.00     0.030 A 
ENDROOT
BRANCH   1   7
HETATM    7  N   UNL     1      40.222 -15.469   0.049  1.00  0.00    -0.322 N 
HETATM    8  C   UNL     1      39.992 -14.187  -0.412  1.00  0.00     0.274 C 
HETATM    9  O   UNL     1      40.440 -13.161   0.087  1.00  0.00    -0.266 OA
HETATM   10  H   UNL     1      39.804 -16.220  -0.480  1.00  0.00     0.169 HD
BRANCH   8  11
HETATM   11  C   UNL     1      39.141 -14.117  -1.578  1.00  0.00     0.120 A 
HETATM   12  N   UNL     1      39.262 -15.026  -2.596  1.00  0.00    -0.273 N 
HETATM   13  N   UNL     1      38.418 -14.823  -3.619  1.00  0.00    -0.179 NA
HETATM   14  H   UNL     1      39.914 -15.805  -2.640  1.00  0.00     0.189 HD
HETATM   15  C   UNL     1      37.723 -13.742  -3.255  1.00  0.00     0.056 A 
HETATM   16  C   UNL     1      38.131 -13.266  -1.986  1.00  0.00     0.065 A 
BRANCH  15  17
HETATM   17  C   UNL     1      36.672 -13.181  -4.153  1.00  0.00     0.056 C 
HETATM   18  C   UNL     1      35.721 -14.252  -4.666  1.00  0.00     0.011 C 
ENDBRANCH  15  17
ENDBRANCH   8  11
ENDBRANCH   1   7
BRANCH   4  19
HETATM   19  C   UNL     1      43.473 -17.109   4.461  1.00  0.00     0.252 C 
HETATM   20  N   UNL     1      43.997 -18.383   4.362  1.00  0.00    -0.352 N 
HETATM   21  H   UNL     1      43.915 -18.867   3.481  1.00  0.00     0.163 HD
HETATM   22  O   UNL     1      43.744 -16.336   5.373  1.00  0.00    -0.268 OA
BRANCH  20  23
HETATM   23  C   UNL     1      45.013 -18.866   5.294  1.00  0.00     0.084 C 
HETATM   24  C   UNL     1      44.470 -18.879   6.728  1.00  0.00     0.025 C 
HETATM   25  C   UNL     1      43.441 -19.984   6.967  1.00  0.00     0.002 C 
HETATM   26  C   UNL     1      43.974 -21.352   6.550  1.00  0.00     0.000 C 
HETATM   27  C   UNL     1      44.478 -21.350   5.111  1.00  0.00     0.002 C 
HETATM   28  C   UNL     1      45.519 -20.254   4.878  1.00  0.00     0.025 C 
ENDBRANCH  20  23
ENDBRANCH   4  19
TORSDOF 5
ENDMDL
MODEL 7
REMARK VINA RESULT:      -6.9      6.810      8.946
REMARK  5 active torsions:
REMARK  status: ('A' for Active; 'I' for Inactive)
REMARK    1  A    between atoms: C_2  and  C_3 
REMARK    2  A    between atoms: C_7  and  C_8 
REMARK       I    between atoms: C_8  and  N_9 
REMARK    3  A    between atoms: N_9  and  C_10 
REMARK    4  A    between atoms: C_13  and  C_14 
REMARK       I    between atoms: C_14  and  N_15 
REMARK    5  A    between atoms: N_15  and  C_16 
ROOT
HETATM    1  C   UNL     1      41.690 -16.594   1.919  1.00  0.00     0.035 A 
HETATM    2  C   UNL     1      42.266 -16.171   0.720  1.00  0.00     0.030 A 
HETATM    3  C   UNL     1      41.621 -15.228  -0.092  1.00  0.00     0.019 A 
HETATM    4  C   UNL     1      40.378 -14.705   0.282  1.00  0.00     0.032 A 
HETATM    5  C   UNL     1      39.813 -15.105   1.498  1.00  0.00     0.019 A 
HETATM    6  C   UNL     1      40.463 -16.042   2.307  1.00  0.00     0.030 A 
ENDROOT
BRANCH   1   7
HETATM    7  N   UNL     1      42.259 -17.557   2.777  1.00  0.00    -0.322 N 
HETATM    8  C   UNL     1      43.066 -17.341   3.878  1.00  0.00     0.274 C 
HETATM    9  O   UNL     1      43.384 -16.244   4.321  1.00  0.00    -0.266 OA
HETATM   10  H   UNL     1      42.066 -18.519   2.543  1.00  0.00     0.169 HD
BRANCH   8  11
HETATM   11  C   UNL     1      43.547 -18.548   4.511  1.00  0.00     0.120 A 
HETATM   12  N   UNL     1      43.543 -18.679   5.875  1.00  0.00    -0.273 N 
HETATM   13  N   UNL     1      44.036 -19.846   6.317  1.00  0.00    -0.179 NA
HETATM   14  H   UNL     1      43.216 -17.992   6.550  1.00  0.00     0.189 HD
HETATM   15  C   UNL     1      44.375 -20.498   5.201  1.00  0.00     0.056 A 
HETATM   16  C   UNL     1      44.083 -19.734   4.045  1.00  0.00     0.065 A 
BRANCH  15  17
HETATM   17  C   UNL     1      44.984 -21.857   5.275  1.00  0.00     0.056 C 
HETATM   18  C   UNL     1      44.700 -22.684   4.029  1.00  0.00     0.011 C 
ENDBRANCH  15  17
ENDBRANCH   8  11
ENDBRANCH   1   7
BRANCH   4  19
HETATM   19  C   UNL     1      39.629 -13.725  -0.557  1.00  0.00     0.252 C 
HETATM   20  N   UNL     1      40.374 -12.730  -1.161  1.00  0.00    -0.352 N 
HETATM   21  H   UNL     1      41.378 -12.827  -1.176  1.00  0.00     0.163 HD
HETATM   22  O   UNL     1      38.419 -13.851  -0.712  1.00  0.00    -0.268 OA
BRANCH  20  23
HETATM   23  C   UNL     1      39.780 -11.813  -2.129  1.00  0.00     0.084 C 
HETATM   24  C   UNL     1      40.217 -10.370  -1.847  1.00  0.00     0.025 C 
HETATM   25  C   UNL     1      41.682 -10.110  -2.199  1.00  0.00     0.002 C 
HETATM   26  C   UNL     1      42.001 -10.528  -3.631  1.00  0.00     0.000 C 
HETATM   27  C   UNL     1      41.603 -11.975  -3.902  1.00  0.00     0.002 C 
HETATM   28  C   UNL     1      40.134 -12.229  -3.564  1.00  0.00     0.025 C 
ENDBRANCH  20  23
ENDBRANCH   4  19
TORSDOF 5
ENDMDL
MODEL 8
REMARK VINA RESULT:      -6.9      3.149      3.576
REMARK  5 active torsions:
REMARK  status: ('A' for Active; 'I' for Inactive)
REMARK    1  A    between atoms: C_2  and  C_3 
REMARK    2  A    between atoms: C_7  and  C_8 
REMARK       I    between atoms: C_8  and  N_9 
REMARK    3  A    between atoms: N_9  and  C_10 
REMARK    4  A    between atoms: C_13  and  C_14 
REMARK       I    between atoms: C_14  and  N_15 
REMARK    5  A    between atoms: N_15  and  C_16 
ROOT
HETATM    1  C   UNL     1      39.760 -12.918   5.929  1.00  0.00     0.035 A 
HETATM    2  C   UNL     1      39.406 -12.395   4.684  1.00  0.00     0.030 A 
HETATM    3  C   UNL     1      39.577 -13.150   3.515  1.00  0.00     0.019 A 
HETATM    4  C   UNL     1      40.118 -14.439   3.577  1.00  0.00     0.032 A 
HETATM    5  C   UNL     1      40.445 -14.976   4.828  1.00  0.00     0.019 A 
HETATM    6  C   UNL     1      40.268 -14.221   5.992  1.00  0.00     0.030 A 
ENDROOT
BRANCH   1   7
HETATM    7  N   UNL     1      39.647 -12.214   7.146  1.00  0.00    -0.322 N 
HETATM    8  C   UNL     1      40.497 -11.247   7.648  1.00  0.00     0.274 C 
HETATM    9  O   UNL     1      41.485 -10.803   7.075  1.00  0.00    -0.266 OA
HETATM   10  H   UNL     1      38.859 -12.465   7.724  1.00  0.00     0.169 HD
BRANCH   8  11
HETATM   11  C   UNL     1      40.140 -10.764   8.962  1.00  0.00     0.120 A 
HETATM   12  N   UNL     1      40.884 -11.100  10.063  1.00  0.00    -0.273 N 
HETATM   13  N   UNL     1      40.421 -10.594  11.216  1.00  0.00    -0.179 NA
HETATM   14  H   UNL     1      41.719 -11.680  10.077  1.00  0.00     0.189 HD
HETATM   15  C   UNL     1      39.335  -9.905  10.854  1.00  0.00     0.056 A 
HETATM   16  C   UNL     1      39.120  -9.973   9.456  1.00  0.00     0.065 A 
BRANCH  15  17
HETATM   17  C   UNL     1      38.517  -9.191  11.876  1.00  0.00     0.056 C 
HETATM   18  C   UNL     1      37.712  -8.048  11.274  1.00  0.00     0.011 C 
ENDBRANCH  15  17
ENDBRANCH   8  11
ENDBRANCH   1   7
BRANCH   4  19
HETATM   19  C   UNL     1      40.353 -15.276   2.365  1.00  0.00     0.252 C 
HETATM   20  N   UNL     1      41.400 -16.174   2.427  1.00  0.00    -0.352 N 
HETATM   21  H   UNL     1      41.815 -16.364   3.327  1.00  0.00     0.163 HD
HETATM   22  O   UNL     1      39.608 -15.172   1.397  1.00  0.00    -0.268 OA
BRANCH  20  23
HETATM   23  C   UNL     1      41.629 -17.155   1.370  1.00  0.00     0.084 C 
HETATM   24  C   UNL     1      42.935 -16.853   0.624  1.00  0.00     0.025 C 
HETATM   25  C   UNL     1      44.181 -17.162   1.454  1.00  0.00     0.002 C 
HETATM   26  C   UNL     1      44.157 -18.586   2.000  1.00  0.00     0.000 C 
HETATM   27  C   UNL     1      42.876 -18.875   2.776  1.00  0.00     0.002 C 
HETATM   28  C   UNL     1      41.631 -18.581   1.939  1.00  0.00     0.025 C 
ENDBRANCH  20  23
ENDBRANCH   4  19
TORSDOF 5
ENDMDL
MODEL 9
REMARK VINA RESULT:      -6.7      7.069     10.555
REMARK  5 active torsions:
REMARK  status: ('A' for Active; 'I' for Inactive)
REMARK    1  A    between atoms: C_2  and  C_3 
REMARK    2  A    between atoms: C_7  and  C_8 
REMARK       I    between atoms: C_8  and  N_9 
REMARK    3  A    between atoms: N_9  and  C_10 
REMARK    4  A    between atoms: C_13  and  C_14 
REMARK       I    between atoms: C_14  and  N_15 
REMARK    5  A    between atoms: N_15  and  C_16 
ROOT
HETATM    1  C   UNL     1      39.229 -14.212   2.002  1.00  0.00     0.035 A 
HETATM    2  C   UNL     1      39.333 -12.903   2.474  1.00  0.00     0.030 A 
HETATM    3  C   UNL     1      38.431 -11.916   2.052  1.00  0.00     0.019 A 
HETATM    4  C   UNL     1      37.417 -12.227   1.139  1.00  0.00     0.032 A 
HETATM    5  C   UNL     1      37.294 -13.546   0.688  1.00  0.00     0.019 A 
HETATM    6  C   UNL     1      38.193 -14.528   1.115  1.00  0.00     0.030 A 
ENDROOT
BRANCH   1   7
HETATM    7  N   UNL     1      40.112 -15.254   2.354  1.00  0.00    -0.322 N 
HETATM    8  C   UNL     1      41.036 -15.892   1.548  1.00  0.00     0.274 C 
HETATM    9  O   UNL     1      41.272 -15.610   0.379  1.00  0.00    -0.266 OA
HETATM   10  H   UNL     1      40.042 -15.583   3.306  1.00  0.00     0.169 HD
BRANCH   8  11
HETATM   11  C   UNL     1      41.744 -16.974   2.194  1.00  0.00     0.120 A 
HETATM   12  N   UNL     1      41.644 -17.174   3.546  1.00  0.00    -0.273 N 
HETATM   13  N   UNL     1      42.372 -18.204   4.004  1.00  0.00    -0.179 NA
HETATM   14  H   UNL     1      41.093 -16.627   4.202  1.00  0.00     0.189 HD
HETATM   15  C   UNL     1      42.968 -18.691   2.912  1.00  0.00     0.056 A 
HETATM   16  C   UNL     1      42.603 -17.963   1.754  1.00  0.00     0.065 A 
BRANCH  15  17
HETATM   17  C   UNL     1      43.891 -19.858   3.011  1.00  0.00     0.056 C 
HETATM   18  C   UNL     1      43.711 -20.834   1.857  1.00  0.00     0.011 C 
ENDBRANCH  15  17
ENDBRANCH   8  11
ENDBRANCH   1   7
BRANCH   4  19
HETATM   19  C   UNL     1      36.450 -11.212   0.629  1.00  0.00     0.252 C 
HETATM   20  N   UNL     1      35.307 -11.015   1.379  1.00  0.00    -0.352 N 
HETATM   21  H   UNL     1      35.274 -11.400   2.311  1.00  0.00     0.163 HD
HETATM   22  O   UNL     1      36.709 -10.576  -0.387  1.00  0.00    -0.268 OA
BRANCH  20  23
HETATM   23  C   UNL     1      34.367  -9.941   1.070  1.00  0.00     0.084 C 
HETATM   24  C   UNL     1      32.921 -10.429   1.219  1.00  0.00     0.025 C 
HETATM   25  C   UNL     1      32.508 -10.641   2.675  1.00  0.00     0.002 C 
HETATM   26  C   UNL     1      32.778  -9.403   3.525  1.00  0.00     0.000 C 
HETATM   27  C   UNL     1      34.226  -8.940   3.409  1.00  0.00     0.002 C 
HETATM   28  C   UNL     1      34.632  -8.713   1.953  1.00  0.00     0.025 C 
ENDBRANCH  20  23
ENDBRANCH   4  19
TORSDOF 5
ENDMDL
MODEL 10
REMARK VINA RESULT:      -6.6      2.748      3.743
REMARK  5 active torsions:
REMARK  status: ('A' for Active; 'I' for Inactive)
REMARK    1  A    between atoms: C_2  and  C_3 
REMARK    2  A    between atoms: C_7  and  C_8 
REMARK       I    between atoms: C_8  and  N_9 
REMARK    3  A    between atoms: N_9  and  C_10 
REMARK    4  A    between atoms: C_13  and  C_14 
REMARK       I    between atoms: C_14  and  N_15 
REMARK    5  A    between atoms: N_15  and  C_16 
ROOT
HETATM    1  C   UNL     1      42.964 -13.707   5.669  1.00  0.00     0.035 A 
HETATM    2  C   UNL     1      43.063 -15.064   5.359  1.00  0.00     0.030 A 
HETATM    3  C   UNL     1      42.769 -15.528   4.070  1.00  0.00     0.019 A 
HETATM    4  C   UNL     1      42.357 -14.637   3.073  1.00  0.00     0.032 A 
HETATM    5  C   UNL     1      42.286 -13.272   3.373  1.00  0.00     0.019 A 
HETATM    6  C   UNL     1      42.585 -12.813   4.660  1.00  0.00     0.030 A 
ENDROOT
BRANCH   1   7
HETATM    7  N   UNL     1      43.213 -13.164   6.946  1.00  0.00    -0.322 N 
HETATM    8  C   UNL     1      44.411 -13.133   7.635  1.00  0.00     0.274 C 
HETATM    9  O   UNL     1      45.485 -13.544   7.211  1.00  0.00    -0.266 OA
HETATM   10  H   UNL     1      42.413 -12.768   7.417  1.00  0.00     0.169 HD
BRANCH   8  11
HETATM   11  C   UNL     1      44.322 -12.563   8.960  1.00  0.00     0.120 A 
HETATM   12  N   UNL     1      44.351 -13.361  10.074  1.00  0.00    -0.273 N 
HETATM   13  N   UNL     1      44.240 -12.694  11.233  1.00  0.00    -0.179 NA
HETATM   14  H   UNL     1      44.440 -14.374  10.094  1.00  0.00     0.189 HD
HETATM   15  C   UNL     1      44.133 -11.415  10.860  1.00  0.00     0.056 A 
HETATM   16  C   UNL     1      44.186 -11.279   9.452  1.00  0.00     0.065 A 
BRANCH  15  17
HETATM   17  C   UNL     1      43.975 -10.340  11.881  1.00  0.00     0.056 C 
HETATM   18  C   UNL     1      42.961 -10.709  12.954  1.00  0.00     0.011 C 
ENDBRANCH  15  17
ENDBRANCH   8  11
ENDBRANCH   1   7
BRANCH   4  19
HETATM   19  C   UNL     1      41.999 -15.077   1.693  1.00  0.00     0.252 C 
HETATM   20  N   UNL     1      41.168 -14.241   0.974  1.00  0.00    -0.352 N 
HETATM   21  H   UNL     1      41.011 -13.307   1.321  1.00  0.00     0.163 HD
HETATM   22  O   UNL     1      42.470 -16.115   1.241  1.00  0.00    -0.268 OA
BRANCH  20  23
HETATM   23  C   UNL     1      40.877 -14.483  -0.437  1.00  0.00     0.084 C 
HETATM   24  C   UNL     1      39.426 -14.109  -0.762  1.00  0.00     0.025 C 
HETATM   25  C   UNL     1      39.185 -12.599  -0.766  1.00  0.00     0.002 C 
HETATM   26  C   UNL     1      40.174 -11.872  -1.672  1.00  0.00     0.000 C 
HETATM   27  C   UNL     1      41.619 -12.213  -1.323  1.00  0.00     0.002 C 
HETATM   28  C   UNL     1      41.862 -13.722  -1.336  1.00  0.00     0.025 C 
ENDBRANCH  20  23
ENDBRANCH   4  19
TORSDOF 5
ENDMDL
