MODEL 1
REMARK VINA RESULT:      -8.3      0.000      0.000
REMARK  5 active torsions:
REMARK  status: ('A' for Active; 'I' for Inactive)
REMARK    1  A    between atoms: C_2  and  C_3 
REMARK    2  A    between atoms: C_8  and  N_9 
REMARK       I    between atoms: N_9  and  C_10 
REMARK       I    between atoms: C_10  and  N_11 
REMARK    3  A    between atoms: N_11  and  C_12 
REMARK    4  A    between atoms: C_12  and  C_13 
REMARK    5  A    between atoms: C_13  and  C_14 
ROOT
HETATM    1  N   UNL     1      40.920 -15.506  -0.514  1.00  0.00    -0.305 N 
HETATM    2  C   UNL     1      41.893 -15.472   0.456  1.00  0.00     0.320 C 
HETATM    3  N   UNL     1      42.480 -16.708   0.616  1.00  0.00    -0.342 N 
HETATM    4  O   UNL     1      42.243 -14.487   1.091  1.00  0.00    -0.247 OA
HETATM    5  H   UNL     1      41.020 -16.233  -1.206  1.00  0.00     0.171 HD
HETATM    6  H   UNL     1      41.945 -17.515   0.333  1.00  0.00     0.164 HD
ENDROOT
BRANCH   3   7
HETATM    7  C   UNL     1      43.516 -16.936   1.614  1.00  0.00     0.138 C 
BRANCH   7   8
HETATM    8  C   UNL     1      43.030 -17.661   2.900  1.00  0.00     0.003 C 
HETATM    9  C   UNL     1      43.511 -16.870   4.148  1.00  0.00     0.016 C 
HETATM   10  C   UNL     1      42.610 -17.338   5.289  1.00  0.00     0.001 C 
HETATM   11  C   UNL     1      41.306 -17.774   4.626  1.00  0.00     0.001 C 
HETATM   12  C   UNL     1      41.504 -17.516   3.132  1.00  0.00     0.016 C 
BRANCH   8  13
HETATM   13  C   UNL     1      43.516 -19.126   2.875  1.00  0.00    -0.048 A 
HETATM   14  C   UNL     1      44.419 -19.620   3.835  1.00  0.00     0.008 A 
HETATM   15  C   UNL     1      44.866 -20.945   3.801  1.00  0.00     0.001 A 
HETATM   16  C   UNL     1      44.441 -21.803   2.794  1.00  0.00     0.000 A 
HETATM   17  C   UNL     1      43.572 -21.333   1.816  1.00  0.00     0.001 A 
HETATM   18  C   UNL     1      43.119 -20.012   1.855  1.00  0.00     0.008 A 
ENDBRANCH   8  13
ENDBRANCH   7   8
ENDBRANCH   3   7
BRANCH   1  19
HETATM   19  C   UNL     1      40.052 -14.464  -0.816  1.00  0.00     0.095 A 
HETATM   20  C   UNL     1      40.137 -13.711  -1.970  1.00  0.00     0.107 A 
HETATM   21  O   UNL     1      39.153 -12.775  -1.974  1.00  0.00    -0.215 OA
HETATM   22  N   UNL     1      38.383 -12.908  -0.842  1.00  0.00    -0.131 NA
HETATM   23  C   UNL     1      38.913 -13.925  -0.148  1.00  0.00     0.087 A 
HETATM   24  C   UNL     1      38.241 -14.342   1.106  1.00  0.00     0.075 C 
BRANCH  20  25
HETATM   25  C   UNL     1      41.044 -13.681  -3.142  1.00  0.00     0.065 C 
HETATM   26  C   UNL     1      42.395 -13.075  -2.791  1.00  0.00     0.012 C 
ENDBRANCH  20  25
ENDBRANCH   1  19
TORSDOF 5
ENDMDL
MODEL 2
REMARK VINA RESULT:      -8.2      0.617      2.071
REMARK  5 active torsions:
REMARK  status: ('A' for Active; 'I' for Inactive)
REMARK    1  A    between atoms: C_2  and  C_3 
REMARK    2  A    between atoms: C_8  and  N_9 
REMARK       I    between atoms: N_9  and  C_10 
REMARK       I    between atoms: C_10  and  N_11 
REMARK    3  A    between atoms: N_11  and  C_12 
REMARK    4  A    between atoms: C_12  and  C_13 
REMARK    5  A    between atoms: C_13  and  C_14 
ROOT
HETATM    1  N   UNL     1      40.689 -15.506  -0.725  1.00  0.00    -0.305 N 
HETATM    2  C   UNL     1      41.741 -15.435   0.157  1.00  0.00     0.320 C 
HETATM    3  N   UNL     1      42.239 -16.689   0.440  1.00  0.00    -0.342 N 
HETATM    4  O   UNL     1      42.222 -14.413   0.624  1.00  0.00    -0.247 OA
HETATM    5  H   UNL     1      40.671 -16.323  -1.317  1.00  0.00     0.171 HD
HETATM    6  H   UNL     1      41.619 -17.474   0.310  1.00  0.00     0.164 HD
ENDROOT
BRANCH   3   7
HETATM    7  C   UNL     1      43.335 -16.879   1.380  1.00  0.00     0.138 C 
BRANCH   7   8
HETATM    8  C   UNL     1      42.926 -17.533   2.729  1.00  0.00     0.003 C 
HETATM    9  C   UNL     1      43.424 -16.644   3.902  1.00  0.00     0.016 C 
HETATM   10  C   UNL     1      42.586 -17.066   5.108  1.00  0.00     0.001 C 
HETATM   11  C   UNL     1      41.275 -17.590   4.528  1.00  0.00     0.001 C 
HETATM   12  C   UNL     1      41.405 -17.425   3.014  1.00  0.00     0.016 C 
BRANCH   8  13
HETATM   13  C   UNL     1      43.465 -18.978   2.781  1.00  0.00    -0.048 A 
HETATM   14  C   UNL     1      44.393 -19.385   3.757  1.00  0.00     0.008 A 
HETATM   15  C   UNL     1      44.888 -20.693   3.792  1.00  0.00     0.001 A 
HETATM   16  C   UNL     1      44.486 -21.620   2.838  1.00  0.00     0.000 A 
HETATM   17  C   UNL     1      43.594 -21.237   1.844  1.00  0.00     0.001 A 
HETATM   18  C   UNL     1      43.092 -19.933   1.814  1.00  0.00     0.008 A 
ENDBRANCH   8  13
ENDBRANCH   7   8
ENDBRANCH   3   7
BRANCH   1  19
HETATM   19  C   UNL     1      39.885 -14.438  -1.102  1.00  0.00     0.095 A 
HETATM   20  C   UNL     1      38.888 -13.915  -0.303  1.00  0.00     0.107 A 
HETATM   21  O   UNL     1      38.285 -12.883  -0.948  1.00  0.00    -0.215 OA
HETATM   22  N   UNL     1      38.888 -12.685  -2.169  1.00  0.00    -0.131 NA
HETATM   23  C   UNL     1      39.854 -13.610  -2.263  1.00  0.00     0.087 A 
HETATM   24  C   UNL     1      40.722 -13.595  -3.464  1.00  0.00     0.075 C 
BRANCH  20  25
HETATM   25  C   UNL     1      38.335 -14.236   1.034  1.00  0.00     0.065 C 
HETATM   26  C   UNL     1      39.148 -13.594   2.147  1.00  0.00     0.012 C 
ENDBRANCH  20  25
ENDBRANCH   1  19
TORSDOF 5
ENDMDL
MODEL 3
REMARK VINA RESULT:      -8.2      5.728      8.352
REMARK  5 active torsions:
REMARK  status: ('A' for Active; 'I' for Inactive)
REMARK    1  A    between atoms: C_2  and  C_3 
REMARK    2  A    between atoms: C_8  and  N_9 
REMARK       I    between atoms: N_9  and  C_10 
REMARK       I    between atoms: C_10  and  N_11 
REMARK    3  A    between atoms: N_11  and  C_12 
REMARK    4  A    between atoms: C_12  and  C_13 
REMARK    5  A    between atoms: C_13  and  C_14 
ROOT
HETATM    1  N   UNL     1      44.310 -13.567   8.624  1.00  0.00    -0.305 N 
HETATM    2  C   UNL     1      44.525 -14.197   7.421  1.00  0.00     0.320 C 
HETATM    3  N   UNL     1      44.007 -15.474   7.428  1.00  0.00    -0.342 N 
HETATM    4  O   UNL     1      45.070 -13.711   6.440  1.00  0.00    -0.247 OA
HETATM    5  H   UNL     1      43.529 -13.910   9.161  1.00  0.00     0.171 HD
HETATM    6  H   UNL     1      43.887 -15.921   8.325  1.00  0.00     0.164 HD
ENDROOT
BRANCH   3   7
HETATM    7  C   UNL     1      44.143 -16.358   6.278  1.00  0.00     0.138 C 
BRANCH   7   8
HETATM    8  C   UNL     1      42.841 -16.554   5.453  1.00  0.00     0.003 C 
HETATM    9  C   UNL     1      41.795 -17.312   6.316  1.00  0.00     0.016 C 
HETATM   10  C   UNL     1      40.448 -17.028   5.652  1.00  0.00     0.001 C 
HETATM   11  C   UNL     1      40.616 -15.682   4.952  1.00  0.00     0.001 C 
HETATM   12  C   UNL     1      42.045 -15.238   5.262  1.00  0.00     0.016 C 
BRANCH   8  13
HETATM   13  C   UNL     1      43.180 -17.270   4.128  1.00  0.00    -0.048 A 
HETATM   14  C   UNL     1      43.245 -18.673   4.043  1.00  0.00     0.008 A 
HETATM   15  C   UNL     1      43.564 -19.317   2.843  1.00  0.00     0.001 A 
HETATM   16  C   UNL     1      43.851 -18.574   1.704  1.00  0.00     0.000 A 
HETATM   17  C   UNL     1      43.825 -17.186   1.767  1.00  0.00     0.001 A 
HETATM   18  C   UNL     1      43.497 -16.543   2.963  1.00  0.00     0.008 A 
ENDBRANCH   8  13
ENDBRANCH   7   8
ENDBRANCH   3   7
BRANCH   1  19
HETATM   19  C   UNL     1      44.827 -12.330   8.984  1.00  0.00     0.095 A 
HETATM   20  C   UNL     1      44.167 -11.435   9.803  1.00  0.00     0.107 A 
HETATM   21  O   UNL     1      44.929 -10.324   9.968  1.00  0.00    -0.215 OA
HETATM   22  N   UNL     1      46.116 -10.470   9.288  1.00  0.00    -0.131 NA
HETATM   23  C   UNL     1      46.064 -11.675   8.703  1.00  0.00     0.087 A 
HETATM   24  C   UNL     1      47.250 -12.136   7.942  1.00  0.00     0.075 C 
BRANCH  20  25
HETATM   25  C   UNL     1      42.854 -11.411  10.489  1.00  0.00     0.065 C 
HETATM   26  C   UNL     1      43.011 -11.336  12.000  1.00  0.00     0.012 C 
ENDBRANCH  20  25
ENDBRANCH   1  19
TORSDOF 5
ENDMDL
MODEL 4
REMARK VINA RESULT:      -7.7      4.603      6.167
REMARK  5 active torsions:
REMARK  status: ('A' for Active; 'I' for Inactive)
REMARK    1  A    between atoms: C_2  and  C_3 
REMARK    2  A    between atoms: C_8  and  N_9 
REMARK       I    between atoms: N_9  and  C_10 
REMARK       I    between atoms: C_10  and  N_11 
REMARK    3  A    between atoms: N_11  and  C_12 
REMARK    4  A    between atoms: C_12  and  C_13 
REMARK    5  A    between atoms: C_13  and  C_14 
ROOT
HETATM    1  N   UNL     1      40.987 -13.354   6.464  1.00  0.00    -0.305 N 
HETATM    2  C   UNL     1      40.705 -14.547   5.841  1.00  0.00     0.320 C 
HETATM    3  N   UNL     1      41.602 -15.525   6.209  1.00  0.00    -0.342 N 
HETATM    4  O   UNL     1      39.771 -14.759   5.081  1.00  0.00    -0.247 OA
HETATM    5  H   UNL     1      41.497 -13.426   7.331  1.00  0.00     0.171 HD
HETATM    6  H   UNL     1      42.505 -15.224   6.544  1.00  0.00     0.164 HD
ENDROOT
BRANCH   3   7
HETATM    7  C   UNL     1      41.536 -16.869   5.652  1.00  0.00     0.138 C 
BRANCH   7   8
HETATM    8  C   UNL     1      42.914 -17.552   5.436  1.00  0.00     0.003 C 
HETATM    9  C   UNL     1      44.008 -16.751   6.196  1.00  0.00     0.016 C 
HETATM   10  C   UNL     1      45.180 -17.719   6.346  1.00  0.00     0.001 C 
HETATM   11  C   UNL     1      44.560 -19.113   6.340  1.00  0.00     0.001 C 
HETATM   12  C   UNL     1      43.053 -18.887   6.211  1.00  0.00     0.016 C 
BRANCH   8  13
HETATM   13  C   UNL     1      43.188 -17.682   3.922  1.00  0.00    -0.048 A 
HETATM   14  C   UNL     1      43.153 -18.930   3.271  1.00  0.00     0.008 A 
HETATM   15  C   UNL     1      43.413 -19.045   1.902  1.00  0.00     0.001 A 
HETATM   16  C   UNL     1      43.738 -17.920   1.153  1.00  0.00     0.000 A 
HETATM   17  C   UNL     1      43.809 -16.680   1.776  1.00  0.00     0.001 A 
HETATM   18  C   UNL     1      43.541 -16.563   3.143  1.00  0.00     0.008 A 
ENDBRANCH   8  13
ENDBRANCH   7   8
ENDBRANCH   3   7
BRANCH   1  19
HETATM   19  C   UNL     1      40.357 -12.144   6.202  1.00  0.00     0.095 A 
HETATM   20  C   UNL     1      39.609 -11.455   7.135  1.00  0.00     0.107 A 
HETATM   21  O   UNL     1      39.128 -10.314   6.578  1.00  0.00    -0.215 OA
HETATM   22  N   UNL     1      39.570 -10.211   5.279  1.00  0.00    -0.131 NA
HETATM   23  C   UNL     1      40.315 -11.302   5.051  1.00  0.00     0.087 A 
HETATM   24  C   UNL     1      40.982 -11.431   3.733  1.00  0.00     0.075 C 
BRANCH  20  25
HETATM   25  C   UNL     1      39.209 -11.690   8.542  1.00  0.00     0.065 C 
HETATM   26  C   UNL     1      38.986 -10.384   9.289  1.00  0.00     0.012 C 
ENDBRANCH  20  25
ENDBRANCH   1  19
TORSDOF 5
ENDMDL
MODEL 5
REMARK VINA RESULT:      -7.7      3.146      7.494
REMARK  5 active torsions:
REMARK  status: ('A' for Active; 'I' for Inactive)
REMARK    1  A    between atoms: C_2  and  C_3 
REMARK    2  A    between atoms: C_8  and  N_9 
REMARK       I    between atoms: N_9  and  C_10 
REMARK       I    between atoms: C_10  and  N_11 
REMARK    3  A    between atoms: N_11  and  C_12 
REMARK    4  A    between atoms: C_12  and  C_13 
REMARK    5  A    between atoms: C_13  and  C_14 
ROOT
HETATM    1  N   UNL     1      44.429 -18.860   3.065  1.00  0.00    -0.305 N 
HETATM    2  C   UNL     1      43.383 -18.476   2.260  1.00  0.00     0.320 C 
HETATM    3  N   UNL     1      43.554 -17.189   1.799  1.00  0.00    -0.342 N 
HETATM    4  O   UNL     1      42.426 -19.169   1.944  1.00  0.00    -0.247 OA
HETATM    5  H   UNL     1      45.299 -18.373   2.910  1.00  0.00     0.171 HD
HETATM    6  H   UNL     1      44.148 -16.578   2.341  1.00  0.00     0.164 HD
ENDROOT
BRANCH   3   7
HETATM    7  C   UNL     1      42.558 -16.542   0.957  1.00  0.00     0.138 C 
BRANCH   7   8
HETATM    8  C   UNL     1      41.557 -15.631   1.719  1.00  0.00     0.003 C 
HETATM    9  C   UNL     1      41.154 -14.437   0.809  1.00  0.00     0.016 C 
HETATM   10  C   UNL     1      39.852 -13.902   1.405  1.00  0.00     0.001 C 
HETATM   11  C   UNL     1      39.206 -15.094   2.106  1.00  0.00     0.001 C 
HETATM   12  C   UNL     1      40.152 -16.270   1.864  1.00  0.00     0.016 C 
BRANCH   8  13
HETATM   13  C   UNL     1      42.181 -15.197   3.062  1.00  0.00    -0.048 A 
HETATM   14  C   UNL     1      43.138 -14.168   3.133  1.00  0.00     0.008 A 
HETATM   15  C   UNL     1      43.710 -13.786   4.351  1.00  0.00     0.001 A 
HETATM   16  C   UNL     1      43.358 -14.440   5.526  1.00  0.00     0.000 A 
HETATM   17  C   UNL     1      42.437 -15.480   5.481  1.00  0.00     0.001 A 
HETATM   18  C   UNL     1      41.859 -15.855   4.265  1.00  0.00     0.008 A 
ENDBRANCH   8  13
ENDBRANCH   7   8
ENDBRANCH   3   7
BRANCH   1  19
HETATM   19  C   UNL     1      44.489 -20.041   3.793  1.00  0.00     0.095 A 
HETATM   20  C   UNL     1      44.381 -20.096   5.169  1.00  0.00     0.107 A 
HETATM   21  O   UNL     1      44.478 -21.386   5.580  1.00  0.00    -0.215 OA
HETATM   22  N   UNL     1      44.623 -22.211   4.488  1.00  0.00    -0.131 NA
HETATM   23  C   UNL     1      44.622 -21.409   3.413  1.00  0.00     0.087 A 
HETATM   24  C   UNL     1      44.701 -22.037   2.072  1.00  0.00     0.075 C 
BRANCH  20  25
HETATM   25  C   UNL     1      44.218 -19.097   6.251  1.00  0.00     0.065 C 
HETATM   26  C   UNL     1      45.399 -18.142   6.317  1.00  0.00     0.012 C 
ENDBRANCH  20  25
ENDBRANCH   1  19
TORSDOF 5
ENDMDL
MODEL 6
REMARK VINA RESULT:      -7.7      3.868      7.559
REMARK  5 active torsions:
REMARK  status: ('A' for Active; 'I' for Inactive)
REMARK    1  A    between atoms: C_2  and  C_3 
REMARK    2  A    between atoms: C_8  and  N_9 
REMARK       I    between atoms: N_9  and  C_10 
REMARK       I    between atoms: C_10  and  N_11 
REMARK    3  A    between atoms: N_11  and  C_12 
REMARK    4  A    between atoms: C_12  and  C_13 
REMARK    5  A    between atoms: C_13  and  C_14 
ROOT
HETATM    1  N   UNL     1      44.491 -19.165   3.286  1.00  0.00    -0.305 N 
HETATM    2  C   UNL     1      43.376 -18.453   2.914  1.00  0.00     0.320 C 
HETATM    3  N   UNL     1      43.651 -17.106   2.827  1.00  0.00    -0.342 N 
HETATM    4  O   UNL     1      42.277 -18.921   2.653  1.00  0.00    -0.247 OA
HETATM    5  H   UNL     1      45.376 -18.731   3.073  1.00  0.00     0.171 HD
HETATM    6  H   UNL     1      44.433 -16.757   3.362  1.00  0.00     0.164 HD
ENDROOT
BRANCH   3   7
HETATM    7  C   UNL     1      42.618 -16.137   2.486  1.00  0.00     0.138 C 
BRANCH   7   8
HETATM    8  C   UNL     1      42.284 -15.120   3.613  1.00  0.00     0.003 C 
HETATM    9  C   UNL     1      43.123 -13.829   3.404  1.00  0.00     0.016 C 
HETATM   10  C   UNL     1      42.401 -12.749   4.208  1.00  0.00     0.001 C 
HETATM   11  C   UNL     1      40.940 -13.186   4.255  1.00  0.00     0.001 C 
HETATM   12  C   UNL     1      40.878 -14.487   3.455  1.00  0.00     0.016 C 
BRANCH   8  13
HETATM   13  C   UNL     1      42.513 -15.787   4.986  1.00  0.00    -0.048 A 
HETATM   14  C   UNL     1      43.712 -15.611   5.701  1.00  0.00     0.008 A 
HETATM   15  C   UNL     1      43.919 -16.227   6.940  1.00  0.00     0.001 A 
HETATM   16  C   UNL     1      42.943 -17.053   7.484  1.00  0.00     0.000 A 
HETATM   17  C   UNL     1      41.761 -17.268   6.786  1.00  0.00     0.001 A 
HETATM   18  C   UNL     1      41.551 -16.646   5.552  1.00  0.00     0.008 A 
ENDBRANCH   8  13
ENDBRANCH   7   8
ENDBRANCH   3   7
BRANCH   1  19
HETATM   19  C   UNL     1      44.512 -20.519   3.594  1.00  0.00     0.095 A 
HETATM   20  C   UNL     1      44.509 -21.008   4.885  1.00  0.00     0.107 A 
HETATM   21  O   UNL     1      44.532 -22.366   4.855  1.00  0.00    -0.215 OA
HETATM   22  N   UNL     1      44.523 -22.801   3.550  1.00  0.00    -0.131 NA
HETATM   23  C   UNL     1      44.502 -21.697   2.789  1.00  0.00     0.087 A 
HETATM   24  C   UNL     1      44.424 -21.862   1.318  1.00  0.00     0.075 C 
BRANCH  20  25
HETATM   25  C   UNL     1      44.514 -20.405   6.238  1.00  0.00     0.065 C 
HETATM   26  C   UNL     1      43.565 -21.129   7.180  1.00  0.00     0.012 C 
ENDBRANCH  20  25
ENDBRANCH   1  19
TORSDOF 5
ENDMDL
MODEL 7
REMARK VINA RESULT:      -7.6      1.745      3.800
REMARK  5 active torsions:
REMARK  status: ('A' for Active; 'I' for Inactive)
REMARK    1  A    between atoms: C_2  and  C_3 
REMARK    2  A    between atoms: C_8  and  N_9 
REMARK       I    between atoms: N_9  and  C_10 
REMARK       I    between atoms: C_10  and  N_11 
REMARK    3  A    between atoms: N_11  and  C_12 
REMARK    4  A    between atoms: C_12  and  C_13 
REMARK    5  A    between atoms: C_13  and  C_14 
ROOT
HETATM    1  N   UNL     1      41.263 -15.244  -1.792  1.00  0.00    -0.305 N 
HETATM    2  C   UNL     1      40.954 -15.383  -0.459  1.00  0.00     0.320 C 
HETATM    3  N   UNL     1      41.284 -16.639   0.001  1.00  0.00    -0.342 N 
HETATM    4  O   UNL     1      40.479 -14.519   0.263  1.00  0.00    -0.247 OA
HETATM    5  H   UNL     1      41.990 -15.853  -2.135  1.00  0.00     0.171 HD
HETATM    6  H   UNL     1      41.343 -17.381  -0.680  1.00  0.00     0.164 HD
ENDROOT
BRANCH   3   7
HETATM    7  C   UNL     1      41.017 -17.042   1.374  1.00  0.00     0.138 C 
BRANCH   7   8
HETATM    8  C   UNL     1      42.247 -17.607   2.136  1.00  0.00     0.003 C 
HETATM    9  C   UNL     1      42.238 -19.158   2.050  1.00  0.00     0.016 C 
HETATM   10  C   UNL     1      43.670 -19.585   2.366  1.00  0.00     0.001 C 
HETATM   11  C   UNL     1      44.547 -18.408   1.949  1.00  0.00     0.001 C 
HETATM   12  C   UNL     1      43.583 -17.362   1.389  1.00  0.00     0.016 C 
BRANCH   8  13
HETATM   13  C   UNL     1      42.241 -17.071   3.585  1.00  0.00    -0.048 A 
HETATM   14  C   UNL     1      41.391 -17.612   4.567  1.00  0.00     0.008 A 
HETATM   15  C   UNL     1      41.380 -17.115   5.875  1.00  0.00     0.001 A 
HETATM   16  C   UNL     1      42.201 -16.050   6.227  1.00  0.00     0.000 A 
HETATM   17  C   UNL     1      43.029 -15.478   5.269  1.00  0.00     0.001 A 
HETATM   18  C   UNL     1      43.046 -15.980   3.965  1.00  0.00     0.008 A 
ENDBRANCH   8  13
ENDBRANCH   7   8
ENDBRANCH   3   7
BRANCH   1  19
HETATM   19  C   UNL     1      40.930 -14.152  -2.583  1.00  0.00     0.095 A 
HETATM   20  C   UNL     1      39.741 -14.047  -3.276  1.00  0.00     0.107 A 
HETATM   21  O   UNL     1      39.713 -12.869  -3.951  1.00  0.00    -0.215 OA
HETATM   22  N   UNL     1      40.866 -12.162  -3.697  1.00  0.00    -0.131 NA
HETATM   23  C   UNL     1      41.596 -12.923  -2.870  1.00  0.00     0.087 A 
HETATM   24  C   UNL     1      42.882 -12.380  -2.370  1.00  0.00     0.075 C 
BRANCH  20  25
HETATM   25  C   UNL     1      38.551 -14.911  -3.460  1.00  0.00     0.065 C 
HETATM   26  C   UNL     1      38.868 -16.128  -4.315  1.00  0.00     0.012 C 
ENDBRANCH  20  25
ENDBRANCH   1  19
TORSDOF 5
ENDMDL
MODEL 8
REMARK VINA RESULT:      -7.5      4.033      7.435
REMARK  5 active torsions:
REMARK  status: ('A' for Active; 'I' for Inactive)
REMARK    1  A    between atoms: C_2  and  C_3 
REMARK    2  A    between atoms: C_8  and  N_9 
REMARK       I    between atoms: N_9  and  C_10 
REMARK       I    between atoms: C_10  and  N_11 
REMARK    3  A    between atoms: N_11  and  C_12 
REMARK    4  A    between atoms: C_12  and  C_13 
REMARK    5  A    between atoms: C_13  and  C_14 
ROOT
HETATM    1  N   UNL     1      43.949 -18.351   5.321  1.00  0.00    -0.305 N 
HETATM    2  C   UNL     1      42.716 -17.743   5.301  1.00  0.00     0.320 C 
HETATM    3  N   UNL     1      42.829 -16.383   5.497  1.00  0.00    -0.342 N 
HETATM    4  O   UNL     1      41.643 -18.295   5.106  1.00  0.00    -0.247 OA
HETATM    5  H   UNL     1      44.730 -17.759   5.085  1.00  0.00     0.171 HD
HETATM    6  H   UNL     1      43.653 -16.050   5.974  1.00  0.00     0.164 HD
ENDROOT
BRANCH   3   7
HETATM    7  C   UNL     1      41.656 -15.522   5.556  1.00  0.00     0.138 C 
BRANCH   7   8
HETATM    8  C   UNL     1      41.455 -14.612   4.313  1.00  0.00     0.003 C 
HETATM    9  C   UNL     1      40.123 -13.826   4.461  1.00  0.00     0.016 C 
HETATM   10  C   UNL     1      40.247 -12.645   3.501  1.00  0.00     0.001 C 
HETATM   11  C   UNL     1      41.744 -12.374   3.380  1.00  0.00     0.001 C 
HETATM   12  C   UNL     1      42.417 -13.396   4.295  1.00  0.00     0.016 C 
BRANCH   8  13
HETATM   13  C   UNL     1      41.522 -15.473   3.033  1.00  0.00    -0.048 A 
HETATM   14  C   UNL     1      40.428 -16.250   2.609  1.00  0.00     0.008 A 
HETATM   15  C   UNL     1      40.497 -17.038   1.455  1.00  0.00     0.001 A 
HETATM   16  C   UNL     1      41.669 -17.089   0.710  1.00  0.00     0.000 A 
HETATM   17  C   UNL     1      42.775 -16.355   1.123  1.00  0.00     0.001 A 
HETATM   18  C   UNL     1      42.703 -15.561   2.271  1.00  0.00     0.008 A 
ENDBRANCH   8  13
ENDBRANCH   7   8
ENDBRANCH   3   7
BRANCH   1  19
HETATM   19  C   UNL     1      44.167 -19.722   5.291  1.00  0.00     0.095 A 
HETATM   20  C   UNL     1      44.569 -20.407   4.162  1.00  0.00     0.107 A 
HETATM   21  O   UNL     1      44.696 -21.727   4.453  1.00  0.00    -0.215 OA
HETATM   22  N   UNL     1      44.408 -21.939   5.781  1.00  0.00    -0.131 NA
HETATM   23  C   UNL     1      44.098 -20.738   6.291  1.00  0.00     0.087 A 
HETATM   24  C   UNL     1      43.801 -20.649   7.741  1.00  0.00     0.075 C 
BRANCH  20  25
HETATM   25  C   UNL     1      44.855 -20.038   2.755  1.00  0.00     0.065 C 
HETATM   26  C   UNL     1      43.584 -19.965   1.924  1.00  0.00     0.012 C 
ENDBRANCH  20  25
ENDBRANCH   1  19
TORSDOF 5
ENDMDL
MODEL 9
REMARK VINA RESULT:      -7.4      1.774      3.410
REMARK  5 active torsions:
REMARK  status: ('A' for Active; 'I' for Inactive)
REMARK    1  A    between atoms: C_2  and  C_3 
REMARK    2  A    between atoms: C_8  and  N_9 
REMARK       I    between atoms: N_9  and  C_10 
REMARK       I    between atoms: C_10  and  N_11 
REMARK    3  A    between atoms: N_11  and  C_12 
REMARK    4  A    between atoms: C_12  and  C_13 
REMARK    5  A    between atoms: C_13  and  C_14 
ROOT
HETATM    1  N   UNL     1      39.466 -14.805  -0.510  1.00  0.00    -0.305 N 
HETATM    2  C   UNL     1      40.689 -14.567   0.072  1.00  0.00     0.320 C 
HETATM    3  N   UNL     1      41.000 -15.544   0.993  1.00  0.00    -0.342 N 
HETATM    4  O   UNL     1      41.443 -13.642  -0.191  1.00  0.00    -0.247 OA
HETATM    5  H   UNL     1      39.162 -15.767  -0.507  1.00  0.00     0.171 HD
HETATM    6  H   UNL     1      40.234 -16.058   1.401  1.00  0.00     0.164 HD
ENDROOT
BRANCH   3   7
HETATM    7  C   UNL     1      42.230 -15.492   1.772  1.00  0.00     0.138 C 
BRANCH   7   8
HETATM    8  C   UNL     1      42.671 -16.852   2.380  1.00  0.00     0.003 C 
HETATM    9  C   UNL     1      41.908 -18.004   1.669  1.00  0.00     0.016 C 
HETATM   10  C   UNL     1      42.728 -19.261   1.954  1.00  0.00     0.001 C 
HETATM   11  C   UNL     1      44.160 -18.775   2.162  1.00  0.00     0.001 C 
HETATM   12  C   UNL     1      44.107 -17.260   1.964  1.00  0.00     0.016 C 
BRANCH   8  13
HETATM   13  C   UNL     1      42.453 -16.822   3.909  1.00  0.00    -0.048 A 
HETATM   14  C   UNL     1      41.199 -17.104   4.481  1.00  0.00     0.008 A 
HETATM   15  C   UNL     1      41.004 -17.064   5.865  1.00  0.00     0.001 A 
HETATM   16  C   UNL     1      42.051 -16.718   6.711  1.00  0.00     0.000 A 
HETATM   17  C   UNL     1      43.293 -16.405   6.171  1.00  0.00     0.001 A 
HETATM   18  C   UNL     1      43.490 -16.454   4.788  1.00  0.00     0.008 A 
ENDBRANCH   8  13
ENDBRANCH   7   8
ENDBRANCH   3   7
BRANCH   1  19
HETATM   19  C   UNL     1      38.807 -13.940  -1.373  1.00  0.00     0.095 A 
HETATM   20  C   UNL     1      38.960 -13.966  -2.745  1.00  0.00     0.107 A 
HETATM   21  O   UNL     1      38.186 -13.002  -3.306  1.00  0.00    -0.215 OA
HETATM   22  N   UNL     1      37.486 -12.339  -2.324  1.00  0.00    -0.131 NA
HETATM   23  C   UNL     1      37.848 -12.904  -1.163  1.00  0.00     0.087 A 
HETATM   24  C   UNL     1      37.196 -12.427   0.081  1.00  0.00     0.075 C 
BRANCH  20  25
HETATM   25  C   UNL     1      39.770 -14.762  -3.697  1.00  0.00     0.065 C 
HETATM   26  C   UNL     1      39.114 -16.097  -4.013  1.00  0.00     0.012 C 
ENDBRANCH  20  25
ENDBRANCH   1  19
TORSDOF 5
ENDMDL
MODEL 10
REMARK VINA RESULT:      -7.4      2.160      2.193
REMARK  5 active torsions:
REMARK  status: ('A' for Active; 'I' for Inactive)
REMARK    1  A    between atoms: C_2  and  C_3 
REMARK    2  A    between atoms: C_8  and  N_9 
REMARK       I    between atoms: N_9  and  C_10 
REMARK       I    between atoms: C_10  and  N_11 
REMARK    3  A    between atoms: N_11  and  C_12 
REMARK    4  A    between atoms: C_12  and  C_13 
REMARK    5  A    between atoms: C_13  and  C_14 
ROOT
HETATM    1  N   UNL     1      42.243 -13.181   2.139  1.00  0.00    -0.305 N 
HETATM    2  C   UNL     1      42.249 -14.522   1.833  1.00  0.00     0.320 C 
HETATM    3  N   UNL     1      43.283 -15.174   2.468  1.00  0.00    -0.342 N 
HETATM    4  O   UNL     1      41.441 -15.101   1.122  1.00  0.00    -0.247 OA
HETATM    5  H   UNL     1      42.683 -12.933   3.012  1.00  0.00     0.171 HD
HETATM    6  H   UNL     1      44.080 -14.620   2.745  1.00  0.00     0.164 HD
ENDROOT
BRANCH   3   7
HETATM    7  C   UNL     1      43.523 -16.597   2.272  1.00  0.00     0.138 C 
BRANCH   7   8
HETATM    8  C   UNL     1      43.024 -17.505   3.429  1.00  0.00     0.003 C 
HETATM    9  C   UNL     1      43.480 -16.903   4.787  1.00  0.00     0.016 C 
HETATM   10  C   UNL     1      42.566 -17.539   5.833  1.00  0.00     0.001 C 
HETATM   11  C   UNL     1      41.276 -17.881   5.093  1.00  0.00     0.001 C 
HETATM   12  C   UNL     1      41.494 -17.405   3.657  1.00  0.00     0.016 C 
BRANCH   8  13
HETATM   13  C   UNL     1      43.523 -18.948   3.197  1.00  0.00    -0.048 A 
HETATM   14  C   UNL     1      44.432 -19.564   4.077  1.00  0.00     0.008 A 
HETATM   15  C   UNL     1      44.890 -20.867   3.856  1.00  0.00     0.001 A 
HETATM   16  C   UNL     1      44.470 -21.578   2.738  1.00  0.00     0.000 A 
HETATM   17  C   UNL     1      43.596 -20.982   1.837  1.00  0.00     0.001 A 
HETATM   18  C   UNL     1      43.131 -19.684   2.062  1.00  0.00     0.008 A 
ENDBRANCH   8  13
ENDBRANCH   7   8
ENDBRANCH   3   7
BRANCH   1  19
HETATM   19  C   UNL     1      41.418 -12.229   1.555  1.00  0.00     0.095 A 
HETATM   20  C   UNL     1      41.643 -11.687   0.305  1.00  0.00     0.107 A 
HETATM   21  O   UNL     1      40.665 -10.790   0.017  1.00  0.00    -0.215 OA
HETATM   22  N   UNL     1      39.762 -10.741   1.054  1.00  0.00    -0.131 NA
HETATM   23  C   UNL     1      40.204 -11.609   1.975  1.00  0.00     0.087 A 
HETATM   24  C   UNL     1      39.384 -11.815   3.193  1.00  0.00     0.075 C 
BRANCH  20  25
HETATM   25  C   UNL     1      42.688 -11.841  -0.735  1.00  0.00     0.065 C 
HETATM   26  C   UNL     1      42.908 -10.549  -1.505  1.00  0.00     0.012 C 
ENDBRANCH  20  25
ENDBRANCH   1  19
TORSDOF 5
ENDMDL
