MODEL 1
REMARK VINA RESULT:      -8.8      0.000      0.000
REMARK  3 active torsions:
REMARK  status: ('A' for Active; 'I' for Inactive)
REMARK    1  A    between atoms: C_6  and  C_7 
REMARK    2  A    between atoms: C_7  and  N_8 
REMARK    3  A    between atoms: C_12  and  C_13 
ROOT
HETATM    1  N   UNL     1      42.596 -14.489   6.585  1.00  0.00    -0.066 N 
HETATM    2  H   UNL     1      42.187 -14.303   7.510  1.00  0.00     0.280 HD
HETATM    3  C   UNL     1      41.450 -14.596   5.603  1.00  0.00     0.236 C 
HETATM    4  C   UNL     1      40.559 -15.780   5.969  1.00  0.00     0.037 C 
HETATM    5  C   UNL     1      41.348 -17.106   6.006  1.00  0.00     0.024 C 
HETATM    6  C   UNL     1      42.459 -16.922   7.046  1.00  0.00     0.037 C 
HETATM    7  C   UNL     1      43.388 -15.771   6.691  1.00  0.00     0.236 C 
ENDROOT
BRANCH   1   8
HETATM    8  C   UNL     1      43.510 -13.319   6.283  1.00  0.00     0.293 C 
BRANCH   8   9
HETATM    9  C   UNL     1      44.298 -12.895   7.457  1.00  0.00     0.061 A 
HETATM   10  N   UNL     1      43.870 -11.991   8.417  1.00  0.00    -0.308 N 
HETATM   11  C   UNL     1      44.914 -11.865   9.330  1.00  0.00     0.134 A 
HETATM   12  C   UNL     1      42.666 -11.294   8.546  1.00  0.00     0.099 A 
HETATM   13  C   UNL     1      44.727 -10.981  10.429  1.00  0.00     0.057 A 
HETATM   14  N   UNL     1      45.939 -12.615   8.995  1.00  0.00    -0.241 NA
HETATM   15  C   UNL     1      43.571 -10.297  10.563  1.00  0.00    -0.057 A 
HETATM   16  C   UNL     1      43.325  -9.337  11.691  1.00  0.00     0.048 C 
HETATM   17  C   UNL     1      42.496 -10.461   9.587  1.00  0.00     0.024 A 
HETATM   18  C   UNL     1      45.586 -13.226   7.829  1.00  0.00     0.146 A 
ENDBRANCH   8   9
ENDBRANCH   1   8
BRANCH   5  19
HETATM   19  C   UNL     1      41.812 -17.547   4.623  1.00  0.00    -0.024 A 
HETATM   20  C   UNL     1      42.841 -18.490   4.243  1.00  0.00     0.018 A 
HETATM   21  C   UNL     1      42.889 -18.503   2.849  1.00  0.00     0.138 A 
HETATM   22  C   UNL     1      43.755 -19.348   4.887  1.00  0.00     0.017 A 
HETATM   23  N   UNL     1      43.721 -19.192   2.051  1.00  0.00    -0.242 NA
HETATM   24  N   UNL     1      41.901 -17.694   2.377  1.00  0.00    -0.350 N 
HETATM   25  C   UNL     1      44.579 -19.981   2.724  1.00  0.00     0.119 A 
HETATM   26  C   UNL     1      44.636 -20.100   4.103  1.00  0.00     0.020 A 
HETATM   27  H   UNL     1      41.698 -17.580   1.394  1.00  0.00     0.166 HD
HETATM   28  C   UNL     1      41.237 -17.122   3.430  1.00  0.00     0.098 A 
ENDBRANCH   5  19
TORSDOF 3
ENDMDL
MODEL 2
REMARK VINA RESULT:      -8.7      3.222      4.749
REMARK  3 active torsions:
REMARK  status: ('A' for Active; 'I' for Inactive)
REMARK    1  A    between atoms: C_6  and  C_7 
REMARK    2  A    between atoms: C_7  and  N_8 
REMARK    3  A    between atoms: C_12  and  C_13 
ROOT
HETATM    1  N   UNL     1      41.168 -15.400   2.233  1.00  0.00    -0.066 N 
HETATM    2  H   UNL     1      40.687 -15.056   1.392  1.00  0.00     0.280 HD
HETATM    3  C   UNL     1      42.646 -15.462   1.909  1.00  0.00     0.236 C 
HETATM    4  C   UNL     1      42.890 -16.464   0.784  1.00  0.00     0.037 C 
HETATM    5  C   UNL     1      42.370 -17.872   1.142  1.00  0.00     0.024 C 
HETATM    6  C   UNL     1      40.870 -17.723   1.417  1.00  0.00     0.037 C 
HETATM    7  C   UNL     1      40.592 -16.758   2.560  1.00  0.00     0.236 C 
ENDROOT
BRANCH   1   8
HETATM    8  C   UNL     1      40.858 -14.408   3.335  1.00  0.00     0.293 C 
BRANCH   8   9
HETATM    9  C   UNL     1      41.952 -14.287   4.317  1.00  0.00     0.061 A 
HETATM   10  N   UNL     1      42.207 -15.190   5.339  1.00  0.00    -0.308 N 
HETATM   11  C   UNL     1      43.309 -14.695   6.033  1.00  0.00     0.134 A 
HETATM   12  C   UNL     1      41.565 -16.379   5.690  1.00  0.00     0.099 A 
HETATM   13  C   UNL     1      43.778 -15.446   7.147  1.00  0.00     0.057 A 
HETATM   14  N   UNL     1      43.735 -13.565   5.517  1.00  0.00    -0.241 NA
HETATM   15  C   UNL     1      43.164 -16.595   7.501  1.00  0.00    -0.057 A 
HETATM   16  C   UNL     1      43.603 -17.417   8.677  1.00  0.00     0.048 C 
HETATM   17  C   UNL     1      42.014 -17.083   6.743  1.00  0.00     0.024 A 
HETATM   18  C   UNL     1      42.890 -13.287   4.485  1.00  0.00     0.146 A 
ENDBRANCH   8   9
ENDBRANCH   1   8
BRANCH   5  19
HETATM   19  C   UNL     1      43.179 -18.527   2.255  1.00  0.00    -0.024 A 
HETATM   20  C   UNL     1      43.623 -19.896   2.401  1.00  0.00     0.018 A 
HETATM   21  C   UNL     1      44.298 -19.979   3.618  1.00  0.00     0.138 A 
HETATM   22  C   UNL     1      43.551 -21.097   1.666  1.00  0.00     0.017 A 
HETATM   23  N   UNL     1      44.845 -21.062   4.195  1.00  0.00    -0.242 NA
HETATM   24  N   UNL     1      44.355 -18.733   4.164  1.00  0.00    -0.350 N 
HETATM   25  C   UNL     1      44.731 -22.180   3.453  1.00  0.00     0.119 A 
HETATM   26  C   UNL     1      44.116 -22.252   2.214  1.00  0.00     0.020 A 
HETATM   27  H   UNL     1      44.841 -18.526   5.025  1.00  0.00     0.166 HD
HETATM   28  C   UNL     1      43.698 -17.848   3.352  1.00  0.00     0.098 A 
ENDBRANCH   5  19
TORSDOF 3
ENDMDL
MODEL 3
REMARK VINA RESULT:      -8.6      3.604      5.822
REMARK  3 active torsions:
REMARK  status: ('A' for Active; 'I' for Inactive)
REMARK    1  A    between atoms: C_6  and  C_7 
REMARK    2  A    between atoms: C_7  and  N_8 
REMARK    3  A    between atoms: C_12  and  C_13 
ROOT
HETATM    1  N   UNL     1      42.368 -15.707   6.567  1.00  0.00    -0.066 N 
HETATM    2  H   UNL     1      42.475 -15.379   7.535  1.00  0.00     0.280 HD
HETATM    3  C   UNL     1      41.875 -17.137   6.632  1.00  0.00     0.236 C 
HETATM    4  C   UNL     1      42.918 -18.017   7.315  1.00  0.00     0.037 C 
HETATM    5  C   UNL     1      44.281 -17.962   6.593  1.00  0.00     0.024 C 
HETATM    6  C   UNL     1      44.720 -16.493   6.606  1.00  0.00     0.037 C 
HETATM    7  C   UNL     1      43.719 -15.592   5.899  1.00  0.00     0.236 C 
ENDROOT
BRANCH   1   8
HETATM    8  C   UNL     1      41.367 -14.778   5.912  1.00  0.00     0.293 C 
BRANCH   8   9
HETATM    9  C   UNL     1      41.817 -14.296   4.592  1.00  0.00     0.061 A 
HETATM   10  N   UNL     1      41.553 -14.923   3.384  1.00  0.00    -0.308 N 
HETATM   11  C   UNL     1      42.167 -14.152   2.399  1.00  0.00     0.134 A 
HETATM   12  C   UNL     1      40.831 -16.082   3.093  1.00  0.00     0.099 A 
HETATM   13  C   UNL     1      42.047 -14.586   1.050  1.00  0.00     0.057 A 
HETATM   14  N   UNL     1      42.786 -13.115   2.917  1.00  0.00    -0.241 NA
HETATM   15  C   UNL     1      41.356 -15.709   0.755  1.00  0.00    -0.057 A 
HETATM   16  C   UNL     1      41.212 -16.224  -0.647  1.00  0.00     0.048 C 
HETATM   17  C   UNL     1      40.721 -16.487   1.816  1.00  0.00     0.024 A 
HETATM   18  C   UNL     1      42.607 -13.211   4.264  1.00  0.00     0.146 A 
ENDBRANCH   8   9
ENDBRANCH   1   8
BRANCH   5  19
HETATM   19  C   UNL     1      44.241 -18.622   5.221  1.00  0.00    -0.024 A 
HETATM   20  C   UNL     1      44.389 -20.014   4.852  1.00  0.00     0.018 A 
HETATM   21  C   UNL     1      44.308 -20.080   3.462  1.00  0.00     0.138 A 
HETATM   22  C   UNL     1      44.584 -21.247   5.506  1.00  0.00     0.017 A 
HETATM   23  N   UNL     1      44.435 -21.157   2.670  1.00  0.00    -0.242 NA
HETATM   24  N   UNL     1      44.038 -18.832   2.988  1.00  0.00    -0.350 N 
HETATM   25  C   UNL     1      44.633 -22.302   3.351  1.00  0.00     0.119 A 
HETATM   26  C   UNL     1      44.709 -22.404   4.731  1.00  0.00     0.020 A 
HETATM   27  H   UNL     1      43.880 -18.632   2.010  1.00  0.00     0.166 HD
HETATM   28  C   UNL     1      43.984 -17.948   4.032  1.00  0.00     0.098 A 
ENDBRANCH   5  19
TORSDOF 3
ENDMDL
MODEL 4
REMARK VINA RESULT:      -8.4      4.744      6.749
REMARK  3 active torsions:
REMARK  status: ('A' for Active; 'I' for Inactive)
REMARK    1  A    between atoms: C_6  and  C_7 
REMARK    2  A    between atoms: C_7  and  N_8 
REMARK    3  A    between atoms: C_12  and  C_13 
ROOT
HETATM    1  N   UNL     1      41.480 -15.957   2.777  1.00  0.00    -0.066 N 
HETATM    2  H   UNL     1      41.380 -15.380   1.933  1.00  0.00     0.280 HD
HETATM    3  C   UNL     1      42.873 -15.720   3.318  1.00  0.00     0.236 C 
HETATM    4  C   UNL     1      43.912 -16.188   2.303  1.00  0.00     0.037 C 
HETATM    5  C   UNL     1      43.734 -17.678   1.940  1.00  0.00     0.024 C 
HETATM    6  C   UNL     1      42.318 -17.819   1.370  1.00  0.00     0.037 C 
HETATM    7  C   UNL     1      41.255 -17.395   2.372  1.00  0.00     0.236 C 
ENDROOT
BRANCH   1   8
HETATM    8  C   UNL     1      40.400 -15.496   3.736  1.00  0.00     0.293 C 
BRANCH   8   9
HETATM    9  C   UNL     1      39.967 -14.110   3.480  1.00  0.00     0.061 A 
HETATM   10  N   UNL     1      39.068 -13.726   2.497  1.00  0.00    -0.308 N 
HETATM   11  C   UNL     1      38.952 -12.341   2.589  1.00  0.00     0.134 A 
HETATM   12  C   UNL     1      38.361 -14.481   1.557  1.00  0.00     0.099 A 
HETATM   13  C   UNL     1      38.078 -11.689   1.676  1.00  0.00     0.057 A 
HETATM   14  N   UNL     1      39.713 -11.858   3.545  1.00  0.00    -0.241 NA
HETATM   15  C   UNL     1      37.393 -12.405   0.759  1.00  0.00    -0.057 A 
HETATM   16  C   UNL     1      36.472 -11.769  -0.241  1.00  0.00     0.048 C 
HETATM   17  C   UNL     1      37.537 -13.858   0.697  1.00  0.00     0.024 A 
HETATM   18  C   UNL     1      40.366 -12.929   4.076  1.00  0.00     0.146 A 
ENDBRANCH   8   9
ENDBRANCH   1   8
BRANCH   5  19
HETATM   19  C   UNL     1      44.069 -18.605   3.102  1.00  0.00    -0.024 A 
HETATM   20  C   UNL     1      44.257 -20.039   3.124  1.00  0.00     0.018 A 
HETATM   21  C   UNL     1      44.511 -20.398   4.448  1.00  0.00     0.138 A 
HETATM   22  C   UNL     1      44.250 -21.104   2.200  1.00  0.00     0.017 A 
HETATM   23  N   UNL     1      44.703 -21.626   4.956  1.00  0.00    -0.242 NA
HETATM   24  N   UNL     1      44.568 -19.263   5.197  1.00  0.00    -0.350 N 
HETATM   25  C   UNL     1      44.670 -22.601   4.028  1.00  0.00     0.119 A 
HETATM   26  C   UNL     1      44.458 -22.403   2.673  1.00  0.00     0.020 A 
HETATM   27  H   UNL     1      44.793 -19.258   6.182  1.00  0.00     0.166 HD
HETATM   28  C   UNL     1      44.316 -18.177   4.402  1.00  0.00     0.098 A 
ENDBRANCH   5  19
TORSDOF 3
ENDMDL
MODEL 5
REMARK VINA RESULT:      -8.3      5.369      7.670
REMARK  3 active torsions:
REMARK  status: ('A' for Active; 'I' for Inactive)
REMARK    1  A    between atoms: C_6  and  C_7 
REMARK    2  A    between atoms: C_7  and  N_8 
REMARK    3  A    between atoms: C_12  and  C_13 
ROOT
HETATM    1  N   UNL     1      41.344 -16.364   2.805  1.00  0.00    -0.066 N 
HETATM    2  H   UNL     1      41.404 -15.462   3.292  1.00  0.00     0.280 HD
HETATM    3  C   UNL     1      41.305 -17.443   3.865  1.00  0.00     0.236 C 
HETATM    4  C   UNL     1      42.603 -17.429   4.670  1.00  0.00     0.037 C 
HETATM    5  C   UNL     1      43.842 -17.619   3.769  1.00  0.00     0.024 C 
HETATM    6  C   UNL     1      43.821 -16.470   2.755  1.00  0.00     0.037 C 
HETATM    7  C   UNL     1      42.556 -16.478   1.910  1.00  0.00     0.236 C 
ENDROOT
BRANCH   1   8
HETATM    8  C   UNL     1      40.073 -16.317   1.981  1.00  0.00     0.293 C 
BRANCH   8   9
HETATM    9  C   UNL     1      39.838 -14.993   1.374  1.00  0.00     0.061 A 
HETATM   10  N   UNL     1      40.215 -14.627   0.091  1.00  0.00    -0.308 N 
HETATM   11  C   UNL     1      39.820 -13.301  -0.072  1.00  0.00     0.134 A 
HETATM   12  C   UNL     1      40.855 -15.353  -0.917  1.00  0.00     0.099 A 
HETATM   13  C   UNL     1      40.097 -12.679  -1.320  1.00  0.00     0.057 A 
HETATM   14  N   UNL     1      39.242 -12.835   1.012  1.00  0.00    -0.241 NA
HETATM   15  C   UNL     1      40.720 -13.366  -2.301  1.00  0.00    -0.057 A 
HETATM   16  C   UNL     1      41.053 -12.755  -3.631  1.00  0.00     0.048 C 
HETATM   17  C   UNL     1      41.113 -14.759  -2.094  1.00  0.00     0.024 A 
HETATM   18  C   UNL     1      39.278 -13.853   1.918  1.00  0.00     0.146 A 
ENDBRANCH   8   9
ENDBRANCH   1   8
BRANCH   5  19
HETATM   19  C   UNL     1      43.920 -19.019   3.173  1.00  0.00    -0.024 A 
HETATM   20  C   UNL     1      44.267 -20.278   3.795  1.00  0.00     0.018 A 
HETATM   21  C   UNL     1      44.222 -21.253   2.799  1.00  0.00     0.138 A 
HETATM   22  C   UNL     1      44.618 -20.742   5.079  1.00  0.00     0.017 A 
HETATM   23  N   UNL     1      44.512 -22.561   2.899  1.00  0.00    -0.242 NA
HETATM   24  N   UNL     1      43.791 -20.670   1.647  1.00  0.00    -0.350 N 
HETATM   25  C   UNL     1      44.855 -22.940   4.145  1.00  0.00     0.119 A 
HETATM   26  C   UNL     1      44.917 -22.098   5.244  1.00  0.00     0.020 A 
HETATM   27  H   UNL     1      43.625 -21.183   0.793  1.00  0.00     0.166 HD
HETATM   28  C   UNL     1      43.594 -19.332   1.857  1.00  0.00     0.098 A 
ENDBRANCH   5  19
TORSDOF 3
ENDMDL
MODEL 6
REMARK VINA RESULT:      -8.2      4.526      7.532
REMARK  3 active torsions:
REMARK  status: ('A' for Active; 'I' for Inactive)
REMARK    1  A    between atoms: C_6  and  C_7 
REMARK    2  A    between atoms: C_7  and  N_8 
REMARK    3  A    between atoms: C_12  and  C_13 
ROOT
HETATM    1  N   UNL     1      41.787 -16.079   3.761  1.00  0.00    -0.066 N 
HETATM    2  H   UNL     1      41.174 -16.684   4.323  1.00  0.00     0.280 HD
HETATM    3  C   UNL     1      41.157 -14.703   3.737  1.00  0.00     0.236 C 
HETATM    4  C   UNL     1      39.797 -14.765   3.048  1.00  0.00     0.037 C 
HETATM    5  C   UNL     1      39.903 -15.321   1.612  1.00  0.00     0.024 C 
HETATM    6  C   UNL     1      40.512 -16.722   1.733  1.00  0.00     0.037 C 
HETATM    7  C   UNL     1      41.887 -16.692   2.383  1.00  0.00     0.236 C 
ENDROOT
BRANCH   1   8
HETATM    8  C   UNL     1      43.137 -16.087   4.449  1.00  0.00     0.293 C 
BRANCH   8   9
HETATM    9  C   UNL     1      43.267 -17.177   5.434  1.00  0.00     0.061 A 
HETATM   10  N   UNL     1      43.754 -18.446   5.156  1.00  0.00    -0.308 N 
HETATM   11  C   UNL     1      43.693 -19.160   6.351  1.00  0.00     0.134 A 
HETATM   12  C   UNL     1      44.236 -19.002   3.969  1.00  0.00     0.099 A 
HETATM   13  C   UNL     1      44.140 -20.510   6.336  1.00  0.00     0.057 A 
HETATM   14  N   UNL     1      43.204 -18.426   7.325  1.00  0.00    -0.241 NA
HETATM   15  C   UNL     1      44.603 -21.062   5.194  1.00  0.00    -0.057 A 
HETATM   16  C   UNL     1      45.070 -22.486   5.116  1.00  0.00     0.048 C 
HETATM   17  C   UNL     1      44.657 -20.278   3.962  1.00  0.00     0.024 A 
HETATM   18  C   UNL     1      42.906 -17.219   6.766  1.00  0.00     0.146 A 
ENDBRANCH   8   9
ENDBRANCH   1   8
BRANCH   5  19
HETATM   19  C   UNL     1      40.629 -14.369   0.670  1.00  0.00    -0.024 A 
HETATM   20  C   UNL     1      40.916 -14.495  -0.742  1.00  0.00     0.018 A 
HETATM   21  C   UNL     1      41.636 -13.361  -1.116  1.00  0.00     0.138 A 
HETATM   22  C   UNL     1      40.665 -15.420  -1.776  1.00  0.00     0.017 A 
HETATM   23  N   UNL     1      42.156 -13.064  -2.318  1.00  0.00    -0.242 NA
HETATM   24  N   UNL     1      41.723 -12.533  -0.039  1.00  0.00    -0.350 N 
HETATM   25  C   UNL     1      41.897 -13.991  -3.259  1.00  0.00     0.119 A 
HETATM   26  C   UNL     1      41.172 -15.154  -3.051  1.00  0.00     0.020 A 
HETATM   27  H   UNL     1      42.155 -11.620  -0.074  1.00  0.00     0.166 HD
HETATM   28  C   UNL     1      41.113 -13.118   1.038  1.00  0.00     0.098 A 
ENDBRANCH   5  19
TORSDOF 3
ENDMDL
MODEL 7
REMARK VINA RESULT:      -8.1      5.516      9.227
REMARK  3 active torsions:
REMARK  status: ('A' for Active; 'I' for Inactive)
REMARK    1  A    between atoms: C_6  and  C_7 
REMARK    2  A    between atoms: C_7  and  N_8 
REMARK    3  A    between atoms: C_12  and  C_13 
ROOT
HETATM    1  N   UNL     1      40.441 -14.988   1.124  1.00  0.00    -0.066 N 
HETATM    2  H   UNL     1      41.053 -14.384   1.688  1.00  0.00     0.280 HD
HETATM    3  C   UNL     1      41.252 -15.462  -0.063  1.00  0.00     0.236 C 
HETATM    4  C   UNL     1      41.661 -14.270  -0.924  1.00  0.00     0.037 C 
HETATM    5  C   UNL     1      40.438 -13.463  -1.410  1.00  0.00     0.024 C 
HETATM    6  C   UNL     1      39.700 -12.994  -0.152  1.00  0.00     0.037 C 
HETATM    7  C   UNL     1      39.245 -14.161   0.712  1.00  0.00     0.236 C 
ENDROOT
BRANCH   1   8
HETATM    8  C   UNL     1      40.017 -16.127   2.028  1.00  0.00     0.293 C 
BRANCH   8   9
HETATM    9  C   UNL     1      41.043 -16.468   3.032  1.00  0.00     0.061 A 
HETATM   10  N   UNL     1      41.955 -17.506   2.917  1.00  0.00    -0.308 N 
HETATM   11  C   UNL     1      42.723 -17.485   4.079  1.00  0.00     0.134 A 
HETATM   12  C   UNL     1      42.157 -18.437   1.896  1.00  0.00     0.099 A 
HETATM   13  C   UNL     1      43.745 -18.466   4.213  1.00  0.00     0.057 A 
HETATM   14  N   UNL     1      42.344 -16.522   4.889  1.00  0.00    -0.241 NA
HETATM   15  C   UNL     1      43.947 -19.376   3.236  1.00  0.00    -0.057 A 
HETATM   16  C   UNL     1      44.998 -20.444   3.331  1.00  0.00     0.048 C 
HETATM   17  C   UNL     1      43.124 -19.361   2.028  1.00  0.00     0.024 A 
HETATM   18  C   UNL     1      41.292 -15.913   4.273  1.00  0.00     0.146 A 
ENDBRANCH   8   9
ENDBRANCH   1   8
BRANCH   5  19
HETATM   19  C   UNL     1      39.594 -14.234  -2.417  1.00  0.00    -0.024 A 
HETATM   20  C   UNL     1      38.378 -13.850  -3.100  1.00  0.00     0.018 A 
HETATM   21  C   UNL     1      37.991 -14.934  -3.887  1.00  0.00     0.138 A 
HETATM   22  C   UNL     1      37.535 -12.723  -3.168  1.00  0.00     0.017 A 
HETATM   23  N   UNL     1      36.900 -15.055  -4.661  1.00  0.00    -0.242 NA
HETATM   24  N   UNL     1      38.941 -15.904  -3.780  1.00  0.00    -0.350 N 
HETATM   25  C   UNL     1      36.127 -13.952  -4.673  1.00  0.00     0.119 A 
HETATM   26  C   UNL     1      36.391 -12.788  -3.969  1.00  0.00     0.020 A 
HETATM   27  H   UNL     1      38.913 -16.769  -4.300  1.00  0.00     0.166 HD
HETATM   28  C   UNL     1      39.916 -15.494  -2.910  1.00  0.00     0.098 A 
ENDBRANCH   5  19
TORSDOF 3
ENDMDL
MODEL 8
REMARK VINA RESULT:      -8.1      4.762      8.399
REMARK  3 active torsions:
REMARK  status: ('A' for Active; 'I' for Inactive)
REMARK    1  A    between atoms: C_6  and  C_7 
REMARK    2  A    between atoms: C_7  and  N_8 
REMARK    3  A    between atoms: C_12  and  C_13 
ROOT
HETATM    1  N   UNL     1      41.999 -16.694   0.519  1.00  0.00    -0.066 N 
HETATM    2  H   UNL     1      42.200 -17.177  -0.366  1.00  0.00     0.280 HD
HETATM    3  C   UNL     1      43.318 -16.187   1.060  1.00  0.00     0.236 C 
HETATM    4  C   UNL     1      44.242 -17.363   1.365  1.00  0.00     0.037 C 
HETATM    5  C   UNL     1      43.607 -18.351   2.366  1.00  0.00     0.024 C 
HETATM    6  C   UNL     1      42.303 -18.840   1.725  1.00  0.00     0.037 C 
HETATM    7  C   UNL     1      41.342 -17.695   1.442  1.00  0.00     0.236 C 
ENDROOT
BRANCH   1   8
HETATM    8  C   UNL     1      41.041 -15.570   0.180  1.00  0.00     0.293 C 
BRANCH   8   9
HETATM    9  C   UNL     1      41.220 -15.064  -1.194  1.00  0.00     0.061 A 
HETATM   10  N   UNL     1      41.645 -13.785  -1.521  1.00  0.00    -0.308 N 
HETATM   11  C   UNL     1      41.663 -13.722  -2.912  1.00  0.00     0.134 A 
HETATM   12  C   UNL     1      42.011 -12.707  -0.712  1.00  0.00     0.099 A 
HETATM   13  C   UNL     1      42.068 -12.497  -3.512  1.00  0.00     0.057 A 
HETATM   14  N   UNL     1      41.278 -14.856  -3.451  1.00  0.00    -0.241 NA
HETATM   15  C   UNL     1      42.418 -11.444  -2.742  1.00  0.00    -0.057 A 
HETATM   16  C   UNL     1      42.835 -10.123  -3.319  1.00  0.00     0.048 C 
HETATM   17  C   UNL     1      42.392 -11.553  -1.285  1.00  0.00     0.024 A 
HETATM   18  C   UNL     1      40.970 -15.676  -2.406  1.00  0.00     0.146 A 
ENDBRANCH   8   9
ENDBRANCH   1   8
BRANCH   5  19
HETATM   19  C   UNL     1      43.469 -17.759   3.763  1.00  0.00    -0.024 A 
HETATM   20  C   UNL     1      43.624 -18.384   5.059  1.00  0.00     0.018 A 
HETATM   21  C   UNL     1      43.354 -17.409   6.018  1.00  0.00     0.138 A 
HETATM   22  C   UNL     1      43.959 -19.655   5.567  1.00  0.00     0.017 A 
HETATM   23  N   UNL     1      43.330 -17.539   7.355  1.00  0.00    -0.242 NA
HETATM   24  N   UNL     1      43.131 -16.227   5.379  1.00  0.00    -0.350 N 
HETATM   25  C   UNL     1      43.644 -18.778   7.778  1.00  0.00     0.119 A 
HETATM   26  C   UNL     1      43.963 -19.843   6.952  1.00  0.00     0.020 A 
HETATM   27  H   UNL     1      42.965 -15.356   5.863  1.00  0.00     0.166 HD
HETATM   28  C   UNL     1      43.208 -16.418   4.025  1.00  0.00     0.098 A 
ENDBRANCH   5  19
TORSDOF 3
ENDMDL
MODEL 9
REMARK VINA RESULT:      -8.1      5.669      8.685
REMARK  3 active torsions:
REMARK  status: ('A' for Active; 'I' for Inactive)
REMARK    1  A    between atoms: C_6  and  C_7 
REMARK    2  A    between atoms: C_7  and  N_8 
REMARK    3  A    between atoms: C_12  and  C_13 
ROOT
HETATM    1  N   UNL     1      41.189 -14.992   0.367  1.00  0.00    -0.066 N 
HETATM    2  H   UNL     1      40.474 -15.199  -0.342  1.00  0.00     0.280 HD
HETATM    3  C   UNL     1      42.031 -16.239   0.529  1.00  0.00     0.236 C 
HETATM    4  C   UNL     1      41.169 -17.386   1.050  1.00  0.00     0.037 C 
HETATM    5  C   UNL     1      40.489 -17.032   2.389  1.00  0.00     0.024 C 
HETATM    6  C   UNL     1      39.632 -15.789   2.126  1.00  0.00     0.037 C 
HETATM    7  C   UNL     1      40.467 -14.614   1.640  1.00  0.00     0.236 C 
ENDROOT
BRANCH   1   8
HETATM    8  C   UNL     1      41.986 -13.819  -0.165  1.00  0.00     0.293 C 
BRANCH   8   9
HETATM    9  C   UNL     1      41.776 -13.595  -1.608  1.00  0.00     0.061 A 
HETATM   10  N   UNL     1      42.058 -12.415  -2.279  1.00  0.00    -0.308 N 
HETATM   11  C   UNL     1      41.700 -12.625  -3.609  1.00  0.00     0.134 A 
HETATM   12  C   UNL     1      42.594 -11.209  -1.823  1.00  0.00     0.099 A 
HETATM   13  C   UNL     1      41.892 -11.551  -4.521  1.00  0.00     0.057 A 
HETATM   14  N   UNL     1      41.219 -13.834  -3.793  1.00  0.00    -0.241 NA
HETATM   15  C   UNL     1      42.404 -10.377  -4.093  1.00  0.00    -0.057 A 
HETATM   16  C   UNL     1      42.610  -9.204  -5.007  1.00  0.00     0.048 C 
HETATM   17  C   UNL     1      42.773 -10.198  -2.691  1.00  0.00     0.024 A 
HETATM   18  C   UNL     1      41.228 -14.426  -2.566  1.00  0.00     0.146 A 
ENDBRANCH   8   9
ENDBRANCH   1   8
BRANCH   5  19
HETATM   19  C   UNL     1      41.484 -16.912   3.537  1.00  0.00    -0.024 A 
HETATM   20  C   UNL     1      42.602 -17.760   3.892  1.00  0.00     0.018 A 
HETATM   21  C   UNL     1      43.167 -17.226   5.050  1.00  0.00     0.138 A 
HETATM   22  C   UNL     1      43.227 -18.920   3.393  1.00  0.00     0.017 A 
HETATM   23  N   UNL     1      44.198 -17.701   5.769  1.00  0.00    -0.242 NA
HETATM   24  N   UNL     1      42.512 -16.073   5.356  1.00  0.00    -0.350 N 
HETATM   25  C   UNL     1      44.743 -18.818   5.251  1.00  0.00     0.119 A 
HETATM   26  C   UNL     1      44.313 -19.450   4.095  1.00  0.00     0.020 A 
HETATM   27  H   UNL     1      42.773 -15.473   6.125  1.00  0.00     0.166 HD
HETATM   28  C   UNL     1      41.506 -15.864   4.451  1.00  0.00     0.098 A 
ENDBRANCH   5  19
TORSDOF 3
ENDMDL
MODEL 10
REMARK VINA RESULT:      -7.9      5.264      8.455
REMARK  3 active torsions:
REMARK  status: ('A' for Active; 'I' for Inactive)
REMARK    1  A    between atoms: C_6  and  C_7 
REMARK    2  A    between atoms: C_7  and  N_8 
REMARK    3  A    between atoms: C_12  and  C_13 
ROOT
HETATM    1  N   UNL     1      39.965 -14.061   2.627  1.00  0.00    -0.066 N 
HETATM    2  H   UNL     1      39.636 -13.321   3.261  1.00  0.00     0.280 HD
HETATM    3  C   UNL     1      41.165 -13.512   1.886  1.00  0.00     0.236 C 
HETATM    4  C   UNL     1      40.749 -12.315   1.035  1.00  0.00     0.037 C 
HETATM    5  C   UNL     1      39.632 -12.679   0.035  1.00  0.00     0.024 C 
HETATM    6  C   UNL     1      38.450 -13.187   0.868  1.00  0.00     0.037 C 
HETATM    7  C   UNL     1      38.822 -14.405   1.701  1.00  0.00     0.236 C 
ENDROOT
BRANCH   1   8
HETATM    8  C   UNL     1      40.318 -15.245   3.504  1.00  0.00     0.293 C 
BRANCH   8   9
HETATM    9  C   UNL     1      40.959 -16.340   2.751  1.00  0.00     0.061 A 
HETATM   10  N   UNL     1      41.907 -17.210   3.266  1.00  0.00    -0.308 N 
HETATM   11  C   UNL     1      42.256 -18.070   2.227  1.00  0.00     0.134 A 
HETATM   12  C   UNL     1      42.467 -17.303   4.542  1.00  0.00     0.099 A 
HETATM   13  C   UNL     1      43.228 -19.073   2.497  1.00  0.00     0.057 A 
HETATM   14  N   UNL     1      41.599 -17.785   1.125  1.00  0.00    -0.241 NA
HETATM   15  C   UNL     1      43.781 -19.171   3.725  1.00  0.00    -0.057 A 
HETATM   16  C   UNL     1      44.824 -20.196   4.062  1.00  0.00     0.048 C 
HETATM   17  C   UNL     1      43.385 -18.253   4.791  1.00  0.00     0.024 A 
HETATM   18  C   UNL     1      40.825 -16.703   1.425  1.00  0.00     0.146 A 
ENDBRANCH   8   9
ENDBRANCH   1   8
BRANCH   5  19
HETATM   19  C   UNL     1      40.114 -13.621  -1.061  1.00  0.00    -0.024 A 
HETATM   20  C   UNL     1      39.371 -14.298  -2.101  1.00  0.00     0.018 A 
HETATM   21  C   UNL     1      40.283 -15.071  -2.819  1.00  0.00     0.138 A 
HETATM   22  C   UNL     1      38.035 -14.370  -2.546  1.00  0.00     0.017 A 
HETATM   23  N   UNL     1      40.043 -15.903  -3.846  1.00  0.00    -0.242 NA
HETATM   24  N   UNL     1      41.529 -14.832  -2.327  1.00  0.00    -0.350 N 
HETATM   25  C   UNL     1      38.749 -15.940  -4.215  1.00  0.00     0.119 A 
HETATM   26  C   UNL     1      37.731 -15.211  -3.621  1.00  0.00     0.020 A 
HETATM   27  H   UNL     1      42.368 -15.236  -2.719  1.00  0.00     0.166 HD
HETATM   28  C   UNL     1      41.447 -13.955  -1.279  1.00  0.00     0.098 A 
ENDBRANCH   5  19
TORSDOF 3
ENDMDL
