MODEL 1
REMARK VINA RESULT:      -9.7      0.000      0.000
REMARK  8 active torsions:
REMARK  status: ('A' for Active; 'I' for Inactive)
REMARK    1  A    between atoms: C_3  and  S_4 
REMARK    2  A    between atoms: S_4  and  C_5 
REMARK    3  A    between atoms: C_5  and  C_6 
REMARK       I    between atoms: C_6  and  N_7 
REMARK    4  A    between atoms: N_7  and  C_8 
REMARK    5  A    between atoms: C_8  and  C_9 
REMARK    6  A    between atoms: C_18  and  C_19 
REMARK    7  A    between atoms: C_19  and  O_20 
REMARK    8  A    between atoms: O_20  and  C_21 
ROOT
HETATM    1  C   UNL     1      43.925 -13.652   4.793  1.00  0.00     0.160 C 
HETATM    2  N   UNL     1      43.833 -14.604   5.870  1.00  0.00    -0.314 N 
HETATM    3  C   UNL     1      44.394 -14.523   7.113  1.00  0.00     0.191 A 
HETATM    4  N   UNL     1      44.067 -15.581   7.819  1.00  0.00    -0.123 NA
HETATM    5  N   UNL     1      43.288 -16.385   7.028  1.00  0.00    -0.132 NA
HETATM    6  C   UNL     1      43.151 -15.801   5.853  1.00  0.00     0.154 A 
ENDROOT
BRANCH   3   7
HETATM    7  S   UNL     1      45.394 -13.222   7.651  1.00  0.00    -0.081 SA
BRANCH   7   8
HETATM    8  C   UNL     1      44.186 -12.191   8.535  1.00  0.00     0.185 C 
BRANCH   8   9
HETATM    9  C   UNL     1      44.334 -12.309  10.043  1.00  0.00     0.227 C 
HETATM   10  N   UNL     1      43.252 -11.883  10.772  1.00  0.00    -0.356 N 
HETATM   11  H   UNL     1      42.436 -11.534  10.274  1.00  0.00     0.162 HD
HETATM   12  O   UNL     1      45.380 -12.705  10.557  1.00  0.00    -0.273 OA
BRANCH  10  13
HETATM   13  C   UNL     1      43.247 -11.820  12.214  1.00  0.00     0.161 C 
BRANCH  13  14
HETATM   14  C   UNL     1      42.937 -10.433  12.721  1.00  0.00    -0.041 A 
HETATM   15  C   UNL     1      42.739 -10.211  14.092  1.00  0.00     0.009 A 
HETATM   16  C   UNL     1      42.491  -8.924  14.575  1.00  0.00     0.001 A 
HETATM   17  C   UNL     1      42.436  -7.846  13.694  1.00  0.00     0.000 A 
HETATM   18  C   UNL     1      42.626  -8.053  12.329  1.00  0.00     0.001 A 
HETATM   19  C   UNL     1      42.879  -9.338  11.845  1.00  0.00     0.009 A 
ENDBRANCH  13  14
ENDBRANCH  10  13
ENDBRANCH   8   9
ENDBRANCH   7   8
ENDBRANCH   3   7
BRANCH   6  20
HETATM   20  C   UNL     1      42.360 -16.327   4.705  1.00  0.00     0.256 C 
BRANCH  20  21
HETATM   21  O   UNL     1      43.283 -16.652   3.666  1.00  0.00    -0.344 OA
BRANCH  21  22
HETATM   22  C   UNL     1      43.564 -17.980   3.492  1.00  0.00     0.070 A 
HETATM   23  C   UNL     1      44.006 -18.862   4.481  1.00  0.00     0.049 A 
HETATM   24  C   UNL     1      44.275 -20.209   4.178  1.00  0.00    -0.023 A 
HETATM   25  C   UNL     1      44.089 -20.676   2.857  1.00  0.00    -0.026 A 
HETATM   26  C   UNL     1      44.732 -21.105   5.160  1.00  0.00     0.012 A 
HETATM   27  C   UNL     1      43.630 -19.786   1.877  1.00  0.00     0.015 A 
HETATM   28  C   UNL     1      44.368 -22.018   2.554  1.00  0.00     0.012 A 
HETATM   29  C   UNL     1      43.367 -18.452   2.195  1.00  0.00     0.037 A 
HETATM   30  C   UNL     1      44.825 -22.892   3.541  1.00  0.00     0.001 A 
HETATM   31  C   UNL     1      45.005 -22.436   4.843  1.00  0.00     0.001 A 
ENDBRANCH  21  22
ENDBRANCH  20  21
ENDBRANCH   6  20
TORSDOF 8
ENDMDL
MODEL 2
REMARK VINA RESULT:      -9.7      5.419      6.506
REMARK  8 active torsions:
REMARK  status: ('A' for Active; 'I' for Inactive)
REMARK    1  A    between atoms: C_3  and  S_4 
REMARK    2  A    between atoms: S_4  and  C_5 
REMARK    3  A    between atoms: C_5  and  C_6 
REMARK       I    between atoms: C_6  and  N_7 
REMARK    4  A    between atoms: N_7  and  C_8 
REMARK    5  A    between atoms: C_8  and  C_9 
REMARK    6  A    between atoms: C_18  and  C_19 
REMARK    7  A    between atoms: C_19  and  O_20 
REMARK    8  A    between atoms: O_20  and  C_21 
ROOT
HETATM    1  C   UNL     1      41.258 -14.710  -0.647  1.00  0.00     0.160 C 
HETATM    2  N   UNL     1      40.688 -15.109   0.614  1.00  0.00    -0.314 N 
HETATM    3  C   UNL     1      39.925 -14.361   1.465  1.00  0.00     0.191 A 
HETATM    4  N   UNL     1      39.579 -15.084   2.505  1.00  0.00    -0.123 NA
HETATM    5  N   UNL     1      40.131 -16.328   2.350  1.00  0.00    -0.132 NA
HETATM    6  C   UNL     1      40.803 -16.343   1.215  1.00  0.00     0.154 A 
ENDROOT
BRANCH   3   7
HETATM    7  S   UNL     1      39.505 -12.707   1.202  1.00  0.00    -0.081 SA
BRANCH   7   8
HETATM    8  C   UNL     1      40.435 -11.890   2.532  1.00  0.00     0.185 C 
BRANCH   8   9
HETATM    9  C   UNL     1      41.779 -12.555   2.778  1.00  0.00     0.227 C 
HETATM   10  N   UNL     1      41.943 -13.100   4.028  1.00  0.00    -0.356 N 
HETATM   11  H   UNL     1      41.173 -13.036   4.691  1.00  0.00     0.162 HD
HETATM   12  O   UNL     1      42.666 -12.545   1.926  1.00  0.00    -0.273 OA
BRANCH  10  13
HETATM   13  C   UNL     1      43.185 -13.679   4.480  1.00  0.00     0.161 C 
BRANCH  13  14
HETATM   14  C   UNL     1      42.963 -14.797   5.469  1.00  0.00    -0.041 A 
HETATM   15  C   UNL     1      41.737 -15.478   5.500  1.00  0.00     0.009 A 
HETATM   16  C   UNL     1      41.535 -16.540   6.385  1.00  0.00     0.001 A 
HETATM   17  C   UNL     1      42.556 -16.932   7.249  1.00  0.00     0.000 A 
HETATM   18  C   UNL     1      43.778 -16.261   7.231  1.00  0.00     0.001 A 
HETATM   19  C   UNL     1      43.982 -15.202   6.344  1.00  0.00     0.009 A 
ENDBRANCH  13  14
ENDBRANCH  10  13
ENDBRANCH   8   9
ENDBRANCH   7   8
ENDBRANCH   3   7
BRANCH   6  20
HETATM   20  C   UNL     1      41.538 -17.511   0.652  1.00  0.00     0.256 C 
BRANCH  20  21
HETATM   21  O   UNL     1      42.904 -17.383   1.043  1.00  0.00    -0.344 OA
BRANCH  21  22
HETATM   22  C   UNL     1      43.362 -18.281   1.969  1.00  0.00     0.070 A 
HETATM   23  C   UNL     1      43.570 -19.646   1.756  1.00  0.00     0.049 A 
HETATM   24  C   UNL     1      44.035 -20.475   2.794  1.00  0.00    -0.023 A 
HETATM   25  C   UNL     1      44.300 -19.917   4.065  1.00  0.00    -0.026 A 
HETATM   26  C   UNL     1      44.237 -21.852   2.598  1.00  0.00     0.012 A 
HETATM   27  C   UNL     1      44.103 -18.544   4.262  1.00  0.00     0.015 A 
HETATM   28  C   UNL     1      44.753 -20.748   5.102  1.00  0.00     0.012 A 
HETATM   29  C   UNL     1      43.641 -17.735   3.221  1.00  0.00     0.037 A 
HETATM   30  C   UNL     1      44.945 -22.114   4.889  1.00  0.00     0.001 A 
HETATM   31  C   UNL     1      44.688 -22.665   3.638  1.00  0.00     0.001 A 
ENDBRANCH  21  22
ENDBRANCH  20  21
ENDBRANCH   6  20
TORSDOF 8
ENDMDL
MODEL 3
REMARK VINA RESULT:      -9.6      5.660      8.860
REMARK  8 active torsions:
REMARK  status: ('A' for Active; 'I' for Inactive)
REMARK    1  A    between atoms: C_3  and  S_4 
REMARK    2  A    between atoms: S_4  and  C_5 
REMARK    3  A    between atoms: C_5  and  C_6 
REMARK       I    between atoms: C_6  and  N_7 
REMARK    4  A    between atoms: N_7  and  C_8 
REMARK    5  A    between atoms: C_8  and  C_9 
REMARK    6  A    between atoms: C_18  and  C_19 
REMARK    7  A    between atoms: C_19  and  O_20 
REMARK    8  A    between atoms: O_20  and  C_21 
ROOT
HETATM    1  C   UNL     1      39.561 -11.699   3.419  1.00  0.00     0.160 C 
HETATM    2  N   UNL     1      40.770 -12.215   2.831  1.00  0.00    -0.314 N 
HETATM    3  C   UNL     1      41.074 -12.335   1.504  1.00  0.00     0.191 A 
HETATM    4  N   UNL     1      42.281 -12.834   1.367  1.00  0.00    -0.123 NA
HETATM    5  N   UNL     1      42.782 -13.061   2.622  1.00  0.00    -0.132 NA
HETATM    6  C   UNL     1      41.872 -12.694   3.504  1.00  0.00     0.154 A 
ENDROOT
BRANCH   3   7
HETATM    7  S   UNL     1      40.008 -11.905   0.215  1.00  0.00    -0.081 SA
BRANCH   7   8
HETATM    8  C   UNL     1      39.577 -13.542  -0.447  1.00  0.00     0.185 C 
BRANCH   8   9
HETATM    9  C   UNL     1      39.384 -14.569   0.656  1.00  0.00     0.227 C 
HETATM   10  N   UNL     1      40.385 -15.502   0.768  1.00  0.00    -0.356 N 
HETATM   11  H   UNL     1      41.176 -15.446   0.131  1.00  0.00     0.162 HD
HETATM   12  O   UNL     1      38.369 -14.583   1.351  1.00  0.00    -0.273 OA
BRANCH  10  13
HETATM   13  C   UNL     1      40.327 -16.616   1.685  1.00  0.00     0.161 C 
BRANCH  13  14
HETATM   14  C   UNL     1      41.678 -17.255   1.888  1.00  0.00    -0.041 A 
HETATM   15  C   UNL     1      41.805 -18.652   1.890  1.00  0.00     0.009 A 
HETATM   16  C   UNL     1      43.057 -19.253   2.039  1.00  0.00     0.001 A 
HETATM   17  C   UNL     1      44.196 -18.464   2.188  1.00  0.00     0.000 A 
HETATM   18  C   UNL     1      44.084 -17.075   2.192  1.00  0.00     0.001 A 
HETATM   19  C   UNL     1      42.834 -16.473   2.039  1.00  0.00     0.009 A 
ENDBRANCH  13  14
ENDBRANCH  10  13
ENDBRANCH   8   9
ENDBRANCH   7   8
ENDBRANCH   3   7
BRANCH   6  20
HETATM   20  C   UNL     1      42.020 -12.751   4.985  1.00  0.00     0.256 C 
BRANCH  20  21
HETATM   21  O   UNL     1      41.164 -13.791   5.458  1.00  0.00    -0.344 OA
BRANCH  21  22
HETATM   22  C   UNL     1      41.714 -15.041   5.553  1.00  0.00     0.070 A 
HETATM   23  C   UNL     1      43.043 -15.331   5.869  1.00  0.00     0.049 A 
HETATM   24  C   UNL     1      43.497 -16.661   5.925  1.00  0.00    -0.023 A 
HETATM   25  C   UNL     1      42.593 -17.716   5.665  1.00  0.00    -0.026 A 
HETATM   26  C   UNL     1      44.834 -16.968   6.230  1.00  0.00     0.012 A 
HETATM   27  C   UNL     1      41.258 -17.414   5.365  1.00  0.00     0.015 A 
HETATM   28  C   UNL     1      43.051 -19.043   5.712  1.00  0.00     0.012 A 
HETATM   29  C   UNL     1      40.825 -16.087   5.314  1.00  0.00     0.037 A 
HETATM   30  C   UNL     1      44.383 -19.328   6.012  1.00  0.00     0.001 A 
HETATM   31  C   UNL     1      45.274 -18.292   6.272  1.00  0.00     0.001 A 
ENDBRANCH  21  22
ENDBRANCH  20  21
ENDBRANCH   6  20
TORSDOF 8
ENDMDL
MODEL 4
REMARK VINA RESULT:      -9.3      5.277      6.065
REMARK  8 active torsions:
REMARK  status: ('A' for Active; 'I' for Inactive)
REMARK    1  A    between atoms: C_3  and  S_4 
REMARK    2  A    between atoms: S_4  and  C_5 
REMARK    3  A    between atoms: C_5  and  C_6 
REMARK       I    between atoms: C_6  and  N_7 
REMARK    4  A    between atoms: N_7  and  C_8 
REMARK    5  A    between atoms: C_8  and  C_9 
REMARK    6  A    between atoms: C_18  and  C_19 
REMARK    7  A    between atoms: C_19  and  O_20 
REMARK    8  A    between atoms: O_20  and  C_21 
ROOT
HETATM    1  C   UNL     1      42.255 -13.072   1.773  1.00  0.00     0.160 C 
HETATM    2  N   UNL     1      41.210 -14.053   1.911  1.00  0.00    -0.314 N 
HETATM    3  C   UNL     1      39.910 -13.851   2.280  1.00  0.00     0.191 A 
HETATM    4  N   UNL     1      39.262 -14.993   2.273  1.00  0.00    -0.123 NA
HETATM    5  N   UNL     1      40.148 -15.972   1.907  1.00  0.00    -0.132 NA
HETATM    6  C   UNL     1      41.322 -15.409   1.694  1.00  0.00     0.154 A 
ENDROOT
BRANCH   3   7
HETATM    7  S   UNL     1      39.243 -12.315   2.704  1.00  0.00    -0.081 SA
BRANCH   7   8
HETATM    8  C   UNL     1      40.087 -11.988   4.280  1.00  0.00     0.185 C 
BRANCH   8   9
HETATM    9  C   UNL     1      39.860 -13.101   5.289  1.00  0.00     0.227 C 
HETATM   10  N   UNL     1      40.654 -14.209   5.126  1.00  0.00    -0.356 N 
HETATM   11  H   UNL     1      41.334 -14.214   4.368  1.00  0.00     0.162 HD
HETATM   12  O   UNL     1      38.982 -13.022   6.147  1.00  0.00    -0.273 OA
BRANCH  10  13
HETATM   13  C   UNL     1      40.512 -15.407   5.919  1.00  0.00     0.161 C 
BRANCH  13  14
HETATM   14  C   UNL     1      41.842 -15.936   6.393  1.00  0.00    -0.041 A 
HETATM   15  C   UNL     1      41.920 -17.188   7.023  1.00  0.00     0.009 A 
HETATM   16  C   UNL     1      43.152 -17.704   7.430  1.00  0.00     0.001 A 
HETATM   17  C   UNL     1      44.320 -16.975   7.213  1.00  0.00     0.000 A 
HETATM   18  C   UNL     1      44.257 -15.729   6.593  1.00  0.00     0.001 A 
HETATM   19  C   UNL     1      43.026 -15.213   6.181  1.00  0.00     0.009 A 
ENDBRANCH  13  14
ENDBRANCH  10  13
ENDBRANCH   8   9
ENDBRANCH   7   8
ENDBRANCH   3   7
BRANCH   6  20
HETATM   20  C   UNL     1      42.560 -16.113   1.255  1.00  0.00     0.256 C 
BRANCH  20  21
HETATM   21  O   UNL     1      43.306 -16.433   2.429  1.00  0.00    -0.344 OA
BRANCH  21  22
HETATM   22  C   UNL     1      43.577 -17.758   2.639  1.00  0.00     0.070 A 
HETATM   23  C   UNL     1      43.928 -18.340   3.859  1.00  0.00     0.049 A 
HETATM   24  C   UNL     1      44.196 -19.718   3.949  1.00  0.00    -0.023 A 
HETATM   25  C   UNL     1      44.102 -20.523   2.791  1.00  0.00    -0.026 A 
HETATM   26  C   UNL     1      44.563 -20.316   5.167  1.00  0.00     0.012 A 
HETATM   27  C   UNL     1      43.733 -19.930   1.576  1.00  0.00     0.015 A 
HETATM   28  C   UNL     1      44.380 -21.897   2.881  1.00  0.00     0.012 A 
HETATM   29  C   UNL     1      43.470 -18.561   1.504  1.00  0.00     0.037 A 
HETATM   30  C   UNL     1      44.747 -22.472   4.099  1.00  0.00     0.001 A 
HETATM   31  C   UNL     1      44.836 -21.682   5.241  1.00  0.00     0.001 A 
ENDBRANCH  21  22
ENDBRANCH  20  21
ENDBRANCH   6  20
TORSDOF 8
ENDMDL
MODEL 5
REMARK VINA RESULT:      -9.3      2.191      2.590
REMARK  8 active torsions:
REMARK  status: ('A' for Active; 'I' for Inactive)
REMARK    1  A    between atoms: C_3  and  S_4 
REMARK    2  A    between atoms: S_4  and  C_5 
REMARK    3  A    between atoms: C_5  and  C_6 
REMARK       I    between atoms: C_6  and  N_7 
REMARK    4  A    between atoms: N_7  and  C_8 
REMARK    5  A    between atoms: C_8  and  C_9 
REMARK    6  A    between atoms: C_18  and  C_19 
REMARK    7  A    between atoms: C_19  and  O_20 
REMARK    8  A    between atoms: O_20  and  C_21 
ROOT
HETATM    1  C   UNL     1      43.678 -13.625   6.167  1.00  0.00     0.160 C 
HETATM    2  N   UNL     1      42.352 -14.141   5.945  1.00  0.00    -0.314 N 
HETATM    3  C   UNL     1      41.218 -13.442   5.642  1.00  0.00     0.191 A 
HETATM    4  N   UNL     1      40.209 -14.270   5.499  1.00  0.00    -0.123 NA
HETATM    5  N   UNL     1      40.676 -15.538   5.723  1.00  0.00    -0.132 NA
HETATM    6  C   UNL     1      41.965 -15.462   5.997  1.00  0.00     0.154 A 
ENDROOT
BRANCH   3   7
HETATM    7  S   UNL     1      41.142 -11.723   5.491  1.00  0.00    -0.081 SA
BRANCH   7   8
HETATM    8  C   UNL     1      40.650 -11.243   7.173  1.00  0.00     0.185 C 
BRANCH   8   9
HETATM    9  C   UNL     1      41.776 -10.547   7.919  1.00  0.00     0.227 C 
HETATM   10  N   UNL     1      42.488 -11.344   8.781  1.00  0.00    -0.356 N 
HETATM   11  H   UNL     1      42.232 -12.326   8.858  1.00  0.00     0.162 HD
HETATM   12  O   UNL     1      41.983  -9.341   7.791  1.00  0.00    -0.273 OA
BRANCH  10  13
HETATM   13  C   UNL     1      43.523 -10.840   9.651  1.00  0.00     0.161 C 
BRANCH  13  14
HETATM   14  C   UNL     1      43.039 -10.670  11.070  1.00  0.00    -0.041 A 
HETATM   15  C   UNL     1      41.807 -11.214  11.465  1.00  0.00     0.009 A 
HETATM   16  C   UNL     1      41.368 -11.096  12.785  1.00  0.00     0.001 A 
HETATM   17  C   UNL     1      42.155 -10.433  13.725  1.00  0.00     0.000 A 
HETATM   18  C   UNL     1      43.378  -9.884  13.346  1.00  0.00     0.001 A 
HETATM   19  C   UNL     1      43.820 -10.005  12.027  1.00  0.00     0.009 A 
ENDBRANCH  13  14
ENDBRANCH  10  13
ENDBRANCH   8   9
ENDBRANCH   7   8
ENDBRANCH   3   7
BRANCH   6  20
HETATM   20  C   UNL     1      42.865 -16.615   6.281  1.00  0.00     0.256 C 
BRANCH  20  21
HETATM   21  O   UNL     1      43.849 -16.650   5.247  1.00  0.00    -0.344 OA
BRANCH  21  22
HETATM   22  C   UNL     1      43.861 -17.763   4.452  1.00  0.00     0.070 A 
HETATM   23  C   UNL     1      44.290 -19.038   4.830  1.00  0.00     0.049 A 
HETATM   24  C   UNL     1      44.266 -20.107   3.916  1.00  0.00    -0.023 A 
HETATM   25  C   UNL     1      43.795 -19.889   2.602  1.00  0.00    -0.026 A 
HETATM   26  C   UNL     1      44.706 -21.392   4.279  1.00  0.00     0.012 A 
HETATM   27  C   UNL     1      43.353 -18.610   2.239  1.00  0.00     0.015 A 
HETATM   28  C   UNL     1      43.782 -20.955   1.688  1.00  0.00     0.012 A 
HETATM   29  C   UNL     1      43.383 -17.560   3.158  1.00  0.00     0.037 A 
HETATM   30  C   UNL     1      44.226 -22.223   2.065  1.00  0.00     0.001 A 
HETATM   31  C   UNL     1      44.687 -22.442   3.360  1.00  0.00     0.001 A 
ENDBRANCH  21  22
ENDBRANCH  20  21
ENDBRANCH   6  20
TORSDOF 8
ENDMDL
MODEL 6
REMARK VINA RESULT:      -9.2      2.749      3.344
REMARK  8 active torsions:
REMARK  status: ('A' for Active; 'I' for Inactive)
REMARK    1  A    between atoms: C_3  and  S_4 
REMARK    2  A    between atoms: S_4  and  C_5 
REMARK    3  A    between atoms: C_5  and  C_6 
REMARK       I    between atoms: C_6  and  N_7 
REMARK    4  A    between atoms: N_7  and  C_8 
REMARK    5  A    between atoms: C_8  and  C_9 
REMARK    6  A    between atoms: C_18  and  C_19 
REMARK    7  A    between atoms: C_19  and  O_20 
REMARK    8  A    between atoms: O_20  and  C_21 
ROOT
HETATM    1  C   UNL     1      40.558 -15.862   5.897  1.00  0.00     0.160 C 
HETATM    2  N   UNL     1      41.349 -14.695   5.602  1.00  0.00    -0.314 N 
HETATM    3  C   UNL     1      40.960 -13.386   5.635  1.00  0.00     0.191 A 
HETATM    4  N   UNL     1      41.973 -12.612   5.319  1.00  0.00    -0.123 NA
HETATM    5  N   UNL     1      43.048 -13.419   5.059  1.00  0.00    -0.132 NA
HETATM    6  C   UNL     1      42.674 -14.674   5.224  1.00  0.00     0.154 A 
ENDROOT
BRANCH   3   7
HETATM    7  S   UNL     1      39.364 -12.851   6.020  1.00  0.00    -0.081 SA
BRANCH   7   8
HETATM    8  C   UNL     1      39.605 -11.051   6.104  1.00  0.00     0.185 C 
BRANCH   8   9
HETATM    9  C   UNL     1      39.588 -10.541   7.535  1.00  0.00     0.227 C 
HETATM   10  N   UNL     1      40.636 -10.960   8.318  1.00  0.00    -0.356 N 
HETATM   11  H   UNL     1      41.345 -11.560   7.902  1.00  0.00     0.162 HD
HETATM   12  O   UNL     1      38.662  -9.852   7.961  1.00  0.00    -0.273 OA
BRANCH  10  13
HETATM   13  C   UNL     1      40.735 -10.666   9.727  1.00  0.00     0.161 C 
BRANCH  13  14
HETATM   14  C   UNL     1      42.162 -10.699  10.215  1.00  0.00    -0.041 A 
HETATM   15  C   UNL     1      42.445 -10.519  11.578  1.00  0.00     0.009 A 
HETATM   16  C   UNL     1      43.760 -10.587  12.046  1.00  0.00     0.001 A 
HETATM   17  C   UNL     1      44.805 -10.835  11.158  1.00  0.00     0.000 A 
HETATM   18  C   UNL     1      44.537 -11.012   9.802  1.00  0.00     0.001 A 
HETATM   19  C   UNL     1      43.224 -10.949   9.333  1.00  0.00     0.009 A 
ENDBRANCH  13  14
ENDBRANCH  10  13
ENDBRANCH   8   9
ENDBRANCH   7   8
ENDBRANCH   3   7
BRANCH   6  20
HETATM   20  C   UNL     1      43.544 -15.872   5.064  1.00  0.00     0.256 C 
BRANCH  20  21
HETATM   21  O   UNL     1      43.350 -16.366   3.739  1.00  0.00    -0.344 OA
BRANCH  21  22
HETATM   22  C   UNL     1      43.605 -17.695   3.538  1.00  0.00     0.070 A 
HETATM   23  C   UNL     1      43.981 -18.617   4.519  1.00  0.00     0.049 A 
HETATM   24  C   UNL     1      44.229 -19.961   4.188  1.00  0.00    -0.023 A 
HETATM   25  C   UNL     1      44.088 -20.385   2.847  1.00  0.00    -0.026 A 
HETATM   26  C   UNL     1      44.620 -20.896   5.161  1.00  0.00     0.012 A 
HETATM   27  C   UNL     1      43.695 -19.456   1.875  1.00  0.00     0.015 A 
HETATM   28  C   UNL     1      44.347 -21.725   2.516  1.00  0.00     0.012 A 
HETATM   29  C   UNL     1      43.453 -18.125   2.221  1.00  0.00     0.037 A 
HETATM   30  C   UNL     1      44.738 -22.639   3.496  1.00  0.00     0.001 A 
HETATM   31  C   UNL     1      44.873 -22.225   4.818  1.00  0.00     0.001 A 
ENDBRANCH  21  22
ENDBRANCH  20  21
ENDBRANCH   6  20
TORSDOF 8
ENDMDL
MODEL 7
REMARK VINA RESULT:      -9.1      2.368      3.027
REMARK  8 active torsions:
REMARK  status: ('A' for Active; 'I' for Inactive)
REMARK    1  A    between atoms: C_3  and  S_4 
REMARK    2  A    between atoms: S_4  and  C_5 
REMARK    3  A    between atoms: C_5  and  C_6 
REMARK       I    between atoms: C_6  and  N_7 
REMARK    4  A    between atoms: N_7  and  C_8 
REMARK    5  A    between atoms: C_8  and  C_9 
REMARK    6  A    between atoms: C_18  and  C_19 
REMARK    7  A    between atoms: C_19  and  O_20 
REMARK    8  A    between atoms: O_20  and  C_21 
ROOT
HETATM    1  C   UNL     1      42.916 -13.712   6.130  1.00  0.00     0.160 C 
HETATM    2  N   UNL     1      41.645 -13.725   5.452  1.00  0.00    -0.314 N 
HETATM    3  C   UNL     1      40.841 -12.662   5.154  1.00  0.00     0.191 A 
HETATM    4  N   UNL     1      39.772 -13.077   4.514  1.00  0.00    -0.123 NA
HETATM    5  N   UNL     1      39.860 -14.439   4.397  1.00  0.00    -0.132 NA
HETATM    6  C   UNL     1      40.984 -14.832   4.965  1.00  0.00     0.154 A 
ENDROOT
BRANCH   3   7
HETATM    7  S   UNL     1      41.189 -11.024   5.579  1.00  0.00    -0.081 SA
BRANCH   7   8
HETATM    8  C   UNL     1      40.791 -11.028   7.352  1.00  0.00     0.185 C 
BRANCH   8   9
HETATM    9  C   UNL     1      41.874 -10.354   8.179  1.00  0.00     0.227 C 
HETATM   10  N   UNL     1      42.522 -11.172   9.072  1.00  0.00    -0.356 N 
HETATM   11  H   UNL     1      42.253 -12.153   9.117  1.00  0.00     0.162 HD
HETATM   12  O   UNL     1      42.099  -9.149   8.083  1.00  0.00    -0.273 OA
BRANCH  10  13
HETATM   13  C   UNL     1      43.503 -10.690  10.015  1.00  0.00     0.161 C 
BRANCH  13  14
HETATM   14  C   UNL     1      42.947 -10.593  11.413  1.00  0.00    -0.041 A 
HETATM   15  C   UNL     1      43.666  -9.919  12.413  1.00  0.00     0.009 A 
HETATM   16  C   UNL     1      43.141  -9.790  13.701  1.00  0.00     0.001 A 
HETATM   17  C   UNL     1      41.894 -10.332  14.005  1.00  0.00     0.000 A 
HETATM   18  C   UNL     1      41.171 -11.007  13.023  1.00  0.00     0.001 A 
HETATM   19  C   UNL     1      41.692 -11.133  11.733  1.00  0.00     0.009 A 
ENDBRANCH  13  14
ENDBRANCH  10  13
ENDBRANCH   8   9
ENDBRANCH   7   8
ENDBRANCH   3   7
BRANCH   6  20
HETATM   20  C   UNL     1      41.481 -16.235   5.040  1.00  0.00     0.256 C 
BRANCH  20  21
HETATM   21  O   UNL     1      42.536 -16.364   4.088  1.00  0.00    -0.344 OA
BRANCH  21  22
HETATM   22  C   UNL     1      43.090 -17.608   3.954  1.00  0.00     0.070 A 
HETATM   23  C   UNL     1      42.943 -18.458   2.854  1.00  0.00     0.049 A 
HETATM   24  C   UNL     1      43.554 -19.725   2.836  1.00  0.00    -0.023 A 
HETATM   25  C   UNL     1      44.332 -20.139   3.942  1.00  0.00    -0.026 A 
HETATM   26  C   UNL     1      43.405 -20.595   1.743  1.00  0.00     0.012 A 
HETATM   27  C   UNL     1      44.485 -19.271   5.031  1.00  0.00     0.015 A 
HETATM   28  C   UNL     1      44.932 -21.408   3.926  1.00  0.00     0.012 A 
HETATM   29  C   UNL     1      43.872 -18.017   5.033  1.00  0.00     0.037 A 
HETATM   30  C   UNL     1      44.769 -22.260   2.833  1.00  0.00     0.001 A 
HETATM   31  C   UNL     1      44.008 -21.854   1.742  1.00  0.00     0.001 A 
ENDBRANCH  21  22
ENDBRANCH  20  21
ENDBRANCH   6  20
TORSDOF 8
ENDMDL
MODEL 8
REMARK VINA RESULT:      -9.0      2.634      3.281
REMARK  8 active torsions:
REMARK  status: ('A' for Active; 'I' for Inactive)
REMARK    1  A    between atoms: C_3  and  S_4 
REMARK    2  A    between atoms: S_4  and  C_5 
REMARK    3  A    between atoms: C_5  and  C_6 
REMARK       I    between atoms: C_6  and  N_7 
REMARK    4  A    between atoms: N_7  and  C_8 
REMARK    5  A    between atoms: C_8  and  C_9 
REMARK    6  A    between atoms: C_18  and  C_19 
REMARK    7  A    between atoms: C_19  and  O_20 
REMARK    8  A    between atoms: O_20  and  C_21 
ROOT
HETATM    1  C   UNL     1      43.680 -13.954   6.391  1.00  0.00     0.160 C 
HETATM    2  N   UNL     1      42.410 -14.578   6.121  1.00  0.00    -0.314 N 
HETATM    3  C   UNL     1      41.277 -13.997   5.628  1.00  0.00     0.191 A 
HETATM    4  N   UNL     1      40.331 -14.899   5.505  1.00  0.00    -0.123 NA
HETATM    5  N   UNL     1      40.838 -16.096   5.937  1.00  0.00    -0.132 NA
HETATM    6  C   UNL     1      42.088 -15.903   6.313  1.00  0.00     0.154 A 
ENDROOT
BRANCH   3   7
HETATM    7  S   UNL     1      41.127 -12.319   5.244  1.00  0.00    -0.081 SA
BRANCH   7   8
HETATM    8  C   UNL     1      39.650 -11.869   6.202  1.00  0.00     0.185 C 
BRANCH   8   9
HETATM    9  C   UNL     1      39.961 -10.836   7.273  1.00  0.00     0.227 C 
HETATM   10  N   UNL     1      40.584 -11.326   8.394  1.00  0.00    -0.356 N 
HETATM   11  H   UNL     1      40.803 -12.319   8.435  1.00  0.00     0.162 HD
HETATM   12  O   UNL     1      39.617  -9.661   7.152  1.00  0.00    -0.273 OA
BRANCH  10  13
HETATM   13  C   UNL     1      40.863 -10.519   9.558  1.00  0.00     0.161 C 
BRANCH  13  14
HETATM   14  C   UNL     1      42.303 -10.627   9.992  1.00  0.00    -0.041 A 
HETATM   15  C   UNL     1      42.689 -10.198  11.271  1.00  0.00     0.009 A 
HETATM   16  C   UNL     1      44.012 -10.329  11.697  1.00  0.00     0.001 A 
HETATM   17  C   UNL     1      44.966 -10.888  10.848  1.00  0.00     0.000 A 
HETATM   18  C   UNL     1      44.598 -11.314   9.573  1.00  0.00     0.001 A 
HETATM   19  C   UNL     1      43.274 -11.188   9.148  1.00  0.00     0.009 A 
ENDBRANCH  13  14
ENDBRANCH  10  13
ENDBRANCH   8   9
ENDBRANCH   7   8
ENDBRANCH   3   7
BRANCH   6  20
HETATM   20  C   UNL     1      43.015 -16.951   6.827  1.00  0.00     0.256 C 
BRANCH  20  21
HETATM   21  O   UNL     1      44.124 -17.014   5.931  1.00  0.00    -0.344 OA
BRANCH  21  22
HETATM   22  C   UNL     1      44.086 -17.996   4.979  1.00  0.00     0.070 A 
HETATM   23  C   UNL     1      44.453 -19.331   5.161  1.00  0.00     0.049 A 
HETATM   24  C   UNL     1      44.381 -20.251   4.098  1.00  0.00    -0.023 A 
HETATM   25  C   UNL     1      43.925 -19.817   2.833  1.00  0.00    -0.026 A 
HETATM   26  C   UNL     1      44.758 -21.594   4.264  1.00  0.00     0.012 A 
HETATM   27  C   UNL     1      43.544 -18.479   2.666  1.00  0.00     0.015 A 
HETATM   28  C   UNL     1      43.864 -20.734   1.771  1.00  0.00     0.012 A 
HETATM   29  C   UNL     1      43.622 -17.580   3.732  1.00  0.00     0.037 A 
HETATM   30  C   UNL     1      44.246 -22.063   1.953  1.00  0.00     0.001 A 
HETATM   31  C   UNL     1      44.692 -22.493   3.199  1.00  0.00     0.001 A 
ENDBRANCH  21  22
ENDBRANCH  20  21
ENDBRANCH   6  20
TORSDOF 8
ENDMDL
MODEL 9
REMARK VINA RESULT:      -9.0      4.883      7.663
REMARK  8 active torsions:
REMARK  status: ('A' for Active; 'I' for Inactive)
REMARK    1  A    between atoms: C_3  and  S_4 
REMARK    2  A    between atoms: S_4  and  C_5 
REMARK    3  A    between atoms: C_5  and  C_6 
REMARK       I    between atoms: C_6  and  N_7 
REMARK    4  A    between atoms: N_7  and  C_8 
REMARK    5  A    between atoms: C_8  and  C_9 
REMARK    6  A    between atoms: C_18  and  C_19 
REMARK    7  A    between atoms: C_19  and  O_20 
REMARK    8  A    between atoms: O_20  and  C_21 
ROOT
HETATM    1  C   UNL     1      40.280 -15.523   5.842  1.00  0.00     0.160 C 
HETATM    2  N   UNL     1      41.516 -14.785   5.842  1.00  0.00    -0.314 N 
HETATM    3  C   UNL     1      41.714 -13.476   5.502  1.00  0.00     0.191 A 
HETATM    4  N   UNL     1      42.980 -13.164   5.649  1.00  0.00    -0.123 NA
HETATM    5  N   UNL     1      43.638 -14.286   6.080  1.00  0.00    -0.132 NA
HETATM    6  C   UNL     1      42.760 -15.263   6.193  1.00  0.00     0.154 A 
ENDROOT
BRANCH   3   7
HETATM    7  S   UNL     1      40.470 -12.413   4.947  1.00  0.00    -0.081 SA
BRANCH   7   8
HETATM    8  C   UNL     1      41.356 -11.470   3.671  1.00  0.00     0.185 C 
BRANCH   8   9
HETATM    9  C   UNL     1      41.436 -12.228   2.357  1.00  0.00     0.227 C 
HETATM   10  N   UNL     1      40.226 -12.549   1.792  1.00  0.00    -0.356 N 
HETATM   11  H   UNL     1      39.374 -12.259   2.269  1.00  0.00     0.162 HD
HETATM   12  O   UNL     1      42.515 -12.574   1.878  1.00  0.00    -0.273 OA
BRANCH  10  13
HETATM   13  C   UNL     1      40.099 -13.356   0.602  1.00  0.00     0.161 C 
BRANCH  13  14
HETATM   14  C   UNL     1      40.438 -14.803   0.859  1.00  0.00    -0.041 A 
HETATM   15  C   UNL     1      39.756 -15.522   1.853  1.00  0.00     0.009 A 
HETATM   16  C   UNL     1      40.035 -16.873   2.072  1.00  0.00     0.001 A 
HETATM   17  C   UNL     1      40.999 -17.520   1.302  1.00  0.00     0.000 A 
HETATM   18  C   UNL     1      41.687 -16.818   0.314  1.00  0.00     0.001 A 
HETATM   19  C   UNL     1      41.406 -15.468   0.090  1.00  0.00     0.009 A 
ENDBRANCH  13  14
ENDBRANCH  10  13
ENDBRANCH   8   9
ENDBRANCH   7   8
ENDBRANCH   3   7
BRANCH   6  20
HETATM   20  C   UNL     1      43.051 -16.649   6.656  1.00  0.00     0.256 C 
BRANCH  20  21
HETATM   21  O   UNL     1      44.297 -17.037   6.079  1.00  0.00    -0.344 OA
BRANCH  21  22
HETATM   22  C   UNL     1      44.256 -18.046   5.155  1.00  0.00     0.070 A 
HETATM   23  C   UNL     1      44.561 -19.389   5.391  1.00  0.00     0.049 A 
HETATM   24  C   UNL     1      44.492 -20.336   4.353  1.00  0.00    -0.023 A 
HETATM   25  C   UNL     1      44.103 -19.923   3.058  1.00  0.00    -0.026 A 
HETATM   26  C   UNL     1      44.808 -21.688   4.572  1.00  0.00     0.012 A 
HETATM   27  C   UNL     1      43.784 -18.577   2.838  1.00  0.00     0.015 A 
HETATM   28  C   UNL     1      44.046 -20.869   2.021  1.00  0.00     0.012 A 
HETATM   29  C   UNL     1      43.857 -17.650   3.879  1.00  0.00     0.037 A 
HETATM   30  C   UNL     1      44.367 -22.207   2.257  1.00  0.00     0.001 A 
HETATM   31  C   UNL     1      44.747 -22.616   3.531  1.00  0.00     0.001 A 
ENDBRANCH  21  22
ENDBRANCH  20  21
ENDBRANCH   6  20
TORSDOF 8
ENDMDL
MODEL 10
REMARK VINA RESULT:      -9.0      1.942      2.706
REMARK  8 active torsions:
REMARK  status: ('A' for Active; 'I' for Inactive)
REMARK    1  A    between atoms: C_3  and  S_4 
REMARK    2  A    between atoms: S_4  and  C_5 
REMARK    3  A    between atoms: C_5  and  C_6 
REMARK       I    between atoms: C_6  and  N_7 
REMARK    4  A    between atoms: N_7  and  C_8 
REMARK    5  A    between atoms: C_8  and  C_9 
REMARK    6  A    between atoms: C_18  and  C_19 
REMARK    7  A    between atoms: C_19  and  O_20 
REMARK    8  A    between atoms: O_20  and  C_21 
ROOT
HETATM    1  C   UNL     1      40.423 -14.303   4.608  1.00  0.00     0.160 C 
HETATM    2  N   UNL     1      41.729 -14.110   4.032  1.00  0.00    -0.314 N 
HETATM    3  C   UNL     1      42.827 -13.541   4.612  1.00  0.00     0.191 A 
HETATM    4  N   UNL     1      43.836 -13.562   3.772  1.00  0.00    -0.123 NA
HETATM    5  N   UNL     1      43.399 -14.142   2.610  1.00  0.00    -0.132 NA
HETATM    6  C   UNL     1      42.129 -14.468   2.763  1.00  0.00     0.154 A 
ENDROOT
BRANCH   3   7
HETATM    7  S   UNL     1      42.858 -12.883   6.209  1.00  0.00    -0.081 SA
BRANCH   7   8
HETATM    8  C   UNL     1      44.143 -13.905   6.987  1.00  0.00     0.185 C 
BRANCH   8   9
HETATM    9  C   UNL     1      44.911 -13.139   8.052  1.00  0.00     0.227 C 
HETATM   10  N   UNL     1      44.212 -12.879   9.205  1.00  0.00    -0.356 N 
HETATM   11  H   UNL     1      43.253 -13.214   9.278  1.00  0.00     0.162 HD
HETATM   12  O   UNL     1      46.057 -12.737   7.854  1.00  0.00    -0.273 OA
BRANCH  10  13
HETATM   13  C   UNL     1      44.736 -12.076  10.283  1.00  0.00     0.161 C 
BRANCH  13  14
HETATM   14  C   UNL     1      43.783 -10.980  10.690  1.00  0.00    -0.041 A 
HETATM   15  C   UNL     1      43.908 -10.366  11.946  1.00  0.00     0.009 A 
HETATM   16  C   UNL     1      43.056  -9.324  12.317  1.00  0.00     0.001 A 
HETATM   17  C   UNL     1      42.068  -8.885  11.438  1.00  0.00     0.000 A 
HETATM   18  C   UNL     1      41.929  -9.488  10.189  1.00  0.00     0.001 A 
HETATM   19  C   UNL     1      42.784 -10.527   9.815  1.00  0.00     0.009 A 
ENDBRANCH  13  14
ENDBRANCH  10  13
ENDBRANCH   8   9
ENDBRANCH   7   8
ENDBRANCH   3   7
BRANCH   6  20
HETATM   20  C   UNL     1      41.274 -15.144   1.748  1.00  0.00     0.256 C 
BRANCH  20  21
HETATM   21  O   UNL     1      40.796 -16.355   2.333  1.00  0.00    -0.344 OA
BRANCH  21  22
HETATM   22  C   UNL     1      41.737 -17.303   2.630  1.00  0.00     0.070 A 
HETATM   23  C   UNL     1      42.101 -17.724   3.912  1.00  0.00     0.049 A 
HETATM   24  C   UNL     1      43.095 -18.704   4.093  1.00  0.00    -0.023 A 
HETATM   25  C   UNL     1      43.726 -19.272   2.963  1.00  0.00    -0.026 A 
HETATM   26  C   UNL     1      43.481 -19.128   5.376  1.00  0.00     0.012 A 
HETATM   27  C   UNL     1      43.341 -18.853   1.683  1.00  0.00     0.015 A 
HETATM   28  C   UNL     1      44.726 -20.242   3.147  1.00  0.00     0.012 A 
HETATM   29  C   UNL     1      42.352 -17.881   1.521  1.00  0.00     0.037 A 
HETATM   30  C   UNL     1      45.098 -20.648   4.429  1.00  0.00     0.001 A 
HETATM   31  C   UNL     1      44.475 -20.093   5.542  1.00  0.00     0.001 A 
ENDBRANCH  21  22
ENDBRANCH  20  21
ENDBRANCH   6  20
TORSDOF 8
ENDMDL
