MODEL 1
REMARK VINA RESULT:     -10.0      0.000      0.000
REMARK  5 active torsions:
REMARK  status: ('A' for Active; 'I' for Inactive)
REMARK    1  A    between atoms: C_4  and  O_5 
REMARK    2  A    between atoms: O_5  and  C_6 
REMARK    3  A    between atoms: C_6  and  C_7 
REMARK       I    between atoms: C_7  and  N_8 
REMARK    4  A    between atoms: N_8  and  C_9 
REMARK    5  A    between atoms: C_12  and  C_13 
ROOT
HETATM    1  C   UNL     1      43.970 -14.362   7.315  1.00  0.00     0.034 A 
HETATM    2  C   UNL     1      43.995 -15.689   7.751  1.00  0.00     0.030 A 
HETATM    3  C   UNL     1      43.863 -16.745   6.842  1.00  0.00     0.017 A 
HETATM    4  C   UNL     1      43.702 -16.484   5.479  1.00  0.00     0.010 A 
HETATM    5  C   UNL     1      43.621 -15.160   5.039  1.00  0.00     0.017 A 
HETATM    6  C   UNL     1      43.761 -14.106   5.953  1.00  0.00     0.030 A 
ENDROOT
BRANCH   1   7
HETATM    7  N   UNL     1      44.170 -13.258   8.170  1.00  0.00    -0.325 N 
HETATM    8  C   UNL     1      45.328 -12.518   8.325  1.00  0.00     0.246 C 
HETATM    9  O   UNL     1      46.419 -12.755   7.809  1.00  0.00    -0.271 OA
HETATM   10  H   UNL     1      43.372 -12.930   8.706  1.00  0.00     0.169 HD
BRANCH   8  11
HETATM   11  C   UNL     1      45.178 -11.319   9.263  1.00  0.00     0.278 C 
BRANCH  11  12
HETATM   12  O   UNL     1      43.856 -10.796   9.305  1.00  0.00    -0.342 OA
BRANCH  12  13
HETATM   13  C   UNL     1      43.295 -10.705  10.554  1.00  0.00     0.069 A 
HETATM   14  C   UNL     1      42.030 -11.183  10.919  1.00  0.00     0.043 A 
HETATM   15  C   UNL     1      41.564 -11.047  12.235  1.00  0.00    -0.059 A 
HETATM   16  C   UNL     1      40.228 -11.605  12.634  1.00  0.00     0.048 C 
HETATM   17  C   UNL     1      42.382 -10.435  13.190  1.00  0.00     0.007 A 
HETATM   18  C   UNL     1      43.636  -9.944  12.830  1.00  0.00     0.003 A 
HETATM   19  C   UNL     1      44.087 -10.076  11.516  1.00  0.00     0.037 A 
ENDBRANCH  12  13
ENDBRANCH  11  12
ENDBRANCH   8  11
ENDBRANCH   1   7
BRANCH   4  20
HETATM   20  C   UNL     1      43.642 -17.593   4.493  1.00  0.00     0.141 A 
HETATM   21  N   UNL     1      44.216 -18.731   4.718  1.00  0.00    -0.230 NA
HETATM   22  C   UNL     1      44.109 -19.733   3.735  1.00  0.00     0.074 A 
HETATM   23  C   UNL     1      43.381 -19.559   2.556  1.00  0.00     0.061 A 
HETATM   24  C   UNL     1      44.757 -20.955   3.938  1.00  0.00     0.032 A 
HETATM   25  C   UNL     1      42.714 -18.265   2.358  1.00  0.00     0.259 A 
HETATM   26  C   UNL     1      43.283 -20.572   1.596  1.00  0.00     0.019 A 
HETATM   27  O   UNL     1      42.020 -18.026   1.377  1.00  0.00    -0.267 OA
HETATM   28  N   UNL     1      42.912 -17.342   3.351  1.00  0.00    -0.307 N 
HETATM   29  H   UNL     1      42.412 -16.474   3.226  1.00  0.00     0.170 HD
HETATM   30  C   UNL     1      43.933 -21.786   1.815  1.00  0.00     0.001 A 
HETATM   31  C   UNL     1      44.670 -21.975   2.984  1.00  0.00     0.002 A 
ENDBRANCH   4  20
TORSDOF 5
ENDMDL
MODEL 2
REMARK VINA RESULT:      -9.1      1.690      2.287
REMARK  5 active torsions:
REMARK  status: ('A' for Active; 'I' for Inactive)
REMARK    1  A    between atoms: C_4  and  O_5 
REMARK    2  A    between atoms: O_5  and  C_6 
REMARK    3  A    between atoms: C_6  and  C_7 
REMARK       I    between atoms: C_7  and  N_8 
REMARK    4  A    between atoms: N_8  and  C_9 
REMARK    5  A    between atoms: C_12  and  C_13 
ROOT
HETATM    1  C   UNL     1      42.909 -13.606   6.022  1.00  0.00     0.034 A 
HETATM    2  C   UNL     1      42.505 -13.964   4.733  1.00  0.00     0.030 A 
HETATM    3  C   UNL     1      42.802 -15.228   4.213  1.00  0.00     0.017 A 
HETATM    4  C   UNL     1      43.510 -16.156   4.982  1.00  0.00     0.010 A 
HETATM    5  C   UNL     1      43.965 -15.790   6.252  1.00  0.00     0.017 A 
HETATM    6  C   UNL     1      43.659 -14.524   6.770  1.00  0.00     0.030 A 
ENDROOT
BRANCH   1   7
HETATM    7  N   UNL     1      42.578 -12.376   6.628  1.00  0.00    -0.325 N 
HETATM    8  C   UNL     1      41.312 -11.855   6.830  1.00  0.00     0.246 C 
HETATM    9  O   UNL     1      40.254 -12.337   6.430  1.00  0.00    -0.271 OA
HETATM   10  H   UNL     1      43.340 -11.818   7.002  1.00  0.00     0.169 HD
BRANCH   8  11
HETATM   11  C   UNL     1      41.299 -10.539   7.610  1.00  0.00     0.278 C 
BRANCH  11  12
HETATM   12  O   UNL     1      42.542 -10.240   8.235  1.00  0.00    -0.342 OA
BRANCH  12  13
HETATM   13  C   UNL     1      42.625 -10.555   9.568  1.00  0.00     0.069 A 
HETATM   14  C   UNL     1      41.540 -10.777  10.424  1.00  0.00     0.043 A 
HETATM   15  C   UNL     1      41.746 -11.109  11.772  1.00  0.00    -0.059 A 
HETATM   16  C   UNL     1      40.582 -11.397  12.675  1.00  0.00     0.048 C 
HETATM   17  C   UNL     1      43.054 -11.226  12.255  1.00  0.00     0.007 A 
HETATM   18  C   UNL     1      44.138 -10.991  11.411  1.00  0.00     0.003 A 
HETATM   19  C   UNL     1      43.922 -10.653  10.074  1.00  0.00     0.037 A 
ENDBRANCH  12  13
ENDBRANCH  11  12
ENDBRANCH   8  11
ENDBRANCH   1   7
BRANCH   4  20
HETATM   20  C   UNL     1      43.763 -17.529   4.477  1.00  0.00     0.141 A 
HETATM   21  N   UNL     1      44.000 -18.514   5.283  1.00  0.00    -0.230 NA
HETATM   22  C   UNL     1      44.226 -19.788   4.725  1.00  0.00     0.074 A 
HETATM   23  C   UNL     1      44.166 -20.031   3.350  1.00  0.00     0.061 A 
HETATM   24  C   UNL     1      44.527 -20.856   5.573  1.00  0.00     0.032 A 
HETATM   25  C   UNL     1      43.856 -18.892   2.475  1.00  0.00     0.259 A 
HETATM   26  C   UNL     1      44.387 -21.306   2.820  1.00  0.00     0.019 A 
HETATM   27  O   UNL     1      43.741 -19.008   1.261  1.00  0.00    -0.267 OA
HETATM   28  N   UNL     1      43.694 -17.688   3.109  1.00  0.00    -0.307 N 
HETATM   29  H   UNL     1      43.437 -16.923   2.503  1.00  0.00     0.170 HD
HETATM   30  C   UNL     1      44.682 -22.362   3.679  1.00  0.00     0.001 A 
HETATM   31  C   UNL     1      44.754 -22.136   5.054  1.00  0.00     0.002 A 
ENDBRANCH   4  20
TORSDOF 5
ENDMDL
MODEL 3
REMARK VINA RESULT:      -8.8      2.017      2.894
REMARK  5 active torsions:
REMARK  status: ('A' for Active; 'I' for Inactive)
REMARK    1  A    between atoms: C_4  and  O_5 
REMARK    2  A    between atoms: O_5  and  C_6 
REMARK    3  A    between atoms: C_6  and  C_7 
REMARK       I    between atoms: C_7  and  N_8 
REMARK    4  A    between atoms: N_8  and  C_9 
REMARK    5  A    between atoms: C_12  and  C_13 
ROOT
HETATM    1  C   UNL     1      41.939 -12.873   5.983  1.00  0.00     0.034 A 
HETATM    2  C   UNL     1      41.097 -13.291   4.950  1.00  0.00     0.030 A 
HETATM    3  C   UNL     1      41.356 -14.472   4.246  1.00  0.00     0.017 A 
HETATM    4  C   UNL     1      42.468 -15.254   4.571  1.00  0.00     0.010 A 
HETATM    5  C   UNL     1      43.347 -14.817   5.566  1.00  0.00     0.017 A 
HETATM    6  C   UNL     1      43.078 -13.637   6.272  1.00  0.00     0.030 A 
ENDROOT
BRANCH   1   7
HETATM    7  N   UNL     1      41.692 -11.732   6.775  1.00  0.00    -0.325 N 
HETATM    8  C   UNL     1      40.524 -11.415   7.445  1.00  0.00     0.246 C 
HETATM    9  O   UNL     1      39.461 -12.032   7.389  1.00  0.00    -0.271 OA
HETATM   10  H   UNL     1      42.460 -11.084   6.916  1.00  0.00     0.169 HD
BRANCH   8  11
HETATM   11  C   UNL     1      40.621 -10.150   8.300  1.00  0.00     0.278 C 
BRANCH  11  12
HETATM   12  O   UNL     1      40.243 -10.353   9.656  1.00  0.00    -0.342 OA
BRANCH  12  13
HETATM   13  C   UNL     1      41.271 -10.627  10.523  1.00  0.00     0.069 A 
HETATM   14  C   UNL     1      42.625 -10.722  10.181  1.00  0.00     0.043 A 
HETATM   15  C   UNL     1      43.595 -10.994  11.159  1.00  0.00    -0.059 A 
HETATM   16  C   UNL     1      45.051 -11.045  10.797  1.00  0.00     0.048 C 
HETATM   17  C   UNL     1      43.197 -11.161  12.489  1.00  0.00     0.007 A 
HETATM   18  C   UNL     1      41.848 -11.082  12.834  1.00  0.00     0.003 A 
HETATM   19  C   UNL     1      40.890 -10.820  11.853  1.00  0.00     0.037 A 
ENDBRANCH  12  13
ENDBRANCH  11  12
ENDBRANCH   8  11
ENDBRANCH   1   7
BRANCH   4  20
HETATM   20  C   UNL     1      42.712 -16.551   3.889  1.00  0.00     0.141 A 
HETATM   21  N   UNL     1      43.526 -17.430   4.379  1.00  0.00    -0.230 NA
HETATM   22  C   UNL     1      43.701 -18.637   3.674  1.00  0.00     0.074 A 
HETATM   23  C   UNL     1      43.006 -18.932   2.498  1.00  0.00     0.061 A 
HETATM   24  C   UNL     1      44.606 -19.583   4.161  1.00  0.00     0.032 A 
HETATM   25  C   UNL     1      42.064 -17.920   1.998  1.00  0.00     0.259 A 
HETATM   26  C   UNL     1      43.190 -20.140   1.819  1.00  0.00     0.019 A 
HETATM   27  O   UNL     1      41.378 -18.098   0.999  1.00  0.00    -0.267 OA
HETATM   28  N   UNL     1      41.996 -16.765   2.731  1.00  0.00    -0.307 N 
HETATM   29  H   UNL     1      41.313 -16.097   2.404  1.00  0.00     0.170 HD
HETATM   30  C   UNL     1      44.094 -21.075   2.320  1.00  0.00     0.001 A 
HETATM   31  C   UNL     1      44.802 -20.795   3.489  1.00  0.00     0.002 A 
ENDBRANCH   4  20
TORSDOF 5
ENDMDL
MODEL 4
REMARK VINA RESULT:      -8.7      7.866     12.056
REMARK  5 active torsions:
REMARK  status: ('A' for Active; 'I' for Inactive)
REMARK    1  A    between atoms: C_4  and  O_5 
REMARK    2  A    between atoms: O_5  and  C_6 
REMARK    3  A    between atoms: C_6  and  C_7 
REMARK       I    between atoms: C_7  and  N_8 
REMARK    4  A    between atoms: N_8  and  C_9 
REMARK    5  A    between atoms: C_12  and  C_13 
ROOT
HETATM    1  C   UNL     1      40.905 -15.088  -1.169  1.00  0.00     0.034 A 
HETATM    2  C   UNL     1      40.789 -15.453  -2.513  1.00  0.00     0.030 A 
HETATM    3  C   UNL     1      39.761 -14.940  -3.310  1.00  0.00     0.017 A 
HETATM    4  C   UNL     1      38.829 -14.049  -2.769  1.00  0.00     0.010 A 
HETATM    5  C   UNL     1      38.903 -13.719  -1.413  1.00  0.00     0.017 A 
HETATM    6  C   UNL     1      39.940 -14.231  -0.621  1.00  0.00     0.030 A 
ENDROOT
BRANCH   1   7
HETATM    7  N   UNL     1      41.959 -15.514  -0.334  1.00  0.00    -0.325 N 
HETATM    8  C   UNL     1      41.975 -16.621   0.495  1.00  0.00     0.246 C 
HETATM    9  O   UNL     1      41.031 -17.377   0.720  1.00  0.00    -0.271 OA
HETATM   10  H   UNL     1      42.825 -14.986  -0.368  1.00  0.00     0.169 HD
BRANCH   8  11
HETATM   11  C   UNL     1      43.316 -16.856   1.191  1.00  0.00     0.278 C 
BRANCH  11  12
HETATM   12  O   UNL     1      43.188 -17.202   2.565  1.00  0.00    -0.342 OA
BRANCH  12  13
HETATM   13  C   UNL     1      43.651 -18.447   2.908  1.00  0.00     0.069 A 
HETATM   14  C   UNL     1      43.637 -19.580   2.085  1.00  0.00     0.043 A 
HETATM   15  C   UNL     1      44.154 -20.803   2.538  1.00  0.00    -0.059 A 
HETATM   16  C   UNL     1      44.183 -22.002   1.635  1.00  0.00     0.048 C 
HETATM   17  C   UNL     1      44.696 -20.881   3.825  1.00  0.00     0.007 A 
HETATM   18  C   UNL     1      44.700 -19.761   4.655  1.00  0.00     0.003 A 
HETATM   19  C   UNL     1      44.176 -18.551   4.198  1.00  0.00     0.037 A 
ENDBRANCH  12  13
ENDBRANCH  11  12
ENDBRANCH   8  11
ENDBRANCH   1   7
BRANCH   4  20
HETATM   20  C   UNL     1      37.781 -13.433  -3.622  1.00  0.00     0.141 A 
HETATM   21  N   UNL     1      37.729 -12.154  -3.813  1.00  0.00    -0.230 NA
HETATM   22  C   UNL     1      36.706 -11.647  -4.638  1.00  0.00     0.074 A 
HETATM   23  C   UNL     1      35.779 -12.470  -5.282  1.00  0.00     0.061 A 
HETATM   24  C   UNL     1      36.606 -10.266  -4.824  1.00  0.00     0.032 A 
HETATM   25  C   UNL     1      35.898 -13.919  -5.067  1.00  0.00     0.259 A 
HETATM   26  C   UNL     1      34.776 -11.945  -6.103  1.00  0.00     0.019 A 
HETATM   27  O   UNL     1      35.159 -14.728  -5.616  1.00  0.00    -0.267 OA
HETATM   28  N   UNL     1      36.898 -14.309  -4.216  1.00  0.00    -0.307 N 
HETATM   29  H   UNL     1      36.999 -15.308  -4.112  1.00  0.00     0.170 HD
HETATM   30  C   UNL     1      34.691 -10.566  -6.280  1.00  0.00     0.001 A 
HETATM   31  C   UNL     1      35.604  -9.728  -5.640  1.00  0.00     0.002 A 
ENDBRANCH   4  20
TORSDOF 5
ENDMDL
MODEL 5
REMARK VINA RESULT:      -8.6      6.376      9.654
REMARK  5 active torsions:
REMARK  status: ('A' for Active; 'I' for Inactive)
REMARK    1  A    between atoms: C_4  and  O_5 
REMARK    2  A    between atoms: O_5  and  C_6 
REMARK    3  A    between atoms: C_6  and  C_7 
REMARK       I    between atoms: C_7  and  N_8 
REMARK    4  A    between atoms: N_8  and  C_9 
REMARK    5  A    between atoms: C_12  and  C_13 
ROOT
HETATM    1  C   UNL     1      41.370 -14.314   0.506  1.00  0.00     0.034 A 
HETATM    2  C   UNL     1      41.866 -14.204   1.808  1.00  0.00     0.030 A 
HETATM    3  C   UNL     1      42.383 -15.319   2.475  1.00  0.00     0.017 A 
HETATM    4  C   UNL     1      42.411 -16.566   1.845  1.00  0.00     0.010 A 
HETATM    5  C   UNL     1      41.868 -16.699   0.564  1.00  0.00     0.017 A 
HETATM    6  C   UNL     1      41.357 -15.576  -0.103  1.00  0.00     0.030 A 
ENDROOT
BRANCH   1   7
HETATM    7  N   UNL     1      40.902 -13.215  -0.244  1.00  0.00    -0.325 N 
HETATM    8  C   UNL     1      41.649 -12.160  -0.738  1.00  0.00     0.246 C 
HETATM    9  O   UNL     1      42.842 -11.949  -0.526  1.00  0.00    -0.271 OA
HETATM   10  H   UNL     1      39.919 -13.204  -0.496  1.00  0.00     0.169 HD
BRANCH   8  11
HETATM   11  C   UNL     1      40.848 -11.183  -1.600  1.00  0.00     0.278 C 
BRANCH  11  12
HETATM   12  O   UNL     1      40.700 -11.610  -2.949  1.00  0.00    -0.342 OA
BRANCH  12  13
HETATM   13  C   UNL     1      39.740 -12.566  -3.166  1.00  0.00     0.069 A 
HETATM   14  C   UNL     1      39.979 -13.897  -3.527  1.00  0.00     0.043 A 
HETATM   15  C   UNL     1      38.915 -14.794  -3.708  1.00  0.00    -0.059 A 
HETATM   16  C   UNL     1      39.177 -16.233  -4.047  1.00  0.00     0.048 C 
HETATM   17  C   UNL     1      37.604 -14.347  -3.514  1.00  0.00     0.007 A 
HETATM   18  C   UNL     1      37.358 -13.018  -3.168  1.00  0.00     0.003 A 
HETATM   19  C   UNL     1      38.423 -12.132  -2.999  1.00  0.00     0.037 A 
ENDBRANCH  12  13
ENDBRANCH  11  12
ENDBRANCH   8  11
ENDBRANCH   1   7
BRANCH   4  20
HETATM   20  C   UNL     1      43.031 -17.741   2.508  1.00  0.00     0.141 A 
HETATM   21  N   UNL     1      43.122 -18.886   1.910  1.00  0.00    -0.230 NA
HETATM   22  C   UNL     1      43.726 -19.951   2.606  1.00  0.00     0.074 A 
HETATM   23  C   UNL     1      44.259 -19.808   3.889  1.00  0.00     0.061 A 
HETATM   24  C   UNL     1      43.797 -21.206   1.997  1.00  0.00     0.032 A 
HETATM   25  C   UNL     1      44.168 -18.482   4.515  1.00  0.00     0.259 A 
HETATM   26  C   UNL     1      44.862 -20.879   4.558  1.00  0.00     0.019 A 
HETATM   27  O   UNL     1      44.640 -18.243   5.621  1.00  0.00    -0.267 OA
HETATM   28  N   UNL     1      43.526 -17.523   3.776  1.00  0.00    -0.307 N 
HETATM   29  H   UNL     1      43.510 -16.606   4.197  1.00  0.00     0.170 HD
HETATM   30  C   UNL     1      44.927 -22.124   3.935  1.00  0.00     0.001 A 
HETATM   31  C   UNL     1      44.394 -22.286   2.657  1.00  0.00     0.002 A 
ENDBRANCH   4  20
TORSDOF 5
ENDMDL
MODEL 6
REMARK VINA RESULT:      -8.6      2.294      3.124
REMARK  5 active torsions:
REMARK  status: ('A' for Active; 'I' for Inactive)
REMARK    1  A    between atoms: C_4  and  O_5 
REMARK    2  A    between atoms: O_5  and  C_6 
REMARK    3  A    between atoms: C_6  and  C_7 
REMARK       I    between atoms: C_7  and  N_8 
REMARK    4  A    between atoms: N_8  and  C_9 
REMARK    5  A    between atoms: C_12  and  C_13 
ROOT
HETATM    1  C   UNL     1      42.964 -14.080   5.943  1.00  0.00     0.034 A 
HETATM    2  C   UNL     1      42.752 -14.585   4.658  1.00  0.00     0.030 A 
HETATM    3  C   UNL     1      43.049 -15.918   4.353  1.00  0.00     0.017 A 
HETATM    4  C   UNL     1      43.566 -16.766   5.335  1.00  0.00     0.010 A 
HETATM    5  C   UNL     1      43.833 -16.257   6.609  1.00  0.00     0.017 A 
HETATM    6  C   UNL     1      43.527 -14.923   6.912  1.00  0.00     0.030 A 
ENDROOT
BRANCH   1   7
HETATM    7  N   UNL     1      42.618 -12.769   6.331  1.00  0.00    -0.325 N 
HETATM    8  C   UNL     1      41.345 -12.256   6.507  1.00  0.00     0.246 C 
HETATM    9  O   UNL     1      40.287 -12.833   6.263  1.00  0.00    -0.271 OA
HETATM   10  H   UNL     1      43.376 -12.130   6.553  1.00  0.00     0.169 HD
BRANCH   8  11
HETATM   11  C   UNL     1      41.321 -10.820   7.033  1.00  0.00     0.278 C 
BRANCH  11  12
HETATM   12  O   UNL     1      42.478 -10.473   7.785  1.00  0.00    -0.342 OA
BRANCH  12  13
HETATM   13  C   UNL     1      42.246 -10.061   9.073  1.00  0.00     0.069 A 
HETATM   14  C   UNL     1      43.071 -10.317  10.174  1.00  0.00     0.043 A 
HETATM   15  C   UNL     1      42.740  -9.831  11.448  1.00  0.00    -0.059 A 
HETATM   16  C   UNL     1      43.653 -10.065  12.617  1.00  0.00     0.048 C 
HETATM   17  C   UNL     1      41.574  -9.074  11.608  1.00  0.00     0.007 A 
HETATM   18  C   UNL     1      40.741  -8.828  10.518  1.00  0.00     0.003 A 
HETATM   19  C   UNL     1      41.075  -9.324   9.257  1.00  0.00     0.037 A 
ENDBRANCH  12  13
ENDBRANCH  11  12
ENDBRANCH   8  11
ENDBRANCH   1   7
BRANCH   4  20
HETATM   20  C   UNL     1      43.810 -18.203   5.049  1.00  0.00     0.141 A 
HETATM   21  N   UNL     1      44.040 -18.624   3.847  1.00  0.00    -0.230 NA
HETATM   22  C   UNL     1      44.266 -20.001   3.659  1.00  0.00     0.074 A 
HETATM   23  C   UNL     1      44.289 -20.914   4.716  1.00  0.00     0.061 A 
HETATM   24  C   UNL     1      44.474 -20.484   2.364  1.00  0.00     0.032 A 
HETATM   25  C   UNL     1      44.060 -20.387   6.069  1.00  0.00     0.259 A 
HETATM   26  C   UNL     1      44.523 -22.276   4.506  1.00  0.00     0.019 A 
HETATM   27  O   UNL     1      44.100 -21.097   7.067  1.00  0.00    -0.267 OA
HETATM   28  N   UNL     1      43.809 -19.042   6.143  1.00  0.00    -0.307 N 
HETATM   29  H   UNL     1      43.699 -18.684   7.081  1.00  0.00     0.170 HD
HETATM   30  C   UNL     1      44.732 -22.741   3.209  1.00  0.00     0.001 A 
HETATM   31  C   UNL     1      44.706 -21.846   2.140  1.00  0.00     0.002 A 
ENDBRANCH   4  20
TORSDOF 5
ENDMDL
MODEL 7
REMARK VINA RESULT:      -8.6      2.261     10.736
REMARK  5 active torsions:
REMARK  status: ('A' for Active; 'I' for Inactive)
REMARK    1  A    between atoms: C_4  and  O_5 
REMARK    2  A    between atoms: O_5  and  C_6 
REMARK    3  A    between atoms: C_6  and  C_7 
REMARK       I    between atoms: C_7  and  N_8 
REMARK    4  A    between atoms: N_8  and  C_9 
REMARK    5  A    between atoms: C_12  and  C_13 
ROOT
HETATM    1  C   UNL     1      43.269 -13.810   5.859  1.00  0.00     0.034 A 
HETATM    2  C   UNL     1      44.215 -13.694   6.881  1.00  0.00     0.030 A 
HETATM    3  C   UNL     1      44.061 -12.748   7.899  1.00  0.00     0.017 A 
HETATM    4  C   UNL     1      42.950 -11.899   7.908  1.00  0.00     0.010 A 
HETATM    5  C   UNL     1      42.025 -11.969   6.862  1.00  0.00     0.017 A 
HETATM    6  C   UNL     1      42.182 -12.924   5.848  1.00  0.00     0.030 A 
ENDROOT
BRANCH   1   7
HETATM    7  N   UNL     1      43.331 -14.790   4.848  1.00  0.00    -0.325 N 
HETATM    8  C   UNL     1      43.462 -14.581   3.486  1.00  0.00     0.246 C 
HETATM    9  O   UNL     1      43.454 -13.493   2.911  1.00  0.00    -0.271 OA
HETATM   10  H   UNL     1      43.325 -15.763   5.137  1.00  0.00     0.169 HD
BRANCH   8  11
HETATM   11  C   UNL     1      43.601 -15.867   2.671  1.00  0.00     0.278 C 
BRANCH  11  12
HETATM   12  O   UNL     1      42.756 -16.918   3.125  1.00  0.00    -0.342 OA
BRANCH  12  13
HETATM   13  C   UNL     1      43.367 -18.134   3.302  1.00  0.00     0.069 A 
HETATM   14  C   UNL     1      43.338 -19.203   2.399  1.00  0.00     0.043 A 
HETATM   15  C   UNL     1      44.015 -20.400   2.681  1.00  0.00    -0.059 A 
HETATM   16  C   UNL     1      44.024 -21.525   1.687  1.00  0.00     0.048 C 
HETATM   17  C   UNL     1      44.731 -20.514   3.876  1.00  0.00     0.007 A 
HETATM   18  C   UNL     1      44.751 -19.459   4.787  1.00  0.00     0.003 A 
HETATM   19  C   UNL     1      44.068 -18.276   4.501  1.00  0.00     0.037 A 
ENDBRANCH  12  13
ENDBRANCH  11  12
ENDBRANCH   8  11
ENDBRANCH   1   7
BRANCH   4  20
HETATM   20  C   UNL     1      42.730 -10.945   9.024  1.00  0.00     0.141 A 
HETATM   21  N   UNL     1      43.348 -11.072  10.155  1.00  0.00    -0.230 NA
HETATM   22  C   UNL     1      43.087 -10.123  11.163  1.00  0.00     0.074 A 
HETATM   23  C   UNL     1      42.224  -9.041  10.975  1.00  0.00     0.061 A 
HETATM   24  C   UNL     1      43.711 -10.264  12.405  1.00  0.00     0.032 A 
HETATM   25  C   UNL     1      41.572  -8.915   9.664  1.00  0.00     0.259 A 
HETATM   26  C   UNL     1      41.986  -8.107  11.989  1.00  0.00     0.019 A 
HETATM   27  O   UNL     1      40.829  -7.981   9.386  1.00  0.00    -0.267 OA
HETATM   28  N   UNL     1      41.858  -9.909   8.766  1.00  0.00    -0.307 N 
HETATM   29  H   UNL     1      41.441  -9.787   7.854  1.00  0.00     0.170 HD
HETATM   30  C   UNL     1      42.618  -8.260  13.221  1.00  0.00     0.001 A 
HETATM   31  C   UNL     1      43.478  -9.338  13.429  1.00  0.00     0.002 A 
ENDBRANCH   4  20
TORSDOF 5
ENDMDL
MODEL 8
REMARK VINA RESULT:      -8.2      2.944      3.759
REMARK  5 active torsions:
REMARK  status: ('A' for Active; 'I' for Inactive)
REMARK    1  A    between atoms: C_4  and  O_5 
REMARK    2  A    between atoms: O_5  and  C_6 
REMARK    3  A    between atoms: C_6  and  C_7 
REMARK       I    between atoms: C_7  and  N_8 
REMARK    4  A    between atoms: N_8  and  C_9 
REMARK    5  A    between atoms: C_12  and  C_13 
ROOT
HETATM    1  C   UNL     1      41.291 -13.353   6.060  1.00  0.00     0.034 A 
HETATM    2  C   UNL     1      40.457 -14.457   5.869  1.00  0.00     0.030 A 
HETATM    3  C   UNL     1      40.972 -15.674   5.409  1.00  0.00     0.017 A 
HETATM    4  C   UNL     1      42.336 -15.802   5.134  1.00  0.00     0.010 A 
HETATM    5  C   UNL     1      43.170 -14.688   5.270  1.00  0.00     0.017 A 
HETATM    6  C   UNL     1      42.649 -13.473   5.738  1.00  0.00     0.030 A 
ENDROOT
BRANCH   1   7
HETATM    7  N   UNL     1      40.845 -12.124   6.589  1.00  0.00    -0.325 N 
HETATM    8  C   UNL     1      39.991 -11.215   5.990  1.00  0.00     0.246 C 
HETATM    9  O   UNL     1      39.544 -11.280   4.846  1.00  0.00    -0.271 OA
HETATM   10  H   UNL     1      41.139 -11.884   7.531  1.00  0.00     0.169 HD
BRANCH   8  11
HETATM   11  C   UNL     1      39.627 -10.025   6.879  1.00  0.00     0.278 C 
BRANCH  11  12
HETATM   12  O   UNL     1      38.668 -10.339   7.881  1.00  0.00    -0.342 OA
BRANCH  12  13
HETATM   13  C   UNL     1      39.103 -10.218   9.177  1.00  0.00     0.069 A 
HETATM   14  C   UNL     1      40.276 -10.774   9.700  1.00  0.00     0.043 A 
HETATM   15  C   UNL     1      40.630 -10.571  11.043  1.00  0.00    -0.059 A 
HETATM   16  C   UNL     1      41.914 -11.127  11.587  1.00  0.00     0.048 C 
HETATM   17  C   UNL     1      39.800  -9.795  11.858  1.00  0.00     0.007 A 
HETATM   18  C   UNL     1      38.623  -9.250  11.347  1.00  0.00     0.003 A 
HETATM   19  C   UNL     1      38.276  -9.466  10.013  1.00  0.00     0.037 A 
ENDBRANCH  12  13
ENDBRANCH  11  12
ENDBRANCH   8  11
ENDBRANCH   1   7
BRANCH   4  20
HETATM   20  C   UNL     1      42.911 -17.107   4.723  1.00  0.00     0.141 A 
HETATM   21  N   UNL     1      42.681 -17.610   3.553  1.00  0.00    -0.230 NA
HETATM   22  C   UNL     1      43.266 -18.852   3.237  1.00  0.00     0.074 A 
HETATM   23  C   UNL     1      44.108 -19.534   4.118  1.00  0.00     0.061 A 
HETATM   24  C   UNL     1      42.996 -19.434   1.996  1.00  0.00     0.032 A 
HETATM   25  C   UNL     1      44.373 -18.909   5.421  1.00  0.00     0.259 A 
HETATM   26  C   UNL     1      44.684 -20.763   3.781  1.00  0.00     0.019 A 
HETATM   27  O   UNL     1      45.128 -19.407   6.248  1.00  0.00    -0.267 OA
HETATM   28  N   UNL     1      43.725 -17.724   5.649  1.00  0.00    -0.307 N 
HETATM   29  H   UNL     1      43.950 -17.281   6.528  1.00  0.00     0.170 HD
HETATM   30  C   UNL     1      44.408 -21.329   2.537  1.00  0.00     0.001 A 
HETATM   31  C   UNL     1      43.564 -20.665   1.647  1.00  0.00     0.002 A 
ENDBRANCH   4  20
TORSDOF 5
ENDMDL
MODEL 9
REMARK VINA RESULT:      -7.9      6.159     10.043
REMARK  5 active torsions:
REMARK  status: ('A' for Active; 'I' for Inactive)
REMARK    1  A    between atoms: C_4  and  O_5 
REMARK    2  A    between atoms: O_5  and  C_6 
REMARK    3  A    between atoms: C_6  and  C_7 
REMARK       I    between atoms: C_7  and  N_8 
REMARK    4  A    between atoms: N_8  and  C_9 
REMARK    5  A    between atoms: C_12  and  C_13 
ROOT
HETATM    1  C   UNL     1      40.640 -14.782  -0.382  1.00  0.00     0.034 A 
HETATM    2  C   UNL     1      40.360 -14.404   0.934  1.00  0.00     0.030 A 
HETATM    3  C   UNL     1      40.776 -15.194   2.011  1.00  0.00     0.017 A 
HETATM    4  C   UNL     1      41.481 -16.379   1.783  1.00  0.00     0.010 A 
HETATM    5  C   UNL     1      41.718 -16.794   0.470  1.00  0.00     0.017 A 
HETATM    6  C   UNL     1      41.306 -15.995  -0.606  1.00  0.00     0.030 A 
ENDROOT
BRANCH   1   7
HETATM    7  N   UNL     1      40.311 -13.994  -1.505  1.00  0.00    -0.325 N 
HETATM    8  C   UNL     1      39.045 -13.672  -1.961  1.00  0.00     0.246 C 
HETATM    9  O   UNL     1      37.981 -14.099  -1.517  1.00  0.00    -0.271 OA
HETATM   10  H   UNL     1      41.077 -13.571  -2.021  1.00  0.00     0.169 HD
BRANCH   8  11
HETATM   11  C   UNL     1      39.039 -12.711  -3.150  1.00  0.00     0.278 C 
BRANCH  11  12
HETATM   12  O   UNL     1      40.254 -12.719  -3.891  1.00  0.00    -0.342 OA
BRANCH  12  13
HETATM   13  C   UNL     1      40.997 -11.568  -3.824  1.00  0.00     0.069 A 
HETATM   14  C   UNL     1      41.884 -11.226  -2.797  1.00  0.00     0.043 A 
HETATM   15  C   UNL     1      42.605 -10.022  -2.841  1.00  0.00    -0.059 A 
HETATM   16  C   UNL     1      43.592  -9.682  -1.763  1.00  0.00     0.048 C 
HETATM   17  C   UNL     1      42.436  -9.165  -3.933  1.00  0.00     0.007 A 
HETATM   18  C   UNL     1      41.543  -9.493  -4.953  1.00  0.00     0.003 A 
HETATM   19  C   UNL     1      40.825 -10.688  -4.895  1.00  0.00     0.037 A 
ENDBRANCH  12  13
ENDBRANCH  11  12
ENDBRANCH   8  11
ENDBRANCH   1   7
BRANCH   4  20
HETATM   20  C   UNL     1      41.999 -17.187   2.916  1.00  0.00     0.141 A 
HETATM   21  N   UNL     1      42.899 -18.100   2.741  1.00  0.00    -0.230 NA
HETATM   22  C   UNL     1      43.341 -18.821   3.867  1.00  0.00     0.074 A 
HETATM   23  C   UNL     1      42.877 -18.561   5.159  1.00  0.00     0.061 A 
HETATM   24  C   UNL     1      44.281 -19.840   3.695  1.00  0.00     0.032 A 
HETATM   25  C   UNL     1      41.883 -17.491   5.317  1.00  0.00     0.259 A 
HETATM   26  C   UNL     1      43.336 -19.285   6.264  1.00  0.00     0.019 A 
HETATM   27  O   UNL     1      41.442 -17.159   6.412  1.00  0.00    -0.267 OA
HETATM   28  N   UNL     1      41.486 -16.878   4.158  1.00  0.00    -0.307 N 
HETATM   29  H   UNL     1      40.838 -16.114   4.284  1.00  0.00     0.170 HD
HETATM   30  C   UNL     1      44.276 -20.297   6.076  1.00  0.00     0.001 A 
HETATM   31  C   UNL     1      44.746 -20.574   4.792  1.00  0.00     0.002 A 
ENDBRANCH   4  20
TORSDOF 5
ENDMDL
MODEL 10
REMARK VINA RESULT:      -7.9      2.482      2.952
REMARK  5 active torsions:
REMARK  status: ('A' for Active; 'I' for Inactive)
REMARK    1  A    between atoms: C_4  and  O_5 
REMARK    2  A    between atoms: O_5  and  C_6 
REMARK    3  A    between atoms: C_6  and  C_7 
REMARK       I    between atoms: C_7  and  N_8 
REMARK    4  A    between atoms: N_8  and  C_9 
REMARK    5  A    between atoms: C_12  and  C_13 
ROOT
HETATM    1  C   UNL     1      41.699 -13.001   5.919  1.00  0.00     0.034 A 
HETATM    2  C   UNL     1      40.699 -13.951   5.698  1.00  0.00     0.030 A 
HETATM    3  C   UNL     1      40.979 -15.146   5.027  1.00  0.00     0.017 A 
HETATM    4  C   UNL     1      42.273 -15.406   4.565  1.00  0.00     0.010 A 
HETATM    5  C   UNL     1      43.268 -14.439   4.733  1.00  0.00     0.017 A 
HETATM    6  C   UNL     1      42.983 -13.247   5.412  1.00  0.00     0.030 A 
ENDROOT
BRANCH   1   7
HETATM    7  N   UNL     1      41.496 -11.812   6.650  1.00  0.00    -0.325 N 
HETATM    8  C   UNL     1      41.346 -10.533   6.145  1.00  0.00     0.246 C 
HETATM    9  O   UNL     1      41.458 -10.197   4.967  1.00  0.00    -0.271 OA
HETATM   10  H   UNL     1      41.402 -11.892   7.658  1.00  0.00     0.169 HD
BRANCH   8  11
HETATM   11  C   UNL     1      41.039  -9.477   7.208  1.00  0.00     0.278 C 
BRANCH  11  12
HETATM   12  O   UNL     1      39.850  -9.744   7.943  1.00  0.00    -0.342 OA
BRANCH  12  13
HETATM   13  C   UNL     1      39.961  -9.642   9.307  1.00  0.00     0.069 A 
HETATM   14  C   UNL     1      38.925  -9.316  10.190  1.00  0.00     0.043 A 
HETATM   15  C   UNL     1      39.153  -9.256  11.574  1.00  0.00    -0.059 A 
HETATM   16  C   UNL     1      38.028  -8.956  12.521  1.00  0.00     0.048 C 
HETATM   17  C   UNL     1      40.431  -9.535  12.068  1.00  0.00     0.007 A 
HETATM   18  C   UNL     1      41.471  -9.846  11.193  1.00  0.00     0.003 A 
HETATM   19  C   UNL     1      41.236  -9.895   9.818  1.00  0.00     0.037 A 
ENDBRANCH  12  13
ENDBRANCH  11  12
ENDBRANCH   8  11
ENDBRANCH   1   7
BRANCH   4  20
HETATM   20  C   UNL     1      42.605 -16.703   3.923  1.00  0.00     0.141 A 
HETATM   21  N   UNL     1      43.400 -17.554   4.488  1.00  0.00    -0.230 NA
HETATM   22  C   UNL     1      43.663 -18.764   3.816  1.00  0.00     0.074 A 
HETATM   23  C   UNL     1      43.073 -19.091   2.593  1.00  0.00     0.061 A 
HETATM   24  C   UNL     1      44.551 -19.678   4.388  1.00  0.00     0.032 A 
HETATM   25  C   UNL     1      42.148 -18.112   2.006  1.00  0.00     0.259 A 
HETATM   26  C   UNL     1      43.343 -20.302   1.948  1.00  0.00     0.019 A 
HETATM   27  O   UNL     1      41.549 -18.320   0.957  1.00  0.00    -0.267 OA
HETATM   28  N   UNL     1      41.990 -16.950   2.714  1.00  0.00    -0.307 N 
HETATM   29  H   UNL     1      41.318 -16.305   2.325  1.00  0.00     0.170 HD
HETATM   30  C   UNL     1      44.229 -21.205   2.532  1.00  0.00     0.001 A 
HETATM   31  C   UNL     1      44.833 -20.892   3.750  1.00  0.00     0.002 A 
ENDBRANCH   4  20
TORSDOF 5
ENDMDL
