MODEL 1
REMARK VINA RESULT:      -8.5      0.000      0.000
REMARK  6 active torsions:
REMARK  status: ('A' for Active; 'I' for Inactive)
REMARK    1  A    between atoms: N_2  and  C_4 
REMARK    2  A    between atoms: N_2  and  C_16 
REMARK    3  A    between atoms: C_4  and  C_5 
REMARK       I    between atoms: C_5  and  N_6 
REMARK    4  A    between atoms: N_6  and  C_7 
REMARK    5  A    between atoms: C_16  and  C_17 
REMARK    6  A    between atoms: C_21  and  C_22 
ROOT
HETATM    1  C   UNL     1      44.531 -14.478   6.972  1.00  0.00     0.270 C 
HETATM    2  N   UNL     1      43.207 -15.165   6.841  1.00  0.00    -0.061 N 
HETATM    3  H   UNL     1      42.550 -14.633   7.441  1.00  0.00     0.280 HD
ENDROOT
BRANCH   2   4
HETATM    4  C   UNL     1      42.661 -15.176   5.420  1.00  0.00     0.337 C 
BRANCH   4   5
HETATM    5  C   UNL     1      41.158 -14.910   5.315  1.00  0.00     0.248 C 
HETATM    6  N   UNL     1      40.432 -15.219   4.206  1.00  0.00    -0.326 N 
HETATM    7  H   UNL     1      39.441 -15.049   4.370  1.00  0.00     0.169 HD
HETATM    8  O   UNL     1      40.551 -14.420   6.275  1.00  0.00    -0.271 OA
BRANCH   6   9
HETATM    9  C   UNL     1      40.752 -15.702   2.923  1.00  0.00     0.040 A 
HETATM   10  C   UNL     1      40.677 -17.030   2.508  1.00  0.00     0.072 A 
HETATM   11  C   UNL     1      41.030 -17.376   1.199  1.00  0.00     0.121 A 
HETATM   12  F   UNL     1      40.945 -18.660   0.830  1.00  0.00    -0.206 F 
HETATM   13  C   UNL     1      41.467 -16.431   0.287  1.00  0.00     0.084 A 
HETATM   14  C   UNL     1      41.557 -15.116   0.703  1.00  0.00     0.121 A 
HETATM   15  F   UNL     1      41.983 -14.178  -0.152  1.00  0.00    -0.206 F 
HETATM   16  C   UNL     1      41.211 -14.747   2.002  1.00  0.00     0.072 A 
ENDBRANCH   6   9
ENDBRANCH   4   5
ENDBRANCH   2   4
BRANCH   2  17
HETATM   17  C   UNL     1      43.200 -16.532   7.516  1.00  0.00     0.295 C 
BRANCH  17  18
HETATM   18  C   UNL     1      43.801 -17.556   6.601  1.00  0.00     0.082 A 
HETATM   19  N   UNL     1      45.126 -17.775   6.640  1.00  0.00    -0.177 NA
HETATM   20  N   UNL     1      45.315 -18.717   5.686  1.00  0.00    -0.277 N 
HETATM   21  H   UNL     1      46.258 -19.050   5.507  1.00  0.00     0.189 HD
HETATM   22  C   UNL     1      44.166 -19.087   5.031  1.00  0.00     0.062 A 
HETATM   23  C   UNL     1      43.164 -18.343   5.622  1.00  0.00     0.062 A 
BRANCH  22  24
HETATM   24  C   UNL     1      44.130 -20.046   3.926  1.00  0.00    -0.008 A 
HETATM   25  C   UNL     1      43.570 -19.714   2.685  1.00  0.00     0.014 A 
HETATM   26  C   UNL     1      43.535 -20.647   1.644  1.00  0.00     0.001 A 
HETATM   27  C   UNL     1      44.063 -21.922   1.830  1.00  0.00     0.000 A 
HETATM   28  C   UNL     1      44.630 -22.265   3.055  1.00  0.00     0.001 A 
HETATM   29  C   UNL     1      44.664 -21.333   4.095  1.00  0.00     0.014 A 
ENDBRANCH  22  24
ENDBRANCH  17  18
ENDBRANCH   2  17
TORSDOF 6
ENDMDL
MODEL 2
REMARK VINA RESULT:      -8.4      2.420      4.277
REMARK  6 active torsions:
REMARK  status: ('A' for Active; 'I' for Inactive)
REMARK    1  A    between atoms: N_2  and  C_4 
REMARK    2  A    between atoms: N_2  and  C_16 
REMARK    3  A    between atoms: C_4  and  C_5 
REMARK       I    between atoms: C_5  and  N_6 
REMARK    4  A    between atoms: N_6  and  C_7 
REMARK    5  A    between atoms: C_16  and  C_17 
REMARK    6  A    between atoms: C_21  and  C_22 
ROOT
HETATM    1  C   UNL     1      41.091 -12.874   1.242  1.00  0.00     0.270 C 
HETATM    2  N   UNL     1      41.052 -14.189   1.957  1.00  0.00    -0.061 N 
HETATM    3  H   UNL     1      41.918 -14.231   2.526  1.00  0.00     0.280 HD
ENDROOT
BRANCH   2   4
HETATM    4  C   UNL     1      39.857 -14.345   2.888  1.00  0.00     0.337 C 
BRANCH   4   5
HETATM    5  C   UNL     1      39.950 -13.536   4.182  1.00  0.00     0.248 C 
HETATM    6  N   UNL     1      40.765 -13.888   5.213  1.00  0.00    -0.326 N 
HETATM    7  H   UNL     1      40.750 -13.174   5.940  1.00  0.00     0.169 HD
HETATM    8  O   UNL     1      39.287 -12.499   4.309  1.00  0.00    -0.271 OA
BRANCH   6   9
HETATM    9  C   UNL     1      41.593 -14.996   5.480  1.00  0.00     0.040 A 
HETATM   10  C   UNL     1      41.249 -16.333   5.301  1.00  0.00     0.072 A 
HETATM   11  C   UNL     1      42.169 -17.341   5.610  1.00  0.00     0.121 A 
HETATM   12  F   UNL     1      41.810 -18.617   5.425  1.00  0.00    -0.206 F 
HETATM   13  C   UNL     1      43.429 -17.051   6.106  1.00  0.00     0.084 A 
HETATM   14  C   UNL     1      43.764 -15.724   6.299  1.00  0.00     0.121 A 
HETATM   15  F   UNL     1      44.971 -15.410   6.784  1.00  0.00    -0.206 F 
HETATM   16  C   UNL     1      42.864 -14.703   5.998  1.00  0.00     0.072 A 
ENDBRANCH   6   9
ENDBRANCH   4   5
ENDBRANCH   2   4
BRANCH   2  17
HETATM   17  C   UNL     1      41.252 -15.365   1.008  1.00  0.00     0.295 C 
BRANCH  17  18
HETATM   18  C   UNL     1      42.192 -16.360   1.619  1.00  0.00     0.082 A 
HETATM   19  N   UNL     1      43.334 -15.927   2.179  1.00  0.00    -0.177 NA
HETATM   20  N   UNL     1      43.932 -17.069   2.592  1.00  0.00    -0.277 N 
HETATM   21  H   UNL     1      44.839 -17.010   3.047  1.00  0.00     0.189 HD
HETATM   22  C   UNL     1      43.225 -18.209   2.296  1.00  0.00     0.062 A 
HETATM   23  C   UNL     1      42.079 -17.763   1.667  1.00  0.00     0.062 A 
BRANCH  22  24
HETATM   24  C   UNL     1      43.697 -19.561   2.594  1.00  0.00    -0.008 A 
HETATM   25  C   UNL     1      43.486 -20.624   1.704  1.00  0.00     0.014 A 
HETATM   26  C   UNL     1      43.935 -21.912   2.011  1.00  0.00     0.001 A 
HETATM   27  C   UNL     1      44.603 -22.154   3.208  1.00  0.00     0.000 A 
HETATM   28  C   UNL     1      44.827 -21.107   4.100  1.00  0.00     0.001 A 
HETATM   29  C   UNL     1      44.378 -19.821   3.794  1.00  0.00     0.014 A 
ENDBRANCH  22  24
ENDBRANCH  17  18
ENDBRANCH   2  17
TORSDOF 6
ENDMDL
MODEL 3
REMARK VINA RESULT:      -8.3      2.976      5.023
REMARK  6 active torsions:
REMARK  status: ('A' for Active; 'I' for Inactive)
REMARK    1  A    between atoms: N_2  and  C_4 
REMARK    2  A    between atoms: N_2  and  C_16 
REMARK    3  A    between atoms: C_4  and  C_5 
REMARK       I    between atoms: C_5  and  N_6 
REMARK    4  A    between atoms: N_6  and  C_7 
REMARK    5  A    between atoms: C_16  and  C_17 
REMARK    6  A    between atoms: C_21  and  C_22 
ROOT
HETATM    1  C   UNL     1      38.937 -13.133   1.721  1.00  0.00     0.270 C 
HETATM    2  N   UNL     1      40.071 -14.080   1.966  1.00  0.00    -0.061 N 
HETATM    3  H   UNL     1      40.644 -14.067   1.103  1.00  0.00     0.280 HD
ENDROOT
BRANCH   2   4
HETATM    4  C   UNL     1      40.956 -13.683   3.140  1.00  0.00     0.337 C 
BRANCH   4   5
HETATM    5  C   UNL     1      42.408 -13.377   2.765  1.00  0.00     0.248 C 
HETATM    6  N   UNL     1      43.466 -13.838   3.486  1.00  0.00    -0.326 N 
HETATM    7  H   UNL     1      44.342 -13.603   3.023  1.00  0.00     0.169 HD
HETATM    8  O   UNL     1      42.655 -12.710   1.753  1.00  0.00    -0.271 OA
BRANCH   6   9
HETATM    9  C   UNL     1      43.600 -14.541   4.698  1.00  0.00     0.040 A 
HETATM   10  C   UNL     1      43.149 -15.835   4.945  1.00  0.00     0.072 A 
HETATM   11  C   UNL     1      43.345 -16.418   6.202  1.00  0.00     0.121 A 
HETATM   12  F   UNL     1      42.902 -17.665   6.408  1.00  0.00    -0.206 F 
HETATM   13  C   UNL     1      43.975 -15.739   7.231  1.00  0.00     0.084 A 
HETATM   14  C   UNL     1      44.407 -14.449   6.991  1.00  0.00     0.121 A 
HETATM   15  F   UNL     1      45.014 -13.762   7.966  1.00  0.00    -0.206 F 
HETATM   16  C   UNL     1      44.224 -13.847   5.747  1.00  0.00     0.072 A 
ENDBRANCH   6   9
ENDBRANCH   4   5
ENDBRANCH   2   4
BRANCH   2  17
HETATM   17  C   UNL     1      39.608 -15.531   2.006  1.00  0.00     0.295 C 
BRANCH  17  18
HETATM   18  C   UNL     1      40.785 -16.447   1.858  1.00  0.00     0.082 A 
HETATM   19  N   UNL     1      41.571 -16.336   0.774  1.00  0.00    -0.177 NA
HETATM   20  N   UNL     1      42.492 -17.312   0.954  1.00  0.00    -0.277 N 
HETATM   21  H   UNL     1      43.208 -17.446   0.246  1.00  0.00     0.189 HD
HETATM   22  C   UNL     1      42.307 -18.050   2.097  1.00  0.00     0.062 A 
HETATM   23  C   UNL     1      41.199 -17.492   2.706  1.00  0.00     0.062 A 
BRANCH  22  24
HETATM   24  C   UNL     1      43.142 -19.191   2.475  1.00  0.00    -0.008 A 
HETATM   25  C   UNL     1      43.130 -20.383   1.738  1.00  0.00     0.014 A 
HETATM   26  C   UNL     1      43.927 -21.467   2.121  1.00  0.00     0.001 A 
HETATM   27  C   UNL     1      44.747 -21.371   3.242  1.00  0.00     0.000 A 
HETATM   28  C   UNL     1      44.775 -20.191   3.981  1.00  0.00     0.001 A 
HETATM   29  C   UNL     1      43.978 -19.108   3.599  1.00  0.00     0.014 A 
ENDBRANCH  22  24
ENDBRANCH  17  18
ENDBRANCH   2  17
TORSDOF 6
ENDMDL
MODEL 4
REMARK VINA RESULT:      -8.3      2.662      4.813
REMARK  6 active torsions:
REMARK  status: ('A' for Active; 'I' for Inactive)
REMARK    1  A    between atoms: N_2  and  C_4 
REMARK    2  A    between atoms: N_2  and  C_16 
REMARK    3  A    between atoms: C_4  and  C_5 
REMARK       I    between atoms: C_5  and  N_6 
REMARK    4  A    between atoms: N_6  and  C_7 
REMARK    5  A    between atoms: C_16  and  C_17 
REMARK    6  A    between atoms: C_21  and  C_22 
ROOT
HETATM    1  C   UNL     1      41.343 -14.437  -0.906  1.00  0.00     0.270 C 
HETATM    2  N   UNL     1      41.739 -15.112   0.370  1.00  0.00    -0.061 N 
HETATM    3  H   UNL     1      42.773 -15.177   0.350  1.00  0.00     0.280 HD
ENDROOT
BRANCH   2   4
HETATM    4  C   UNL     1      41.329 -14.346   1.621  1.00  0.00     0.337 C 
BRANCH   4   5
HETATM    5  C   UNL     1      40.109 -14.919   2.345  1.00  0.00     0.248 C 
HETATM    6  N   UNL     1      40.186 -15.486   3.580  1.00  0.00    -0.326 N 
HETATM    7  H   UNL     1      39.255 -15.720   3.923  1.00  0.00     0.169 HD
HETATM    8  O   UNL     1      38.992 -14.849   1.818  1.00  0.00    -0.271 OA
BRANCH   6   9
HETATM    9  C   UNL     1      41.244 -15.811   4.450  1.00  0.00     0.040 A 
HETATM   10  C   UNL     1      42.177 -14.917   4.970  1.00  0.00     0.072 A 
HETATM   11  C   UNL     1      43.185 -15.376   5.826  1.00  0.00     0.121 A 
HETATM   12  F   UNL     1      44.065 -14.492   6.311  1.00  0.00    -0.206 F 
HETATM   13  C   UNL     1      43.295 -16.711   6.174  1.00  0.00     0.084 A 
HETATM   14  C   UNL     1      42.379 -17.600   5.644  1.00  0.00     0.121 A 
HETATM   15  F   UNL     1      42.462 -18.900   5.955  1.00  0.00    -0.206 F 
HETATM   16  C   UNL     1      41.366 -17.167   4.790  1.00  0.00     0.072 A 
ENDBRANCH   6   9
ENDBRANCH   4   5
ENDBRANCH   2   4
BRANCH   2  17
HETATM   17  C   UNL     1      41.339 -16.583   0.389  1.00  0.00     0.295 C 
BRANCH  17  18
HETATM   18  C   UNL     1      42.402 -17.393   1.068  1.00  0.00     0.082 A 
HETATM   19  N   UNL     1      43.676 -16.965   1.035  1.00  0.00    -0.177 NA
HETATM   20  N   UNL     1      44.347 -17.929   1.706  1.00  0.00    -0.277 N 
HETATM   21  H   UNL     1      45.354 -17.844   1.810  1.00  0.00     0.189 HD
HETATM   22  C   UNL     1      43.553 -18.961   2.144  1.00  0.00     0.062 A 
HETATM   23  C   UNL     1      42.276 -18.622   1.743  1.00  0.00     0.062 A 
BRANCH  22  24
HETATM   24  C   UNL     1      44.063 -20.142   2.842  1.00  0.00    -0.008 A 
HETATM   25  C   UNL     1      44.603 -20.054   4.133  1.00  0.00     0.014 A 
HETATM   26  C   UNL     1      45.095 -21.191   4.780  1.00  0.00     0.001 A 
HETATM   27  C   UNL     1      45.049 -22.431   4.148  1.00  0.00     0.000 A 
HETATM   28  C   UNL     1      44.510 -22.537   2.868  1.00  0.00     0.001 A 
HETATM   29  C   UNL     1      44.019 -21.400   2.221  1.00  0.00     0.014 A 
ENDBRANCH  22  24
ENDBRANCH  17  18
ENDBRANCH   2  17
TORSDOF 6
ENDMDL
MODEL 5
REMARK VINA RESULT:      -8.2      2.397      4.478
REMARK  6 active torsions:
REMARK  status: ('A' for Active; 'I' for Inactive)
REMARK    1  A    between atoms: N_2  and  C_4 
REMARK    2  A    between atoms: N_2  and  C_16 
REMARK    3  A    between atoms: C_4  and  C_5 
REMARK       I    between atoms: C_5  and  N_6 
REMARK    4  A    between atoms: N_6  and  C_7 
REMARK    5  A    between atoms: C_16  and  C_17 
REMARK    6  A    between atoms: C_21  and  C_22 
ROOT
HETATM    1  C   UNL     1      40.935 -12.921   1.781  1.00  0.00     0.270 C 
HETATM    2  N   UNL     1      40.928 -14.280   2.408  1.00  0.00    -0.061 N 
HETATM    3  H   UNL     1      41.816 -14.355   2.937  1.00  0.00     0.280 HD
ENDROOT
BRANCH   2   4
HETATM    4  C   UNL     1      39.772 -14.503   3.374  1.00  0.00     0.337 C 
BRANCH   4   5
HETATM    5  C   UNL     1      39.870 -13.707   4.676  1.00  0.00     0.248 C 
HETATM    6  N   UNL     1      40.786 -13.987   5.642  1.00  0.00    -0.326 N 
HETATM    7  H   UNL     1      40.748 -13.289   6.384  1.00  0.00     0.169 HD
HETATM    8  O   UNL     1      39.114 -12.747   4.870  1.00  0.00    -0.271 OA
BRANCH   6   9
HETATM    9  C   UNL     1      41.740 -15.006   5.829  1.00  0.00     0.040 A 
HETATM   10  C   UNL     1      43.063 -14.823   6.222  1.00  0.00     0.072 A 
HETATM   11  C   UNL     1      43.910 -15.927   6.368  1.00  0.00     0.121 A 
HETATM   12  F   UNL     1      45.177 -15.719   6.750  1.00  0.00    -0.206 F 
HETATM   13  C   UNL     1      43.475 -17.218   6.121  1.00  0.00     0.084 A 
HETATM   14  C   UNL     1      42.167 -17.398   5.715  1.00  0.00     0.121 A 
HETATM   15  F   UNL     1      41.715 -18.632   5.461  1.00  0.00    -0.206 F 
HETATM   16  C   UNL     1      41.304 -16.313   5.563  1.00  0.00     0.072 A 
ENDBRANCH   6   9
ENDBRANCH   4   5
ENDBRANCH   2   4
BRANCH   2  17
HETATM   17  C   UNL     1      41.092 -15.390   1.376  1.00  0.00     0.295 C 
BRANCH  17  18
HETATM   18  C   UNL     1      42.098 -16.391   1.858  1.00  0.00     0.082 A 
HETATM   19  N   UNL     1      43.324 -15.972   2.212  1.00  0.00    -0.177 NA
HETATM   20  N   UNL     1      43.957 -17.117   2.559  1.00  0.00    -0.277 N 
HETATM   21  H   UNL     1      44.927 -17.069   2.858  1.00  0.00     0.189 HD
HETATM   22  C   UNL     1      43.188 -18.246   2.418  1.00  0.00     0.062 A 
HETATM   23  C   UNL     1      41.964 -17.789   1.968  1.00  0.00     0.062 A 
BRANCH  22  24
HETATM   24  C   UNL     1      43.673 -19.602   2.678  1.00  0.00    -0.008 A 
HETATM   25  C   UNL     1      44.334 -19.928   3.871  1.00  0.00     0.014 A 
HETATM   26  C   UNL     1      44.801 -21.226   4.097  1.00  0.00     0.001 A 
HETATM   27  C   UNL     1      44.610 -22.216   3.136  1.00  0.00     0.000 A 
HETATM   28  C   UNL     1      43.950 -21.910   1.948  1.00  0.00     0.001 A 
HETATM   29  C   UNL     1      43.484 -20.612   1.722  1.00  0.00     0.014 A 
ENDBRANCH  22  24
ENDBRANCH  17  18
ENDBRANCH   2  17
TORSDOF 6
ENDMDL
MODEL 6
REMARK VINA RESULT:      -8.1      1.026      2.257
REMARK  6 active torsions:
REMARK  status: ('A' for Active; 'I' for Inactive)
REMARK    1  A    between atoms: N_2  and  C_4 
REMARK    2  A    between atoms: N_2  and  C_16 
REMARK    3  A    between atoms: C_4  and  C_5 
REMARK       I    between atoms: C_5  and  N_6 
REMARK    4  A    between atoms: N_6  and  C_7 
REMARK    5  A    between atoms: C_16  and  C_17 
REMARK    6  A    between atoms: C_21  and  C_22 
ROOT
HETATM    1  C   UNL     1      40.827 -16.075   6.339  1.00  0.00     0.270 C 
HETATM    2  N   UNL     1      41.858 -15.395   5.492  1.00  0.00    -0.061 N 
HETATM    3  H   UNL     1      41.899 -15.932   4.607  1.00  0.00     0.280 HD
ENDROOT
BRANCH   2   4
HETATM    4  C   UNL     1      41.522 -13.947   5.163  1.00  0.00     0.337 C 
BRANCH   4   5
HETATM    5  C   UNL     1      40.107 -13.729   4.626  1.00  0.00     0.248 C 
HETATM    6  N   UNL     1      39.711 -14.164   3.398  1.00  0.00    -0.326 N 
HETATM    7  H   UNL     1      38.714 -14.003   3.267  1.00  0.00     0.169 HD
HETATM    8  O   UNL     1      39.262 -13.163   5.329  1.00  0.00    -0.271 OA
BRANCH   6   9
HETATM    9  C   UNL     1      40.369 -14.763   2.306  1.00  0.00     0.040 A 
HETATM   10  C   UNL     1      40.929 -14.091   1.223  1.00  0.00     0.072 A 
HETATM   11  C   UNL     1      41.553 -14.812   0.198  1.00  0.00     0.121 A 
HETATM   12  F   UNL     1      42.085 -14.138  -0.829  1.00  0.00    -0.206 F 
HETATM   13  C   UNL     1      41.627 -16.194   0.219  1.00  0.00     0.084 A 
HETATM   14  C   UNL     1      41.056 -16.861   1.286  1.00  0.00     0.121 A 
HETATM   15  F   UNL     1      41.103 -18.198   1.334  1.00  0.00    -0.206 F 
HETATM   16  C   UNL     1      40.429 -16.165   2.319  1.00  0.00     0.072 A 
ENDBRANCH   6   9
ENDBRANCH   4   5
ENDBRANCH   2   4
BRANCH   2  17
HETATM   17  C   UNL     1      43.268 -15.594   6.036  1.00  0.00     0.295 C 
BRANCH  17  18
HETATM   18  C   UNL     1      43.775 -16.952   5.657  1.00  0.00     0.082 A 
HETATM   19  N   UNL     1      44.785 -17.496   6.358  1.00  0.00    -0.177 NA
HETATM   20  N   UNL     1      44.994 -18.680   5.738  1.00  0.00    -0.277 N 
HETATM   21  H   UNL     1      45.733 -19.288   6.078  1.00  0.00     0.189 HD
HETATM   22  C   UNL     1      44.172 -18.899   4.659  1.00  0.00     0.062 A 
HETATM   23  C   UNL     1      43.362 -17.782   4.597  1.00  0.00     0.062 A 
BRANCH  22  24
HETATM   24  C   UNL     1      44.251 -20.081   3.800  1.00  0.00    -0.008 A 
HETATM   25  C   UNL     1      44.735 -21.305   4.281  1.00  0.00     0.014 A 
HETATM   26  C   UNL     1      44.813 -22.422   3.443  1.00  0.00     0.001 A 
HETATM   27  C   UNL     1      44.404 -22.329   2.115  1.00  0.00     0.000 A 
HETATM   28  C   UNL     1      43.914 -21.122   1.624  1.00  0.00     0.001 A 
HETATM   29  C   UNL     1      43.837 -20.006   2.461  1.00  0.00     0.014 A 
ENDBRANCH  22  24
ENDBRANCH  17  18
ENDBRANCH   2  17
TORSDOF 6
ENDMDL
MODEL 7
REMARK VINA RESULT:      -8.0      1.793      2.147
REMARK  6 active torsions:
REMARK  status: ('A' for Active; 'I' for Inactive)
REMARK    1  A    between atoms: N_2  and  C_4 
REMARK    2  A    between atoms: N_2  and  C_16 
REMARK    3  A    between atoms: C_4  and  C_5 
REMARK       I    between atoms: C_5  and  N_6 
REMARK    4  A    between atoms: N_6  and  C_7 
REMARK    5  A    between atoms: C_16  and  C_17 
REMARK    6  A    between atoms: C_21  and  C_22 
ROOT
HETATM    1  C   UNL     1      40.687 -15.565   5.938  1.00  0.00     0.270 C 
HETATM    2  N   UNL     1      41.484 -14.851   4.890  1.00  0.00    -0.061 N 
HETATM    3  H   UNL     1      41.280 -15.336   3.997  1.00  0.00     0.280 HD
ENDROOT
BRANCH   2   4
HETATM    4  C   UNL     1      41.115 -13.382   4.736  1.00  0.00     0.337 C 
BRANCH   4   5
HETATM    5  C   UNL     1      39.765 -13.133   4.061  1.00  0.00     0.248 C 
HETATM    6  N   UNL     1      39.400 -13.744   2.901  1.00  0.00    -0.326 N 
HETATM    7  H   UNL     1      38.434 -13.516   2.667  1.00  0.00     0.169 HD
HETATM    8  O   UNL     1      38.946 -12.370   4.586  1.00  0.00    -0.271 OA
BRANCH   6   9
HETATM    9  C   UNL     1      40.053 -14.592   1.986  1.00  0.00     0.040 A 
HETATM   10  C   UNL     1      40.056 -15.984   2.022  1.00  0.00     0.072 A 
HETATM   11  C   UNL     1      40.752 -16.708   1.048  1.00  0.00     0.121 A 
HETATM   12  F   UNL     1      40.734 -18.045   1.107  1.00  0.00    -0.206 F 
HETATM   13  C   UNL     1      41.458 -16.079   0.036  1.00  0.00     0.084 A 
HETATM   14  C   UNL     1      41.469 -14.698   0.011  1.00  0.00     0.121 A 
HETATM   15  F   UNL     1      42.147 -14.058  -0.949  1.00  0.00    -0.206 F 
HETATM   16  C   UNL     1      40.783 -13.954   0.970  1.00  0.00     0.072 A 
ENDBRANCH   6   9
ENDBRANCH   4   5
ENDBRANCH   2   4
BRANCH   2  17
HETATM   17  C   UNL     1      42.980 -15.100   5.040  1.00  0.00     0.295 C 
BRANCH  17  18
HETATM   18  C   UNL     1      43.381 -16.303   4.240  1.00  0.00     0.082 A 
HETATM   19  N   UNL     1      43.588 -16.174   2.918  1.00  0.00    -0.177 NA
HETATM   20  N   UNL     1      43.899 -17.431   2.526  1.00  0.00    -0.277 N 
HETATM   21  H   UNL     1      44.090 -17.605   1.544  1.00  0.00     0.189 HD
HETATM   22  C   UNL     1      43.875 -18.355   3.543  1.00  0.00     0.062 A 
HETATM   23  C   UNL     1      43.546 -17.632   4.673  1.00  0.00     0.062 A 
BRANCH  22  24
HETATM   24  C   UNL     1      44.122 -19.785   3.351  1.00  0.00    -0.008 A 
HETATM   25  C   UNL     1      43.937 -20.400   2.105  1.00  0.00     0.014 A 
HETATM   26  C   UNL     1      44.167 -21.769   1.944  1.00  0.00     0.001 A 
HETATM   27  C   UNL     1      44.589 -22.540   3.024  1.00  0.00     0.000 A 
HETATM   28  C   UNL     1      44.783 -21.943   4.267  1.00  0.00     0.001 A 
HETATM   29  C   UNL     1      44.553 -20.575   4.428  1.00  0.00     0.014 A 
ENDBRANCH  22  24
ENDBRANCH  17  18
ENDBRANCH   2  17
TORSDOF 6
ENDMDL
MODEL 8
REMARK VINA RESULT:      -7.8      1.610      2.497
REMARK  6 active torsions:
REMARK  status: ('A' for Active; 'I' for Inactive)
REMARK    1  A    between atoms: N_2  and  C_4 
REMARK    2  A    between atoms: N_2  and  C_16 
REMARK    3  A    between atoms: C_4  and  C_5 
REMARK       I    between atoms: C_5  and  N_6 
REMARK    4  A    between atoms: N_6  and  C_7 
REMARK    5  A    between atoms: C_16  and  C_17 
REMARK    6  A    between atoms: C_21  and  C_22 
ROOT
HETATM    1  C   UNL     1      40.053 -14.883   5.380  1.00  0.00     0.270 C 
HETATM    2  N   UNL     1      41.534 -15.096   5.445  1.00  0.00    -0.061 N 
HETATM    3  H   UNL     1      41.791 -15.584   4.568  1.00  0.00     0.280 HD
ENDROOT
BRANCH   2   4
HETATM    4  C   UNL     1      42.335 -13.804   5.530  1.00  0.00     0.337 C 
BRANCH   4   5
HETATM    5  C   UNL     1      43.711 -13.865   4.864  1.00  0.00     0.248 C 
HETATM    6  N   UNL     1      43.875 -14.113   3.536  1.00  0.00    -0.326 N 
HETATM    7  H   UNL     1      44.856 -14.021   3.275  1.00  0.00     0.169 HD
HETATM    8  O   UNL     1      44.729 -13.656   5.535  1.00  0.00    -0.271 OA
BRANCH   6   9
HETATM    9  C   UNL     1      43.006 -14.463   2.485  1.00  0.00     0.040 A 
HETATM   10  C   UNL     1      42.194 -13.586   1.771  1.00  0.00     0.072 A 
HETATM   11  C   UNL     1      41.371 -14.068   0.747  1.00  0.00     0.121 A 
HETATM   12  F   UNL     1      40.604 -13.200   0.077  1.00  0.00    -0.206 F 
HETATM   13  C   UNL     1      41.328 -15.412   0.418  1.00  0.00     0.084 A 
HETATM   14  C   UNL     1      42.121 -16.285   1.139  1.00  0.00     0.121 A 
HETATM   15  F   UNL     1      42.098 -17.592   0.851  1.00  0.00    -0.206 F 
HETATM   16  C   UNL     1      42.949 -15.828   2.163  1.00  0.00     0.072 A 
ENDBRANCH   6   9
ENDBRANCH   4   5
ENDBRANCH   2   4
BRANCH   2  17
HETATM   17  C   UNL     1      41.919 -16.131   6.496  1.00  0.00     0.295 C 
BRANCH  17  18
HETATM   18  C   UNL     1      42.806 -17.174   5.884  1.00  0.00     0.082 A 
HETATM   19  N   UNL     1      44.128 -17.134   6.121  1.00  0.00    -0.177 NA
HETATM   20  N   UNL     1      44.605 -18.181   5.408  1.00  0.00    -0.277 N 
HETATM   21  H   UNL     1      45.604 -18.361   5.411  1.00  0.00     0.189 HD
HETATM   22  C   UNL     1      43.641 -18.868   4.712  1.00  0.00     0.062 A 
HETATM   23  C   UNL     1      42.456 -18.228   5.019  1.00  0.00     0.062 A 
BRANCH  22  24
HETATM   24  C   UNL     1      43.924 -20.000   3.828  1.00  0.00    -0.008 A 
HETATM   25  C   UNL     1      43.628 -19.953   2.459  1.00  0.00     0.014 A 
HETATM   26  C   UNL     1      43.896 -21.049   1.633  1.00  0.00     0.001 A 
HETATM   27  C   UNL     1      44.466 -22.203   2.164  1.00  0.00     0.000 A 
HETATM   28  C   UNL     1      44.773 -22.263   3.521  1.00  0.00     0.001 A 
HETATM   29  C   UNL     1      44.504 -21.168   4.346  1.00  0.00     0.014 A 
ENDBRANCH  22  24
ENDBRANCH  17  18
ENDBRANCH   2  17
TORSDOF 6
ENDMDL
MODEL 9
REMARK VINA RESULT:      -7.8      2.386      6.122
REMARK  6 active torsions:
REMARK  status: ('A' for Active; 'I' for Inactive)
REMARK    1  A    between atoms: N_2  and  C_4 
REMARK    2  A    between atoms: N_2  and  C_16 
REMARK    3  A    between atoms: C_4  and  C_5 
REMARK       I    between atoms: C_5  and  N_6 
REMARK    4  A    between atoms: N_6  and  C_7 
REMARK    5  A    between atoms: C_16  and  C_17 
REMARK    6  A    between atoms: C_21  and  C_22 
ROOT
HETATM    1  C   UNL     1      42.901 -14.515   5.322  1.00  0.00     0.270 C 
HETATM    2  N   UNL     1      42.159 -15.741   4.887  1.00  0.00    -0.061 N 
HETATM    3  H   UNL     1      42.642 -16.081   4.035  1.00  0.00     0.280 HD
ENDROOT
BRANCH   2   4
HETATM    4  C   UNL     1      42.162 -16.858   5.921  1.00  0.00     0.337 C 
BRANCH   4   5
HETATM    5  C   UNL     1      43.555 -17.342   6.328  1.00  0.00     0.248 C 
HETATM    6  N   UNL     1      44.363 -18.048   5.490  1.00  0.00    -0.326 N 
HETATM    7  H   UNL     1      45.277 -18.194   5.916  1.00  0.00     0.169 HD
HETATM    8  O   UNL     1      43.998 -17.069   7.451  1.00  0.00    -0.271 OA
BRANCH   6   9
HETATM    9  C   UNL     1      44.205 -18.603   4.206  1.00  0.00     0.040 A 
HETATM   10  C   UNL     1      43.902 -17.899   3.044  1.00  0.00     0.072 A 
HETATM   11  C   UNL     1      43.769 -18.577   1.828  1.00  0.00     0.121 A 
HETATM   12  F   UNL     1      43.481 -17.872   0.727  1.00  0.00    -0.206 F 
HETATM   13  C   UNL     1      43.920 -19.951   1.738  1.00  0.00     0.084 A 
HETATM   14  C   UNL     1      44.204 -20.651   2.895  1.00  0.00     0.121 A 
HETATM   15  F   UNL     1      44.350 -21.981   2.845  1.00  0.00    -0.206 F 
HETATM   16  C   UNL     1      44.342 -19.997   4.118  1.00  0.00     0.072 A 
ENDBRANCH   6   9
ENDBRANCH   4   5
ENDBRANCH   2   4
BRANCH   2  17
HETATM   17  C   UNL     1      40.774 -15.410   4.341  1.00  0.00     0.295 C 
BRANCH  17  18
HETATM   18  C   UNL     1      40.761 -15.568   2.851  1.00  0.00     0.082 A 
HETATM   19  N   UNL     1      40.419 -16.754   2.319  1.00  0.00    -0.177 NA
HETATM   20  N   UNL     1      40.541 -16.546   0.987  1.00  0.00    -0.277 N 
HETATM   21  H   UNL     1      40.347 -17.314   0.351  1.00  0.00     0.189 HD
HETATM   22  C   UNL     1      40.967 -15.282   0.656  1.00  0.00     0.062 A 
HETATM   23  C   UNL     1      41.107 -14.626   1.863  1.00  0.00     0.062 A 
BRANCH  22  24
HETATM   24  C   UNL     1      41.225 -14.842  -0.716  1.00  0.00    -0.008 A 
HETATM   25  C   UNL     1      41.827 -13.606  -0.988  1.00  0.00     0.014 A 
HETATM   26  C   UNL     1      42.055 -13.198  -2.306  1.00  0.00     0.001 A 
HETATM   27  C   UNL     1      41.688 -14.022  -3.367  1.00  0.00     0.000 A 
HETATM   28  C   UNL     1      41.095 -15.256  -3.113  1.00  0.00     0.001 A 
HETATM   29  C   UNL     1      40.866 -15.663  -1.797  1.00  0.00     0.014 A 
ENDBRANCH  22  24
ENDBRANCH  17  18
ENDBRANCH   2  17
TORSDOF 6
ENDMDL
MODEL 10
REMARK VINA RESULT:      -7.8      3.255      4.451
REMARK  6 active torsions:
REMARK  status: ('A' for Active; 'I' for Inactive)
REMARK    1  A    between atoms: N_2  and  C_4 
REMARK    2  A    between atoms: N_2  and  C_16 
REMARK    3  A    between atoms: C_4  and  C_5 
REMARK       I    between atoms: C_5  and  N_6 
REMARK    4  A    between atoms: N_6  and  C_7 
REMARK    5  A    between atoms: C_16  and  C_17 
REMARK    6  A    between atoms: C_21  and  C_22 
ROOT
HETATM    1  C   UNL     1      39.296 -15.490   1.874  1.00  0.00     0.270 C 
HETATM    2  N   UNL     1      40.637 -14.827   1.806  1.00  0.00    -0.061 N 
HETATM    3  H   UNL     1      41.174 -15.343   1.086  1.00  0.00     0.280 HD
ENDROOT
BRANCH   2   4
HETATM    4  C   UNL     1      40.575 -13.360   1.401  1.00  0.00     0.337 C 
BRANCH   4   5
HETATM    5  C   UNL     1      41.721 -12.902   0.498  1.00  0.00     0.248 C 
HETATM    6  N   UNL     1      41.711 -13.080  -0.851  1.00  0.00    -0.326 N 
HETATM    7  H   UNL     1      42.517 -12.626  -1.277  1.00  0.00     0.169 HD
HETATM    8  O   UNL     1      42.695 -12.317   0.988  1.00  0.00    -0.271 OA
BRANCH   6   9
HETATM    9  C   UNL     1      40.853 -13.742  -1.751  1.00  0.00     0.040 A 
HETATM   10  C   UNL     1      40.925 -15.086  -2.108  1.00  0.00     0.072 A 
HETATM   11  C   UNL     1      40.008 -15.619  -3.021  1.00  0.00     0.121 A 
HETATM   12  F   UNL     1      40.102 -16.915  -3.343  1.00  0.00    -0.206 F 
HETATM   13  C   UNL     1      39.018 -14.842  -3.599  1.00  0.00     0.084 A 
HETATM   14  C   UNL     1      38.958 -13.505  -3.256  1.00  0.00     0.121 A 
HETATM   15  F   UNL     1      38.017 -12.723  -3.802  1.00  0.00    -0.206 F 
HETATM   16  C   UNL     1      39.860 -12.951  -2.349  1.00  0.00     0.072 A 
ENDBRANCH   6   9
ENDBRANCH   4   5
ENDBRANCH   2   4
BRANCH   2  17
HETATM   17  C   UNL     1      41.470 -15.087   3.056  1.00  0.00     0.295 C 
BRANCH  17  18
HETATM   18  C   UNL     1      42.400 -16.239   2.819  1.00  0.00     0.082 A 
HETATM   19  N   UNL     1      43.456 -16.074   2.006  1.00  0.00    -0.177 NA
HETATM   20  N   UNL     1      44.042 -17.294   2.004  1.00  0.00    -0.277 N 
HETATM   21  H   UNL     1      44.874 -17.437   1.439  1.00  0.00     0.189 HD
HETATM   22  C   UNL     1      43.387 -18.230   2.766  1.00  0.00     0.062 A 
HETATM   23  C   UNL     1      42.314 -17.554   3.315  1.00  0.00     0.062 A 
BRANCH  22  24
HETATM   24  C   UNL     1      43.801 -19.629   2.873  1.00  0.00    -0.008 A 
HETATM   25  C   UNL     1      43.571 -20.543   1.834  1.00  0.00     0.014 A 
HETATM   26  C   UNL     1      43.964 -21.879   1.959  1.00  0.00     0.001 A 
HETATM   27  C   UNL     1      44.595 -22.318   3.120  1.00  0.00     0.000 A 
HETATM   28  C   UNL     1      44.837 -21.421   4.158  1.00  0.00     0.001 A 
HETATM   29  C   UNL     1      44.443 -20.086   4.034  1.00  0.00     0.014 A 
ENDBRANCH  22  24
ENDBRANCH  17  18
ENDBRANCH   2  17
TORSDOF 6
ENDMDL
