MODEL 1
REMARK VINA RESULT:      -8.7      0.000      0.000
REMARK  7 active torsions:
REMARK  status: ('A' for Active; 'I' for Inactive)
REMARK    1  A    between atoms: C_2  and  C_3 
REMARK    2  A    between atoms: C_3  and  C_4 
REMARK    3  A    between atoms: C_8  and  C_9 
REMARK       I    between atoms: C_9  and  N_10 
REMARK    4  A    between atoms: N_10  and  C_11 
REMARK    5  A    between atoms: C_11  and  C_12 
REMARK    6  A    between atoms: C_12  and  N_13 
REMARK    7  A    between atoms: C_16  and  C_17 
ROOT
HETATM    1  C   UNL     1      44.744 -14.133   6.506  1.00  0.00     0.150 C 
ENDROOT
BRANCH   1   2
HETATM    2  N   UNL     1      44.378 -13.587   7.804  1.00  0.00    -0.354 N 
HETATM    3  C   UNL     1      45.193 -12.655   8.430  1.00  0.00     0.272 C 
HETATM    4  O   UNL     1      46.399 -12.595   8.215  1.00  0.00    -0.266 OA
HETATM    5  H   UNL     1      43.391 -13.391   7.986  1.00  0.00     0.162 HD
BRANCH   3   6
HETATM    6  C   UNL     1      44.466 -11.766   9.343  1.00  0.00     0.146 A 
HETATM    7  N   UNL     1      43.462 -10.984   8.897  1.00  0.00    -0.169 NA
HETATM    8  N   UNL     1      43.077 -10.295   9.989  1.00  0.00    -0.282 N 
HETATM    9  C   UNL     1      43.813 -10.583  11.106  1.00  0.00     0.030 A 
HETATM   10  H   UNL     1      42.319  -9.625   9.901  1.00  0.00     0.189 HD
HETATM   11  C   UNL     1      44.707 -11.558  10.722  1.00  0.00     0.065 A 
BRANCH   9  12
HETATM   12  C   UNL     1      43.599  -9.887  12.406  1.00  0.00     0.058 C 
BRANCH  12  13
HETATM   13  C   UNL     1      42.701 -10.709  13.332  1.00  0.00     0.002 C 
HETATM   14  C   UNL     1      42.409  -9.971  14.630  1.00  0.00     0.005 C 
ENDBRANCH  12  13
ENDBRANCH   9  12
ENDBRANCH   3   6
ENDBRANCH   1   2
BRANCH   1  15
HETATM   15  C   UNL     1      43.562 -14.697   5.698  1.00  0.00     0.254 C 
BRANCH  15  16
HETATM   16  N   UNL     1      42.520 -15.278   6.640  1.00  0.00    -0.069 N 
HETATM   17  H   UNL     1      42.549 -14.664   7.469  1.00  0.00     0.280 HD
HETATM   18  C   UNL     1      42.842 -16.689   7.093  1.00  0.00     0.244 C 
HETATM   19  C   UNL     1      41.913 -17.593   6.271  1.00  0.00     0.046 C 
HETATM   20  C   UNL     1      40.642 -16.738   6.253  1.00  0.00     0.039 C 
HETATM   21  C   UNL     1      41.118 -15.303   6.083  1.00  0.00     0.235 C 
BRANCH  19  22
HETATM   22  C   UNL     1      42.538 -17.995   4.938  1.00  0.00    -0.046 A 
HETATM   23  C   UNL     1      43.595 -18.941   4.891  1.00  0.00    -0.055 A 
HETATM   24  C   UNL     1      44.129 -19.659   6.106  1.00  0.00     0.049 C 
HETATM   25  C   UNL     1      44.219 -19.229   3.663  1.00  0.00     0.007 A 
HETATM   26  C   UNL     1      43.784 -18.643   2.480  1.00  0.00     0.001 A 
HETATM   27  C   UNL     1      42.708 -17.768   2.504  1.00  0.00     0.001 A 
HETATM   28  C   UNL     1      42.089 -17.454   3.717  1.00  0.00     0.008 A 
ENDBRANCH  19  22
ENDBRANCH  15  16
ENDBRANCH   1  15
TORSDOF 7
ENDMDL
MODEL 2
REMARK VINA RESULT:      -8.6      0.665      1.537
REMARK  7 active torsions:
REMARK  status: ('A' for Active; 'I' for Inactive)
REMARK    1  A    between atoms: C_2  and  C_3 
REMARK    2  A    between atoms: C_3  and  C_4 
REMARK    3  A    between atoms: C_8  and  C_9 
REMARK       I    between atoms: C_9  and  N_10 
REMARK    4  A    between atoms: N_10  and  C_11 
REMARK    5  A    between atoms: C_11  and  C_12 
REMARK    6  A    between atoms: C_12  and  N_13 
REMARK    7  A    between atoms: C_16  and  C_17 
ROOT
HETATM    1  C   UNL     1      44.729 -14.280   6.774  1.00  0.00     0.150 C 
ENDROOT
BRANCH   1   2
HETATM    2  N   UNL     1      44.437 -13.662   8.058  1.00  0.00    -0.354 N 
HETATM    3  C   UNL     1      45.209 -12.606   8.522  1.00  0.00     0.272 C 
HETATM    4  O   UNL     1      46.376 -12.452   8.177  1.00  0.00    -0.266 OA
HETATM    5  H   UNL     1      43.457 -13.545   8.328  1.00  0.00     0.162 HD
BRANCH   3   6
HETATM    6  C   UNL     1      44.488 -11.715   9.436  1.00  0.00     0.146 A 
HETATM    7  N   UNL     1      43.508 -10.905   8.987  1.00  0.00    -0.169 NA
HETATM    8  N   UNL     1      43.121 -10.223  10.083  1.00  0.00    -0.282 N 
HETATM    9  C   UNL     1      43.833 -10.543  11.206  1.00  0.00     0.030 A 
HETATM   10  H   UNL     1      42.379  -9.535   9.992  1.00  0.00     0.189 HD
HETATM   11  C   UNL     1      44.711 -11.532  10.822  1.00  0.00     0.065 A 
BRANCH   9  12
HETATM   12  C   UNL     1      43.614  -9.861  12.513  1.00  0.00     0.058 C 
BRANCH  12  13
HETATM   13  C   UNL     1      42.642 -10.650  13.392  1.00  0.00     0.002 C 
HETATM   14  C   UNL     1      42.389  -9.948  14.718  1.00  0.00     0.005 C 
ENDBRANCH  12  13
ENDBRANCH   9  12
ENDBRANCH   3   6
ENDBRANCH   1   2
BRANCH   1  15
HETATM   15  C   UNL     1      44.166 -15.704   6.612  1.00  0.00     0.254 C 
BRANCH  15  16
HETATM   16  N   UNL     1      42.661 -15.694   6.825  1.00  0.00    -0.069 N 
HETATM   17  H   UNL     1      42.530 -15.207   7.725  1.00  0.00     0.280 HD
HETATM   18  C   UNL     1      42.065 -17.082   6.953  1.00  0.00     0.244 C 
HETATM   19  C   UNL     1      41.395 -17.354   5.600  1.00  0.00     0.046 C 
HETATM   20  C   UNL     1      40.822 -15.967   5.292  1.00  0.00     0.039 C 
HETATM   21  C   UNL     1      41.883 -14.977   5.748  1.00  0.00     0.235 C 
BRANCH  19  22
HETATM   22  C   UNL     1      42.361 -17.980   4.597  1.00  0.00    -0.046 A 
HETATM   23  C   UNL     1      42.134 -17.857   3.202  1.00  0.00    -0.055 A 
HETATM   24  C   UNL     1      40.997 -17.064   2.606  1.00  0.00     0.049 C 
HETATM   25  C   UNL     1      42.985 -18.519   2.296  1.00  0.00     0.007 A 
HETATM   26  C   UNL     1      44.080 -19.251   2.741  1.00  0.00     0.001 A 
HETATM   27  C   UNL     1      44.349 -19.323   4.099  1.00  0.00     0.001 A 
HETATM   28  C   UNL     1      43.504 -18.690   5.015  1.00  0.00     0.008 A 
ENDBRANCH  19  22
ENDBRANCH  15  16
ENDBRANCH   1  15
TORSDOF 7
ENDMDL
MODEL 3
REMARK VINA RESULT:      -8.0      2.095      4.009
REMARK  7 active torsions:
REMARK  status: ('A' for Active; 'I' for Inactive)
REMARK    1  A    between atoms: C_2  and  C_3 
REMARK    2  A    between atoms: C_3  and  C_4 
REMARK    3  A    between atoms: C_8  and  C_9 
REMARK       I    between atoms: C_9  and  N_10 
REMARK    4  A    between atoms: N_10  and  C_11 
REMARK    5  A    between atoms: C_11  and  C_12 
REMARK    6  A    between atoms: C_12  and  N_13 
REMARK    7  A    between atoms: C_16  and  C_17 
ROOT
HETATM    1  C   UNL     1      41.634 -15.290   4.091  1.00  0.00     0.150 C 
ENDROOT
BRANCH   1   2
HETATM    2  N   UNL     1      42.436 -14.992   5.268  1.00  0.00    -0.354 N 
HETATM    3  C   UNL     1      43.417 -14.012   5.220  1.00  0.00     0.272 C 
HETATM    4  O   UNL     1      43.979 -13.703   4.174  1.00  0.00    -0.266 OA
HETATM    5  H   UNL     1      41.979 -15.007   6.183  1.00  0.00     0.162 HD
BRANCH   3   6
HETATM    6  C   UNL     1      43.691 -13.397   6.523  1.00  0.00     0.146 A 
HETATM    7  N   UNL     1      42.839 -12.498   7.058  1.00  0.00    -0.169 NA
HETATM    8  N   UNL     1      43.435 -12.132   8.210  1.00  0.00    -0.282 N 
HETATM    9  C   UNL     1      44.644 -12.739   8.419  1.00  0.00     0.030 A 
HETATM   10  H   UNL     1      42.974 -11.446   8.801  1.00  0.00     0.189 HD
HETATM   11  C   UNL     1      44.823 -13.589   7.350  1.00  0.00     0.065 A 
BRANCH   9  12
HETATM   12  C   UNL     1      45.501 -12.429   9.598  1.00  0.00     0.058 C 
BRANCH  12  13
HETATM   13  C   UNL     1      45.430 -10.944   9.958  1.00  0.00     0.002 C 
HETATM   14  C   UNL     1      44.578 -10.708  11.196  1.00  0.00     0.005 C 
ENDBRANCH  12  13
ENDBRANCH   9  12
ENDBRANCH   3   6
ENDBRANCH   1   2
BRANCH   1  15
HETATM   15  C   UNL     1      41.670 -16.766   3.656  1.00  0.00     0.254 C 
BRANCH  15  16
HETATM   16  N   UNL     1      42.114 -16.868   2.206  1.00  0.00    -0.069 N 
HETATM   17  H   UNL     1      41.409 -16.329   1.680  1.00  0.00     0.280 HD
HETATM   18  C   UNL     1      42.106 -18.289   1.675  1.00  0.00     0.244 C 
HETATM   19  C   UNL     1      43.578 -18.718   1.661  1.00  0.00     0.046 C 
HETATM   20  C   UNL     1      44.242 -17.412   1.214  1.00  0.00     0.039 C 
HETATM   21  C   UNL     1      43.487 -16.303   1.931  1.00  0.00     0.235 C 
BRANCH  19  22
HETATM   22  C   UNL     1      44.008 -19.333   2.991  1.00  0.00    -0.046 A 
HETATM   23  C   UNL     1      44.274 -20.724   3.091  1.00  0.00    -0.055 A 
HETATM   24  C   UNL     1      44.223 -21.672   1.918  1.00  0.00     0.049 C 
HETATM   25  C   UNL     1      44.579 -21.287   4.344  1.00  0.00     0.007 A 
HETATM   26  C   UNL     1      44.679 -20.496   5.483  1.00  0.00     0.001 A 
HETATM   27  C   UNL     1      44.487 -19.126   5.385  1.00  0.00     0.001 A 
HETATM   28  C   UNL     1      44.163 -18.552   4.152  1.00  0.00     0.008 A 
ENDBRANCH  19  22
ENDBRANCH  15  16
ENDBRANCH   1  15
TORSDOF 7
ENDMDL
MODEL 4
REMARK VINA RESULT:      -8.0      4.132      5.840
REMARK  7 active torsions:
REMARK  status: ('A' for Active; 'I' for Inactive)
REMARK    1  A    between atoms: C_2  and  C_3 
REMARK    2  A    between atoms: C_3  and  C_4 
REMARK    3  A    between atoms: C_8  and  C_9 
REMARK       I    between atoms: C_9  and  N_10 
REMARK    4  A    between atoms: N_10  and  C_11 
REMARK    5  A    between atoms: C_11  and  C_12 
REMARK    6  A    between atoms: C_12  and  N_13 
REMARK    7  A    between atoms: C_16  and  C_17 
ROOT
HETATM    1  C   UNL     1      43.280 -16.795   7.747  1.00  0.00     0.150 C 
ENDROOT
BRANCH   1   2
HETATM    2  N   UNL     1      42.789 -15.637   7.016  1.00  0.00    -0.354 N 
HETATM    3  C   UNL     1      43.668 -14.818   6.322  1.00  0.00     0.272 C 
HETATM    4  O   UNL     1      44.847 -14.709   6.644  1.00  0.00    -0.266 OA
HETATM    5  H   UNL     1      41.898 -15.719   6.520  1.00  0.00     0.162 HD
BRANCH   3   6
HETATM    6  C   UNL     1      43.049 -14.126   5.188  1.00  0.00     0.146 A 
HETATM    7  N   UNL     1      43.802 -13.602   4.199  1.00  0.00    -0.169 NA
HETATM    8  N   UNL     1      42.904 -13.022   3.378  1.00  0.00    -0.282 N 
HETATM    9  C   UNL     1      41.613 -13.129   3.817  1.00  0.00     0.030 A 
HETATM   10  H   UNL     1      43.241 -12.551   2.544  1.00  0.00     0.189 HD
HETATM   11  C   UNL     1      41.673 -13.866   4.979  1.00  0.00     0.065 A 
BRANCH   9  12
HETATM   12  C   UNL     1      40.469 -12.502   3.096  1.00  0.00     0.058 C 
BRANCH  12  13
HETATM   13  C   UNL     1      40.126 -13.278   1.824  1.00  0.00     0.002 C 
HETATM   14  C   UNL     1      39.473 -14.614   2.142  1.00  0.00     0.005 C 
ENDBRANCH  12  13
ENDBRANCH   9  12
ENDBRANCH   3   6
ENDBRANCH   1   2
BRANCH   1  15
HETATM   15  C   UNL     1      42.869 -18.149   7.142  1.00  0.00     0.254 C 
BRANCH  15  16
HETATM   16  N   UNL     1      44.082 -19.057   7.031  1.00  0.00    -0.069 N 
HETATM   17  H   UNL     1      44.514 -19.030   7.968  1.00  0.00     0.280 HD
HETATM   18  C   UNL     1      45.109 -18.565   6.030  1.00  0.00     0.244 C 
HETATM   19  C   UNL     1      44.921 -19.455   4.795  1.00  0.00     0.046 C 
HETATM   20  C   UNL     1      44.641 -20.803   5.467  1.00  0.00     0.039 C 
HETATM   21  C   UNL     1      43.762 -20.486   6.667  1.00  0.00     0.235 C 
BRANCH  19  22
HETATM   22  C   UNL     1      43.876 -18.890   3.836  1.00  0.00    -0.046 A 
HETATM   23  C   UNL     1      43.548 -19.579   2.638  1.00  0.00    -0.055 A 
HETATM   24  C   UNL     1      44.132 -20.916   2.256  1.00  0.00     0.049 C 
HETATM   25  C   UNL     1      42.651 -18.996   1.723  1.00  0.00     0.007 A 
HETATM   26  C   UNL     1      42.035 -17.780   1.994  1.00  0.00     0.001 A 
HETATM   27  C   UNL     1      42.298 -17.131   3.191  1.00  0.00     0.001 A 
HETATM   28  C   UNL     1      43.201 -17.683   4.103  1.00  0.00     0.008 A 
ENDBRANCH  19  22
ENDBRANCH  15  16
ENDBRANCH   1  15
TORSDOF 7
ENDMDL
MODEL 5
REMARK VINA RESULT:      -7.9      5.981      8.885
REMARK  7 active torsions:
REMARK  status: ('A' for Active; 'I' for Inactive)
REMARK    1  A    between atoms: C_2  and  C_3 
REMARK    2  A    between atoms: C_3  and  C_4 
REMARK    3  A    between atoms: C_8  and  C_9 
REMARK       I    between atoms: C_9  and  N_10 
REMARK    4  A    between atoms: N_10  and  C_11 
REMARK    5  A    between atoms: C_11  and  C_12 
REMARK    6  A    between atoms: C_12  and  N_13 
REMARK    7  A    between atoms: C_16  and  C_17 
ROOT
HETATM    1  C   UNL     1      41.125 -16.606   4.455  1.00  0.00     0.150 C 
ENDROOT
BRANCH   1   2
HETATM    2  N   UNL     1      40.710 -16.600   3.060  1.00  0.00    -0.354 N 
HETATM    3  C   UNL     1      40.450 -15.403   2.409  1.00  0.00     0.272 C 
HETATM    4  O   UNL     1      40.091 -14.397   3.014  1.00  0.00    -0.266 OA
HETATM    5  H   UNL     1      41.139 -17.276   2.424  1.00  0.00     0.162 HD
BRANCH   3   6
HETATM    6  C   UNL     1      40.657 -15.471   0.959  1.00  0.00     0.146 A 
HETATM    7  N   UNL     1      41.331 -16.498   0.402  1.00  0.00    -0.169 NA
HETATM    8  N   UNL     1      41.355 -16.197  -0.911  1.00  0.00    -0.282 N 
HETATM    9  C   UNL     1      40.749 -15.007  -1.211  1.00  0.00     0.030 A 
HETATM   10  H   UNL     1      41.819 -16.836  -1.549  1.00  0.00     0.189 HD
HETATM   11  C   UNL     1      40.262 -14.525  -0.017  1.00  0.00     0.065 A 
BRANCH   9  12
HETATM   12  C   UNL     1      40.720 -14.452  -2.594  1.00  0.00     0.058 C 
BRANCH  12  13
HETATM   13  C   UNL     1      39.351 -14.660  -3.244  1.00  0.00     0.002 C 
HETATM   14  C   UNL     1      39.275 -15.989  -3.979  1.00  0.00     0.005 C 
ENDBRANCH  12  13
ENDBRANCH   9  12
ENDBRANCH   3   6
ENDBRANCH   1   2
BRANCH   1  15
HETATM   15  C   UNL     1      41.557 -17.986   4.982  1.00  0.00     0.254 C 
BRANCH  15  16
HETATM   16  N   UNL     1      42.784 -17.842   5.868  1.00  0.00    -0.069 N 
HETATM   17  H   UNL     1      42.600 -16.997   6.430  1.00  0.00     0.280 HD
HETATM   18  C   UNL     1      44.063 -17.614   5.087  1.00  0.00     0.244 C 
HETATM   19  C   UNL     1      44.791 -18.964   5.109  1.00  0.00     0.046 C 
HETATM   20  C   UNL     1      44.475 -19.424   6.536  1.00  0.00     0.039 C 
HETATM   21  C   UNL     1      43.031 -19.014   6.787  1.00  0.00     0.235 C 
BRANCH  19  22
HETATM   22  C   UNL     1      44.370 -19.861   3.947  1.00  0.00    -0.046 A 
HETATM   23  C   UNL     1      44.592 -21.262   3.999  1.00  0.00    -0.055 A 
HETATM   24  C   UNL     1      45.178 -21.972   5.194  1.00  0.00     0.049 C 
HETATM   25  C   UNL     1      44.282 -22.058   2.880  1.00  0.00     0.007 A 
HETATM   26  C   UNL     1      43.710 -21.506   1.740  1.00  0.00     0.001 A 
HETATM   27  C   UNL     1      43.428 -20.149   1.704  1.00  0.00     0.001 A 
HETATM   28  C   UNL     1      43.748 -19.338   2.797  1.00  0.00     0.008 A 
ENDBRANCH  19  22
ENDBRANCH  15  16
ENDBRANCH   1  15
TORSDOF 7
ENDMDL
MODEL 6
REMARK VINA RESULT:      -7.8      6.236      8.946
REMARK  7 active torsions:
REMARK  status: ('A' for Active; 'I' for Inactive)
REMARK    1  A    between atoms: C_2  and  C_3 
REMARK    2  A    between atoms: C_3  and  C_4 
REMARK    3  A    between atoms: C_8  and  C_9 
REMARK       I    between atoms: C_9  and  N_10 
REMARK    4  A    between atoms: N_10  and  C_11 
REMARK    5  A    between atoms: C_11  and  C_12 
REMARK    6  A    between atoms: C_12  and  N_13 
REMARK    7  A    between atoms: C_16  and  C_17 
ROOT
HETATM    1  C   UNL     1      40.853 -16.028   4.339  1.00  0.00     0.150 C 
ENDROOT
BRANCH   1   2
HETATM    2  N   UNL     1      39.885 -15.685   3.310  1.00  0.00    -0.354 N 
HETATM    3  C   UNL     1      39.736 -14.369   2.896  1.00  0.00     0.272 C 
HETATM    4  O   UNL     1      40.004 -13.421   3.627  1.00  0.00    -0.266 OA
HETATM    5  H   UNL     1      39.759 -16.331   2.527  1.00  0.00     0.162 HD
BRANCH   3   6
HETATM    6  C   UNL     1      39.244 -14.244   1.520  1.00  0.00     0.146 A 
HETATM    7  N   UNL     1      37.925 -14.310   1.246  1.00  0.00    -0.169 NA
HETATM    8  N   UNL     1      37.865 -14.201  -0.096  1.00  0.00    -0.282 N 
HETATM    9  C   UNL     1      39.092 -14.096  -0.692  1.00  0.00     0.030 A 
HETATM   10  H   UNL     1      36.955 -14.226  -0.547  1.00  0.00     0.189 HD
HETATM   11  C   UNL     1      40.008 -14.093   0.338  1.00  0.00     0.065 A 
BRANCH   9  12
HETATM   12  C   UNL     1      39.260 -14.031  -2.171  1.00  0.00     0.058 C 
BRANCH  12  13
HETATM   13  C   UNL     1      38.010 -14.538  -2.892  1.00  0.00     0.002 C 
HETATM   14  C   UNL     1      37.268 -13.408  -3.589  1.00  0.00     0.005 C 
ENDBRANCH  12  13
ENDBRANCH   9  12
ENDBRANCH   3   6
ENDBRANCH   1   2
BRANCH   1  15
HETATM   15  C   UNL     1      41.799 -17.183   3.962  1.00  0.00     0.254 C 
BRANCH  15  16
HETATM   16  N   UNL     1      42.228 -17.048   2.510  1.00  0.00    -0.069 N 
HETATM   17  H   UNL     1      41.523 -16.424   2.088  1.00  0.00     0.280 HD
HETATM   18  C   UNL     1      42.201 -18.362   1.753  1.00  0.00     0.244 C 
HETATM   19  C   UNL     1      43.669 -18.794   1.652  1.00  0.00     0.046 C 
HETATM   20  C   UNL     1      44.341 -17.437   1.419  1.00  0.00     0.039 C 
HETATM   21  C   UNL     1      43.603 -16.456   2.317  1.00  0.00     0.235 C 
BRANCH  19  22
HETATM   22  C   UNL     1      44.106 -19.623   2.857  1.00  0.00    -0.046 A 
HETATM   23  C   UNL     1      44.231 -21.034   2.757  1.00  0.00    -0.055 A 
HETATM   24  C   UNL     1      44.017 -21.803   1.476  1.00  0.00     0.049 C 
HETATM   25  C   UNL     1      44.545 -21.789   3.902  1.00  0.00     0.007 A 
HETATM   26  C   UNL     1      44.789 -21.174   5.125  1.00  0.00     0.001 A 
HETATM   27  C   UNL     1      44.736 -19.792   5.219  1.00  0.00     0.001 A 
HETATM   28  C   UNL     1      44.406 -19.026   4.097  1.00  0.00     0.008 A 
ENDBRANCH  19  22
ENDBRANCH  15  16
ENDBRANCH   1  15
TORSDOF 7
ENDMDL
MODEL 7
REMARK VINA RESULT:      -7.7      4.693      8.753
REMARK  7 active torsions:
REMARK  status: ('A' for Active; 'I' for Inactive)
REMARK    1  A    between atoms: C_2  and  C_3 
REMARK    2  A    between atoms: C_3  and  C_4 
REMARK    3  A    between atoms: C_8  and  C_9 
REMARK       I    between atoms: C_9  and  N_10 
REMARK    4  A    between atoms: N_10  and  C_11 
REMARK    5  A    between atoms: C_11  and  C_12 
REMARK    6  A    between atoms: C_12  and  N_13 
REMARK    7  A    between atoms: C_16  and  C_17 
ROOT
HETATM    1  C   UNL     1      41.936 -13.841   3.810  1.00  0.00     0.150 C 
ENDROOT
BRANCH   1   2
HETATM    2  N   UNL     1      41.824 -14.594   2.571  1.00  0.00    -0.354 N 
HETATM    3  C   UNL     1      40.594 -14.735   1.943  1.00  0.00     0.272 C 
HETATM    4  O   UNL     1      39.537 -14.683   2.562  1.00  0.00    -0.266 OA
HETATM    5  H   UNL     1      42.578 -14.513   1.884  1.00  0.00     0.162 HD
BRANCH   3   6
HETATM    6  C   UNL     1      40.700 -14.936   0.494  1.00  0.00     0.146 A 
HETATM    7  N   UNL     1      41.619 -15.776  -0.024  1.00  0.00    -0.169 NA
HETATM    8  N   UNL     1      41.445 -15.667  -1.356  1.00  0.00    -0.282 N 
HETATM    9  C   UNL     1      40.473 -14.772  -1.710  1.00  0.00     0.030 A 
HETATM   10  H   UNL     1      42.038 -16.216  -1.971  1.00  0.00     0.189 HD
HETATM   11  C   UNL     1      39.951 -14.301  -0.525  1.00  0.00     0.065 A 
BRANCH   9  12
HETATM   12  C   UNL     1      40.162 -14.449  -3.131  1.00  0.00     0.058 C 
BRANCH  12  13
HETATM   13  C   UNL     1      39.410 -15.597  -3.807  1.00  0.00     0.002 C 
HETATM   14  C   UNL     1      37.909 -15.356  -3.817  1.00  0.00     0.005 C 
ENDBRANCH  12  13
ENDBRANCH   9  12
ENDBRANCH   3   6
ENDBRANCH   1   2
BRANCH   1  15
HETATM   15  C   UNL     1      42.956 -14.415   4.811  1.00  0.00     0.254 C 
BRANCH  15  16
HETATM   16  N   UNL     1      42.236 -14.929   6.047  1.00  0.00    -0.069 N 
HETATM   17  H   UNL     1      42.261 -14.138   6.709  1.00  0.00     0.280 HD
HETATM   18  C   UNL     1      42.933 -16.107   6.700  1.00  0.00     0.244 C 
HETATM   19  C   UNL     1      42.110 -17.335   6.290  1.00  0.00     0.046 C 
HETATM   20  C   UNL     1      40.694 -16.754   6.363  1.00  0.00     0.039 C 
HETATM   21  C   UNL     1      40.803 -15.341   5.809  1.00  0.00     0.235 C 
BRANCH  19  22
HETATM   22  C   UNL     1      42.585 -17.928   4.966  1.00  0.00    -0.046 A 
HETATM   23  C   UNL     1      43.785 -18.683   4.902  1.00  0.00    -0.055 A 
HETATM   24  C   UNL     1      44.631 -19.013   6.107  1.00  0.00     0.049 C 
HETATM   25  C   UNL     1      44.254 -19.142   3.657  1.00  0.00     0.007 A 
HETATM   26  C   UNL     1      43.534 -18.916   2.489  1.00  0.00     0.001 A 
HETATM   27  C   UNL     1      42.327 -18.237   2.549  1.00  0.00     0.001 A 
HETATM   28  C   UNL     1      41.855 -17.756   3.774  1.00  0.00     0.008 A 
ENDBRANCH  19  22
ENDBRANCH  15  16
ENDBRANCH   1  15
TORSDOF 7
ENDMDL
MODEL 8
REMARK VINA RESULT:      -7.6      6.300      9.598
REMARK  7 active torsions:
REMARK  status: ('A' for Active; 'I' for Inactive)
REMARK    1  A    between atoms: C_2  and  C_3 
REMARK    2  A    between atoms: C_3  and  C_4 
REMARK    3  A    between atoms: C_8  and  C_9 
REMARK       I    between atoms: C_9  and  N_10 
REMARK    4  A    between atoms: N_10  and  C_11 
REMARK    5  A    between atoms: C_11  and  C_12 
REMARK    6  A    between atoms: C_12  and  N_13 
REMARK    7  A    between atoms: C_16  and  C_17 
ROOT
HETATM    1  C   UNL     1      41.768 -16.713   0.388  1.00  0.00     0.150 C 
ENDROOT
BRANCH   1   2
HETATM    2  N   UNL     1      41.641 -15.933  -0.833  1.00  0.00    -0.354 N 
HETATM    3  C   UNL     1      40.898 -14.761  -0.846  1.00  0.00     0.272 C 
HETATM    4  O   UNL     1      39.973 -14.568  -0.063  1.00  0.00    -0.266 OA
HETATM    5  H   UNL     1      42.457 -15.855  -1.446  1.00  0.00     0.162 HD
BRANCH   3   6
HETATM    6  C   UNL     1      41.339 -13.802  -1.864  1.00  0.00     0.146 A 
HETATM    7  N   UNL     1      41.618 -14.205  -3.121  1.00  0.00    -0.169 NA
HETATM    8  N   UNL     1      42.023 -13.079  -3.741  1.00  0.00    -0.282 N 
HETATM    9  C   UNL     1      42.041 -11.981  -2.925  1.00  0.00     0.030 A 
HETATM   10  H   UNL     1      42.294 -13.132  -4.718  1.00  0.00     0.189 HD
HETATM   11  C   UNL     1      41.574 -12.416  -1.704  1.00  0.00     0.065 A 
BRANCH   9  12
HETATM   12  C   UNL     1      42.518 -10.648  -3.389  1.00  0.00     0.058 C 
BRANCH  12  13
HETATM   13  C   UNL     1      42.497 -10.554  -4.916  1.00  0.00     0.002 C 
HETATM   14  C   UNL     1      42.470  -9.109  -5.388  1.00  0.00     0.005 C 
ENDBRANCH  12  13
ENDBRANCH   9  12
ENDBRANCH   3   6
ENDBRANCH   1   2
BRANCH   1  15
HETATM   15  C   UNL     1      42.856 -16.208   1.353  1.00  0.00     0.254 C 
BRANCH  15  16
HETATM   16  N   UNL     1      42.241 -15.884   2.705  1.00  0.00    -0.069 N 
HETATM   17  H   UNL     1      42.060 -14.869   2.670  1.00  0.00     0.280 HD
HETATM   18  C   UNL     1      43.176 -16.152   3.868  1.00  0.00     0.244 C 
HETATM   19  C   UNL     1      42.676 -17.464   4.487  1.00  0.00     0.046 C 
HETATM   20  C   UNL     1      41.162 -17.273   4.352  1.00  0.00     0.039 C 
HETATM   21  C   UNL     1      40.953 -16.614   2.996  1.00  0.00     0.235 C 
BRANCH  19  22
HETATM   22  C   UNL     1      43.315 -18.686   3.833  1.00  0.00    -0.046 A 
HETATM   23  C   UNL     1      44.428 -19.329   4.437  1.00  0.00    -0.055 A 
HETATM   24  C   UNL     1      45.011 -18.918   5.766  1.00  0.00     0.049 C 
HETATM   25  C   UNL     1      45.060 -20.396   3.772  1.00  0.00     0.007 A 
HETATM   26  C   UNL     1      44.583 -20.872   2.556  1.00  0.00     0.001 A 
HETATM   27  C   UNL     1      43.457 -20.294   1.990  1.00  0.00     0.001 A 
HETATM   28  C   UNL     1      42.827 -19.220   2.624  1.00  0.00     0.008 A 
ENDBRANCH  19  22
ENDBRANCH  15  16
ENDBRANCH   1  15
TORSDOF 7
ENDMDL
MODEL 9
REMARK VINA RESULT:      -7.6      1.716      2.331
REMARK  7 active torsions:
REMARK  status: ('A' for Active; 'I' for Inactive)
REMARK    1  A    between atoms: C_2  and  C_3 
REMARK    2  A    between atoms: C_3  and  C_4 
REMARK    3  A    between atoms: C_8  and  C_9 
REMARK       I    between atoms: C_9  and  N_10 
REMARK    4  A    between atoms: N_10  and  C_11 
REMARK    5  A    between atoms: C_11  and  C_12 
REMARK    6  A    between atoms: C_12  and  N_13 
REMARK    7  A    between atoms: C_16  and  C_17 
ROOT
HETATM    1  C   UNL     1      43.492 -14.789   6.088  1.00  0.00     0.150 C 
ENDROOT
BRANCH   1   2
HETATM    2  N   UNL     1      43.810 -14.251   7.401  1.00  0.00    -0.354 N 
HETATM    3  C   UNL     1      44.946 -13.477   7.587  1.00  0.00     0.272 C 
HETATM    4  O   UNL     1      45.936 -13.588   6.870  1.00  0.00    -0.266 OA
HETATM    5  H   UNL     1      43.041 -13.918   7.988  1.00  0.00     0.162 HD
BRANCH   3   6
HETATM    6  C   UNL     1      44.831 -12.530   8.701  1.00  0.00     0.146 A 
HETATM    7  N   UNL     1      45.706 -12.555   9.727  1.00  0.00    -0.169 NA
HETATM    8  N   UNL     1      45.262 -11.591  10.558  1.00  0.00    -0.282 N 
HETATM    9  C   UNL     1      44.125 -10.971  10.118  1.00  0.00     0.030 A 
HETATM   10  H   UNL     1      45.770 -11.420  11.420  1.00  0.00     0.189 HD
HETATM   11  C   UNL     1      43.836 -11.543   8.898  1.00  0.00     0.065 A 
BRANCH   9  12
HETATM   12  C   UNL     1      43.428  -9.921  10.914  1.00  0.00     0.058 C 
BRANCH  12  13
HETATM   13  C   UNL     1      43.536 -10.201  12.414  1.00  0.00     0.002 C 
HETATM   14  C   UNL     1      42.484 -11.197  12.875  1.00  0.00     0.005 C 
ENDBRANCH  12  13
ENDBRANCH   9  12
ENDBRANCH   3   6
ENDBRANCH   1   2
BRANCH   1  15
HETATM   15  C   UNL     1      43.275 -13.722   5.000  1.00  0.00     0.254 C 
BRANCH  15  16
HETATM   16  N   UNL     1      41.790 -13.561   4.719  1.00  0.00    -0.069 N 
HETATM   17  H   UNL     1      41.476 -12.843   5.390  1.00  0.00     0.280 HD
HETATM   18  C   UNL     1      40.991 -14.824   4.978  1.00  0.00     0.244 C 
HETATM   19  C   UNL     1      40.707 -15.408   3.589  1.00  0.00     0.046 C 
HETATM   20  C   UNL     1      40.451 -14.123   2.796  1.00  0.00     0.039 C 
HETATM   21  C   UNL     1      41.465 -13.114   3.315  1.00  0.00     0.235 C 
BRANCH  19  22
HETATM   22  C   UNL     1      41.822 -16.341   3.120  1.00  0.00    -0.046 A 
HETATM   23  C   UNL     1      42.141 -17.512   3.856  1.00  0.00    -0.055 A 
HETATM   24  C   UNL     1      41.386 -17.960   5.084  1.00  0.00     0.049 C 
HETATM   25  C   UNL     1      43.231 -18.308   3.460  1.00  0.00     0.007 A 
HETATM   26  C   UNL     1      43.973 -18.000   2.325  1.00  0.00     0.001 A 
HETATM   27  C   UNL     1      43.629 -16.894   1.562  1.00  0.00     0.001 A 
HETATM   28  C   UNL     1      42.562 -16.080   1.951  1.00  0.00     0.008 A 
ENDBRANCH  19  22
ENDBRANCH  15  16
ENDBRANCH   1  15
TORSDOF 7
ENDMDL
MODEL 10
REMARK VINA RESULT:      -7.6      4.751      7.950
REMARK  7 active torsions:
REMARK  status: ('A' for Active; 'I' for Inactive)
REMARK    1  A    between atoms: C_2  and  C_3 
REMARK    2  A    between atoms: C_3  and  C_4 
REMARK    3  A    between atoms: C_8  and  C_9 
REMARK       I    between atoms: C_9  and  N_10 
REMARK    4  A    between atoms: N_10  and  C_11 
REMARK    5  A    between atoms: C_11  and  C_12 
REMARK    6  A    between atoms: C_12  and  N_13 
REMARK    7  A    between atoms: C_16  and  C_17 
ROOT
HETATM    1  C   UNL     1      40.457 -15.139   5.972  1.00  0.00     0.150 C 
ENDROOT
BRANCH   1   2
HETATM    2  N   UNL     1      39.887 -15.018   4.639  1.00  0.00    -0.354 N 
HETATM    3  C   UNL     1      40.264 -13.974   3.806  1.00  0.00     0.272 C 
HETATM    4  O   UNL     1      40.669 -12.903   4.246  1.00  0.00    -0.266 OA
HETATM    5  H   UNL     1      39.723 -15.873   4.101  1.00  0.00     0.162 HD
BRANCH   3   6
HETATM    6  C   UNL     1      40.135 -14.290   2.380  1.00  0.00     0.146 A 
HETATM    7  N   UNL     1      38.926 -14.527   1.828  1.00  0.00    -0.169 NA
HETATM    8  N   UNL     1      39.207 -14.819   0.543  1.00  0.00    -0.282 N 
HETATM    9  C   UNL     1      40.545 -14.806   0.258  1.00  0.00     0.030 A 
HETATM   10  H   UNL     1      38.440 -15.039  -0.085  1.00  0.00     0.189 HD
HETATM   11  C   UNL     1      41.172 -14.438   1.428  1.00  0.00     0.065 A 
BRANCH   9  12
HETATM   12  C   UNL     1      41.080 -15.164  -1.086  1.00  0.00     0.058 C 
BRANCH  12  13
HETATM   13  C   UNL     1      40.100 -14.773  -2.193  1.00  0.00     0.002 C 
HETATM   14  C   UNL     1      40.208 -15.703  -3.391  1.00  0.00     0.005 C 
ENDBRANCH  12  13
ENDBRANCH   9  12
ENDBRANCH   3   6
ENDBRANCH   1   2
BRANCH   1  15
HETATM   15  C   UNL     1      41.001 -16.540   6.304  1.00  0.00     0.254 C 
BRANCH  15  16
HETATM   16  N   UNL     1      42.354 -16.423   6.986  1.00  0.00    -0.069 N 
HETATM   17  H   UNL     1      42.201 -15.750   7.753  1.00  0.00     0.280 HD
HETATM   18  C   UNL     1      43.434 -15.861   6.081  1.00  0.00     0.244 C 
HETATM   19  C   UNL     1      44.278 -17.073   5.667  1.00  0.00     0.046 C 
HETATM   20  C   UNL     1      44.285 -17.865   6.978  1.00  0.00     0.039 C 
HETATM   21  C   UNL     1      42.883 -17.719   7.551  1.00  0.00     0.235 C 
BRANCH  19  22
HETATM   22  C   UNL     1      43.732 -17.750   4.412  1.00  0.00    -0.046 A 
HETATM   23  C   UNL     1      44.116 -19.076   4.081  1.00  0.00    -0.055 A 
HETATM   24  C   UNL     1      45.012 -19.928   4.946  1.00  0.00     0.049 C 
HETATM   25  C   UNL     1      43.675 -19.648   2.873  1.00  0.00     0.007 A 
HETATM   26  C   UNL     1      42.823 -18.958   2.019  1.00  0.00     0.001 A 
HETATM   27  C   UNL     1      42.388 -17.687   2.365  1.00  0.00     0.001 A 
HETATM   28  C   UNL     1      42.831 -17.095   3.550  1.00  0.00     0.008 A 
ENDBRANCH  19  22
ENDBRANCH  15  16
ENDBRANCH   1  15
TORSDOF 7
ENDMDL
