MODEL 1
REMARK VINA RESULT:      -8.6      0.000      0.000
REMARK  3 active torsions:
REMARK  status: ('A' for Active; 'I' for Inactive)
REMARK    1  A    between atoms: C_9  and  N_10 
REMARK       I    between atoms: N_10  and  C_11 
REMARK    2  A    between atoms: C_11  and  C_12 
REMARK    3  A    between atoms: C_15  and  C_16 
REMARK       I    between atoms: C_16  and  N_17 
ROOT
HETATM    1  N   UNL     1      42.560 -17.155   1.570  1.00  0.00    -0.322 N 
HETATM    2  C   UNL     1      41.251 -16.710   1.500  1.00  0.00     0.263 C 
HETATM    3  O   UNL     1      40.350 -17.067   2.254  1.00  0.00    -0.267 OA
HETATM    4  H   UNL     1      43.184 -16.768   0.872  1.00  0.00     0.169 HD
ENDROOT
BRANCH   1   5
HETATM    5  C   UNL     1      43.132 -18.057   2.488  1.00  0.00     0.035 A 
HETATM    6  C   UNL     1      43.522 -17.716   3.781  1.00  0.00     0.030 A 
HETATM    7  C   UNL     1      44.092 -18.675   4.627  1.00  0.00     0.014 A 
HETATM    8  C   UNL     1      44.284 -19.995   4.195  1.00  0.00    -0.026 A 
HETATM    9  C   UNL     1      44.860 -20.965   5.031  1.00  0.00     0.012 A 
HETATM   10  C   UNL     1      43.892 -20.352   2.887  1.00  0.00    -0.024 A 
HETATM   11  C   UNL     1      45.045 -22.273   4.584  1.00  0.00     0.001 A 
HETATM   12  C   UNL     1      44.656 -22.628   3.296  1.00  0.00     0.001 A 
HETATM   13  C   UNL     1      44.083 -21.675   2.452  1.00  0.00     0.012 A 
HETATM   14  C   UNL     1      43.319 -19.377   2.051  1.00  0.00     0.042 A 
ENDBRANCH   1   5
BRANCH   2  15
HETATM   15  C   UNL     1      40.991 -15.742   0.432  1.00  0.00     0.073 A 
HETATM   16  S   UNL     1      40.115 -14.294   0.685  1.00  0.00    -0.096 SA
HETATM   17  C   UNL     1      40.274 -13.831  -0.950  1.00  0.00     0.067 A 
HETATM   18  C   UNL     1      40.983 -14.745  -1.711  1.00  0.00     0.039 A 
HETATM   19  C   UNL     1      41.394 -15.849  -0.888  1.00  0.00     0.042 A 
BRANCH  18  20
HETATM   20  C   UNL     1      41.225 -14.528  -3.136  1.00  0.00     0.249 C 
HETATM   21  N   UNL     1      42.348 -13.828  -3.462  1.00  0.00    -0.366 N 
HETATM   22  H   UNL     1      42.997 -13.454  -2.789  1.00  0.00     0.159 HD
HETATM   23  H   UNL     1      42.522 -13.669  -4.445  1.00  0.00     0.159 HD
HETATM   24  O   UNL     1      40.476 -14.943  -4.015  1.00  0.00    -0.268 OA
ENDBRANCH  18  20
ENDBRANCH   2  15
TORSDOF 3
ENDMDL
MODEL 2
REMARK VINA RESULT:      -8.0      3.829      5.348
REMARK  3 active torsions:
REMARK  status: ('A' for Active; 'I' for Inactive)
REMARK    1  A    between atoms: C_9  and  N_10 
REMARK       I    between atoms: N_10  and  C_11 
REMARK    2  A    between atoms: C_11  and  C_12 
REMARK    3  A    between atoms: C_15  and  C_16 
REMARK       I    between atoms: C_16  and  N_17 
ROOT
HETATM    1  N   UNL     1      42.793 -16.535   3.962  1.00  0.00    -0.322 N 
HETATM    2  C   UNL     1      41.587 -15.894   3.737  1.00  0.00     0.263 C 
HETATM    3  O   UNL     1      40.654 -16.366   3.094  1.00  0.00    -0.267 OA
HETATM    4  H   UNL     1      43.464 -16.009   4.509  1.00  0.00     0.169 HD
ENDROOT
BRANCH   1   5
HETATM    5  C   UNL     1      43.196 -17.818   3.543  1.00  0.00     0.035 A 
HETATM    6  C   UNL     1      43.150 -18.260   2.223  1.00  0.00     0.030 A 
HETATM    7  C   UNL     1      43.562 -19.557   1.894  1.00  0.00     0.014 A 
HETATM    8  C   UNL     1      44.027 -20.438   2.880  1.00  0.00    -0.026 A 
HETATM    9  C   UNL     1      44.439 -21.743   2.564  1.00  0.00     0.012 A 
HETATM   10  C   UNL     1      44.080 -20.000   4.221  1.00  0.00    -0.024 A 
HETATM   11  C   UNL     1      44.898 -22.606   3.558  1.00  0.00     0.001 A 
HETATM   12  C   UNL     1      44.953 -22.176   4.881  1.00  0.00     0.001 A 
HETATM   13  C   UNL     1      44.547 -20.882   5.211  1.00  0.00     0.012 A 
HETATM   14  C   UNL     1      43.663 -18.694   4.534  1.00  0.00     0.042 A 
ENDBRANCH   1   5
BRANCH   2  15
HETATM   15  C   UNL     1      41.480 -14.563   4.341  1.00  0.00     0.073 A 
HETATM   16  S   UNL     1      42.532 -13.275   3.940  1.00  0.00    -0.096 SA
HETATM   17  C   UNL     1      41.756 -12.212   5.025  1.00  0.00     0.067 A 
HETATM   18  C   UNL     1      40.699 -12.797   5.704  1.00  0.00     0.039 A 
HETATM   19  C   UNL     1      40.553 -14.165   5.289  1.00  0.00     0.042 A 
BRANCH  18  20
HETATM   20  C   UNL     1      39.911 -12.049   6.679  1.00  0.00     0.249 C 
HETATM   21  N   UNL     1      39.255 -12.783   7.622  1.00  0.00    -0.366 N 
HETATM   22  H   UNL     1      39.278 -13.788   7.674  1.00  0.00     0.159 HD
HETATM   23  H   UNL     1      38.703 -12.275   8.300  1.00  0.00     0.159 HD
HETATM   24  O   UNL     1      39.824 -10.824   6.677  1.00  0.00    -0.268 OA
ENDBRANCH  18  20
ENDBRANCH   2  15
TORSDOF 3
ENDMDL
MODEL 3
REMARK VINA RESULT:      -7.9      1.308      1.334
REMARK  3 active torsions:
REMARK  status: ('A' for Active; 'I' for Inactive)
REMARK    1  A    between atoms: C_9  and  N_10 
REMARK       I    between atoms: N_10  and  C_11 
REMARK    2  A    between atoms: C_11  and  C_12 
REMARK    3  A    between atoms: C_15  and  C_16 
REMARK       I    between atoms: C_16  and  N_17 
ROOT
HETATM    1  N   UNL     1      41.590 -16.862   1.411  1.00  0.00    -0.322 N 
HETATM    2  C   UNL     1      41.726 -15.502   1.185  1.00  0.00     0.263 C 
HETATM    3  O   UNL     1      42.534 -14.776   1.758  1.00  0.00    -0.267 OA
HETATM    4  H   UNL     1      40.873 -17.319   0.862  1.00  0.00     0.169 HD
ENDROOT
BRANCH   1   5
HETATM    5  C   UNL     1      42.324 -17.682   2.290  1.00  0.00     0.035 A 
HETATM    6  C   UNL     1      42.676 -17.320   3.588  1.00  0.00     0.030 A 
HETATM    7  C   UNL     1      43.416 -18.195   4.393  1.00  0.00     0.014 A 
HETATM    8  C   UNL     1      43.819 -19.449   3.915  1.00  0.00    -0.026 A 
HETATM    9  C   UNL     1      44.565 -20.333   4.710  1.00  0.00     0.012 A 
HETATM   10  C   UNL     1      43.465 -19.828   2.602  1.00  0.00    -0.024 A 
HETATM   11  C   UNL     1      44.958 -21.577   4.217  1.00  0.00     0.001 A 
HETATM   12  C   UNL     1      44.609 -21.953   2.923  1.00  0.00     0.001 A 
HETATM   13  C   UNL     1      43.868 -21.085   2.120  1.00  0.00     0.012 A 
HETATM   14  C   UNL     1      42.721 -18.937   1.807  1.00  0.00     0.042 A 
ENDBRANCH   1   5
BRANCH   2  15
HETATM   15  C   UNL     1      40.816 -14.957   0.176  1.00  0.00     0.073 A 
HETATM   16  S   UNL     1      39.409 -14.071   0.578  1.00  0.00    -0.096 SA
HETATM   17  C   UNL     1      38.991 -13.858  -1.063  1.00  0.00     0.067 A 
HETATM   18  C   UNL     1      39.892 -14.441  -1.937  1.00  0.00     0.039 A 
HETATM   19  C   UNL     1      40.949 -15.073  -1.198  1.00  0.00     0.042 A 
BRANCH  18  20
HETATM   20  C   UNL     1      39.706 -14.369  -3.385  1.00  0.00     0.249 C 
HETATM   21  N   UNL     1      39.353 -13.154  -3.893  1.00  0.00    -0.366 N 
HETATM   22  H   UNL     1      39.209 -12.328  -3.336  1.00  0.00     0.159 HD
HETATM   23  H   UNL     1      39.220 -13.095  -4.893  1.00  0.00     0.159 HD
HETATM   24  O   UNL     1      39.854 -15.333  -4.130  1.00  0.00    -0.268 OA
ENDBRANCH  18  20
ENDBRANCH   2  15
TORSDOF 3
ENDMDL
MODEL 4
REMARK VINA RESULT:      -7.8      4.377      5.348
REMARK  3 active torsions:
REMARK  status: ('A' for Active; 'I' for Inactive)
REMARK    1  A    between atoms: C_9  and  N_10 
REMARK       I    between atoms: N_10  and  C_11 
REMARK    2  A    between atoms: C_11  and  C_12 
REMARK    3  A    between atoms: C_15  and  C_16 
REMARK       I    between atoms: C_16  and  N_17 
ROOT
HETATM    1  N   UNL     1      42.964 -16.122   4.573  1.00  0.00    -0.322 N 
HETATM    2  C   UNL     1      41.746 -15.703   5.082  1.00  0.00     0.263 C 
HETATM    3  O   UNL     1      40.875 -16.451   5.515  1.00  0.00    -0.267 OA
HETATM    4  H   UNL     1      43.573 -15.380   4.249  1.00  0.00     0.169 HD
ENDROOT
BRANCH   1   5
HETATM    5  C   UNL     1      43.463 -17.434   4.461  1.00  0.00     0.035 A 
HETATM    6  C   UNL     1      44.251 -18.056   5.427  1.00  0.00     0.030 A 
HETATM    7  C   UNL     1      44.714 -19.363   5.232  1.00  0.00     0.014 A 
HETATM    8  C   UNL     1      44.398 -20.073   4.065  1.00  0.00    -0.026 A 
HETATM    9  C   UNL     1      44.860 -21.383   3.855  1.00  0.00     0.012 A 
HETATM   10  C   UNL     1      43.598 -19.454   3.081  1.00  0.00    -0.024 A 
HETATM   11  C   UNL     1      44.536 -22.074   2.688  1.00  0.00     0.001 A 
HETATM   12  C   UNL     1      43.746 -21.466   1.716  1.00  0.00     0.001 A 
HETATM   13  C   UNL     1      43.280 -20.165   1.911  1.00  0.00     0.012 A 
HETATM   14  C   UNL     1      43.141 -18.141   3.294  1.00  0.00     0.042 A 
ENDBRANCH   1   5
BRANCH   2  15
HETATM   15  C   UNL     1      41.550 -14.251   5.078  1.00  0.00     0.073 A 
HETATM   16  S   UNL     1      42.505 -13.188   4.138  1.00  0.00    -0.096 SA
HETATM   17  C   UNL     1      41.663 -11.817   4.708  1.00  0.00     0.067 A 
HETATM   18  C   UNL     1      40.656 -12.128   5.607  1.00  0.00     0.039 A 
HETATM   19  C   UNL     1      40.604 -13.550   5.807  1.00  0.00     0.042 A 
BRANCH  18  20
HETATM   20  C   UNL     1      39.823 -11.090   6.209  1.00  0.00     0.249 C 
HETATM   21  N   UNL     1      39.883  -9.854   5.636  1.00  0.00    -0.366 N 
HETATM   22  H   UNL     1      40.464  -9.623   4.847  1.00  0.00     0.159 HD
HETATM   23  H   UNL     1      39.313  -9.127   6.047  1.00  0.00     0.159 HD
HETATM   24  O   UNL     1      39.096 -11.288   7.177  1.00  0.00    -0.268 OA
ENDBRANCH  18  20
ENDBRANCH   2  15
TORSDOF 3
ENDMDL
MODEL 5
REMARK VINA RESULT:      -7.8      1.774      1.999
REMARK  3 active torsions:
REMARK  status: ('A' for Active; 'I' for Inactive)
REMARK    1  A    between atoms: C_9  and  N_10 
REMARK       I    between atoms: N_10  and  C_11 
REMARK    2  A    between atoms: C_11  and  C_12 
REMARK    3  A    between atoms: C_15  and  C_16 
REMARK       I    between atoms: C_16  and  N_17 
ROOT
HETATM    1  N   UNL     1      42.792 -16.463   0.491  1.00  0.00    -0.322 N 
HETATM    2  C   UNL     1      41.545 -15.908   0.258  1.00  0.00     0.263 C 
HETATM    3  O   UNL     1      40.569 -16.053   0.988  1.00  0.00    -0.267 OA
HETATM    4  H   UNL     1      43.494 -16.254  -0.210  1.00  0.00     0.169 HD
ENDROOT
BRANCH   1   5
HETATM    5  C   UNL     1      43.208 -17.262   1.574  1.00  0.00     0.035 A 
HETATM    6  C   UNL     1      43.435 -16.778   2.860  1.00  0.00     0.030 A 
HETATM    7  C   UNL     1      43.858 -17.641   3.879  1.00  0.00     0.014 A 
HETATM    8  C   UNL     1      44.062 -19.005   3.629  1.00  0.00    -0.026 A 
HETATM    9  C   UNL     1      44.491 -19.880   4.640  1.00  0.00     0.012 A 
HETATM   10  C   UNL     1      43.834 -19.506   2.330  1.00  0.00    -0.024 A 
HETATM   11  C   UNL     1      44.691 -21.235   4.374  1.00  0.00     0.001 A 
HETATM   12  C   UNL     1      44.464 -21.731   3.094  1.00  0.00     0.001 A 
HETATM   13  C   UNL     1      44.038 -20.874   2.078  1.00  0.00     0.012 A 
HETATM   14  C   UNL     1      43.409 -18.626   1.319  1.00  0.00     0.042 A 
ENDBRANCH   1   5
BRANCH   2  15
HETATM   15  C   UNL     1      41.454 -15.100  -0.960  1.00  0.00     0.073 A 
HETATM   16  S   UNL     1      40.830 -15.707  -2.433  1.00  0.00    -0.096 SA
HETATM   17  C   UNL     1      41.090 -14.223  -3.235  1.00  0.00     0.067 A 
HETATM   18  C   UNL     1      41.644 -13.250  -2.420  1.00  0.00     0.039 A 
HETATM   19  C   UNL     1      41.846 -13.778  -1.099  1.00  0.00     0.042 A 
BRANCH  18  20
HETATM   20  C   UNL     1      41.943 -11.912  -2.924  1.00  0.00     0.249 C 
HETATM   21  N   UNL     1      41.439 -11.598  -4.151  1.00  0.00    -0.366 N 
HETATM   22  H   UNL     1      40.894 -12.227  -4.717  1.00  0.00     0.159 HD
HETATM   23  H   UNL     1      41.643 -10.675  -4.510  1.00  0.00     0.159 HD
HETATM   24  O   UNL     1      42.608 -11.091  -2.299  1.00  0.00    -0.268 OA
ENDBRANCH  18  20
ENDBRANCH   2  15
TORSDOF 3
ENDMDL
MODEL 6
REMARK VINA RESULT:      -7.7      2.713      2.885
REMARK  3 active torsions:
REMARK  status: ('A' for Active; 'I' for Inactive)
REMARK    1  A    between atoms: C_9  and  N_10 
REMARK       I    between atoms: N_10  and  C_11 
REMARK    2  A    between atoms: C_11  and  C_12 
REMARK    3  A    between atoms: C_15  and  C_16 
REMARK       I    between atoms: C_16  and  N_17 
ROOT
HETATM    1  N   UNL     1      43.105 -16.231   3.367  1.00  0.00    -0.322 N 
HETATM    2  C   UNL     1      41.809 -15.788   3.161  1.00  0.00     0.263 C 
HETATM    3  O   UNL     1      40.809 -16.496   3.233  1.00  0.00    -0.267 OA
HETATM    4  H   UNL     1      43.823 -15.523   3.266  1.00  0.00     0.169 HD
ENDROOT
BRANCH   1   5
HETATM    5  C   UNL     1      43.546 -17.524   3.709  1.00  0.00     0.035 A 
HETATM    6  C   UNL     1      44.036 -17.877   4.964  1.00  0.00     0.030 A 
HETATM    7  C   UNL     1      44.463 -19.187   5.217  1.00  0.00     0.014 A 
HETATM    8  C   UNL     1      44.408 -20.168   4.218  1.00  0.00    -0.026 A 
HETATM    9  C   UNL     1      44.838 -21.484   4.457  1.00  0.00     0.012 A 
HETATM   10  C   UNL     1      43.911 -19.823   2.943  1.00  0.00    -0.024 A 
HETATM   11  C   UNL     1      44.777 -22.448   3.451  1.00  0.00     0.001 A 
HETATM   12  C   UNL     1      44.286 -22.109   2.194  1.00  0.00     0.001 A 
HETATM   13  C   UNL     1      43.855 -20.806   1.940  1.00  0.00     0.012 A 
HETATM   14  C   UNL     1      43.486 -18.503   2.706  1.00  0.00     0.042 A 
ENDBRANCH   1   5
BRANCH   2  15
HETATM   15  C   UNL     1      41.694 -14.363   2.843  1.00  0.00     0.073 A 
HETATM   16  S   UNL     1      40.984 -13.229   3.909  1.00  0.00    -0.096 SA
HETATM   17  C   UNL     1      41.244 -11.940   2.821  1.00  0.00     0.067 A 
HETATM   18  C   UNL     1      41.865 -12.331   1.647  1.00  0.00     0.039 A 
HETATM   19  C   UNL     1      42.121 -13.745   1.680  1.00  0.00     0.042 A 
BRANCH  18  20
HETATM   20  C   UNL     1      42.171 -11.372   0.589  1.00  0.00     0.249 C 
HETATM   21  N   UNL     1      41.818 -10.076   0.822  1.00  0.00    -0.366 N 
HETATM   22  H   UNL     1      41.360  -9.756   1.660  1.00  0.00     0.159 HD
HETATM   23  H   UNL     1      42.023  -9.405   0.095  1.00  0.00     0.159 HD
HETATM   24  O   UNL     1      42.718 -11.684  -0.464  1.00  0.00    -0.268 OA
ENDBRANCH  18  20
ENDBRANCH   2  15
TORSDOF 3
ENDMDL
MODEL 7
REMARK VINA RESULT:      -7.6      2.401      3.068
REMARK  3 active torsions:
REMARK  status: ('A' for Active; 'I' for Inactive)
REMARK    1  A    between atoms: C_9  and  N_10 
REMARK       I    between atoms: N_10  and  C_11 
REMARK    2  A    between atoms: C_11  and  C_12 
REMARK    3  A    between atoms: C_15  and  C_16 
REMARK       I    between atoms: C_16  and  N_17 
ROOT
HETATM    1  N   UNL     1      40.796 -16.367   0.412  1.00  0.00    -0.322 N 
HETATM    2  C   UNL     1      41.111 -15.161  -0.192  1.00  0.00     0.263 C 
HETATM    3  O   UNL     1      41.937 -14.361   0.237  1.00  0.00    -0.267 OA
HETATM    4  H   UNL     1      40.087 -16.914  -0.064  1.00  0.00     0.169 HD
ENDROOT
BRANCH   1   5
HETATM    5  C   UNL     1      41.338 -16.930   1.583  1.00  0.00     0.035 A 
HETATM    6  C   UNL     1      40.918 -16.610   2.872  1.00  0.00     0.030 A 
HETATM    7  C   UNL     1      41.519 -17.212   3.985  1.00  0.00     0.014 A 
HETATM    8  C   UNL     1      42.554 -18.144   3.829  1.00  0.00    -0.026 A 
HETATM    9  C   UNL     1      43.168 -18.751   4.936  1.00  0.00     0.012 A 
HETATM   10  C   UNL     1      42.986 -18.478   2.528  1.00  0.00    -0.024 A 
HETATM   11  C   UNL     1      44.197 -19.676   4.762  1.00  0.00     0.001 A 
HETATM   12  C   UNL     1      44.624 -20.008   3.480  1.00  0.00     0.001 A 
HETATM   13  C   UNL     1      44.023 -19.413   2.369  1.00  0.00     0.012 A 
HETATM   14  C   UNL     1      42.371 -17.865   1.421  1.00  0.00     0.042 A 
ENDBRANCH   1   5
BRANCH   2  15
HETATM   15  C   UNL     1      40.374 -14.885  -1.427  1.00  0.00     0.073 A 
HETATM   16  S   UNL     1      40.812 -15.555  -2.938  1.00  0.00    -0.096 SA
HETATM   17  C   UNL     1      39.532 -14.759  -3.739  1.00  0.00     0.067 A 
HETATM   18  C   UNL     1      38.756 -13.982  -2.896  1.00  0.00     0.039 A 
HETATM   19  C   UNL     1      39.260 -14.071  -1.553  1.00  0.00     0.042 A 
BRANCH  18  20
HETATM   20  C   UNL     1      37.614 -13.221  -3.394  1.00  0.00     0.249 C 
HETATM   21  N   UNL     1      36.988 -13.717  -4.499  1.00  0.00    -0.366 N 
HETATM   22  H   UNL     1      37.271 -14.554  -4.982  1.00  0.00     0.159 HD
HETATM   23  H   UNL     1      36.198 -13.196  -4.854  1.00  0.00     0.159 HD
HETATM   24  O   UNL     1      37.213 -12.187  -2.867  1.00  0.00    -0.268 OA
ENDBRANCH  18  20
ENDBRANCH   2  15
TORSDOF 3
ENDMDL
MODEL 8
REMARK VINA RESULT:      -7.5      3.434      3.931
REMARK  3 active torsions:
REMARK  status: ('A' for Active; 'I' for Inactive)
REMARK    1  A    between atoms: C_9  and  N_10 
REMARK       I    between atoms: N_10  and  C_11 
REMARK    2  A    between atoms: C_11  and  C_12 
REMARK    3  A    between atoms: C_15  and  C_16 
REMARK       I    between atoms: C_16  and  N_17 
ROOT
HETATM    1  N   UNL     1      43.045 -16.772   3.244  1.00  0.00    -0.322 N 
HETATM    2  C   UNL     1      41.898 -16.240   3.809  1.00  0.00     0.263 C 
HETATM    3  O   UNL     1      40.958 -16.904   4.236  1.00  0.00    -0.267 OA
HETATM    4  H   UNL     1      43.728 -16.090   2.935  1.00  0.00     0.169 HD
ENDROOT
BRANCH   1   5
HETATM    5  C   UNL     1      43.386 -18.126   3.059  1.00  0.00     0.035 A 
HETATM    6  C   UNL     1      43.265 -18.804   1.848  1.00  0.00     0.030 A 
HETATM    7  C   UNL     1      43.618 -20.155   1.753  1.00  0.00     0.014 A 
HETATM    8  C   UNL     1      44.098 -20.855   2.868  1.00  0.00    -0.026 A 
HETATM    9  C   UNL     1      44.451 -22.212   2.788  1.00  0.00     0.012 A 
HETATM   10  C   UNL     1      44.226 -20.178   4.100  1.00  0.00    -0.024 A 
HETATM   11  C   UNL     1      44.926 -22.893   3.909  1.00  0.00     0.001 A 
HETATM   12  C   UNL     1      45.054 -22.226   5.124  1.00  0.00     0.001 A 
HETATM   13  C   UNL     1      44.707 -20.878   5.220  1.00  0.00     0.012 A 
HETATM   14  C   UNL     1      43.868 -18.820   4.178  1.00  0.00     0.042 A 
ENDBRANCH   1   5
BRANCH   2  15
HETATM   15  C   UNL     1      41.871 -14.777   3.876  1.00  0.00     0.073 A 
HETATM   16  S   UNL     1      42.631 -13.891   5.127  1.00  0.00    -0.096 SA
HETATM   17  C   UNL     1      42.127 -12.399   4.470  1.00  0.00     0.067 A 
HETATM   18  C   UNL     1      41.386 -12.534   3.308  1.00  0.00     0.039 A 
HETATM   19  C   UNL     1      41.250 -13.926   2.977  1.00  0.00     0.042 A 
BRANCH  18  20
HETATM   20  C   UNL     1      40.861 -11.371   2.597  1.00  0.00     0.249 C 
HETATM   21  N   UNL     1      41.682 -10.807   1.666  1.00  0.00    -0.366 N 
HETATM   22  H   UNL     1      42.611 -11.136   1.456  1.00  0.00     0.159 HD
HETATM   23  H   UNL     1      41.330  -9.999   1.170  1.00  0.00     0.159 HD
HETATM   24  O   UNL     1      39.745 -10.904   2.802  1.00  0.00    -0.268 OA
ENDBRANCH  18  20
ENDBRANCH   2  15
TORSDOF 3
ENDMDL
MODEL 9
REMARK VINA RESULT:      -7.4      2.482      2.568
REMARK  3 active torsions:
REMARK  status: ('A' for Active; 'I' for Inactive)
REMARK    1  A    between atoms: C_9  and  N_10 
REMARK       I    between atoms: N_10  and  C_11 
REMARK    2  A    between atoms: C_11  and  C_12 
REMARK    3  A    between atoms: C_15  and  C_16 
REMARK       I    between atoms: C_16  and  N_17 
ROOT
HETATM    1  N   UNL     1      42.010 -16.616   2.499  1.00  0.00    -0.322 N 
HETATM    2  C   UNL     1      42.423 -15.303   2.344  1.00  0.00     0.263 C 
HETATM    3  O   UNL     1      43.520 -14.871   2.687  1.00  0.00    -0.267 OA
HETATM    4  H   UNL     1      41.072 -16.814   2.170  1.00  0.00     0.169 HD
ENDROOT
BRANCH   1   5
HETATM    5  C   UNL     1      42.725 -17.702   3.039  1.00  0.00     0.035 A 
HETATM    6  C   UNL     1      43.290 -17.712   4.312  1.00  0.00     0.030 A 
HETATM    7  C   UNL     1      43.995 -18.833   4.768  1.00  0.00     0.014 A 
HETATM    8  C   UNL     1      44.148 -19.966   3.958  1.00  0.00    -0.026 A 
HETATM    9  C   UNL     1      44.856 -21.095   4.402  1.00  0.00     0.012 A 
HETATM   10  C   UNL     1      43.578 -19.969   2.667  1.00  0.00    -0.024 A 
HETATM   11  C   UNL     1      45.000 -22.214   3.581  1.00  0.00     0.001 A 
HETATM   12  C   UNL     1      44.437 -22.219   2.309  1.00  0.00     0.001 A 
HETATM   13  C   UNL     1      43.730 -21.105   1.854  1.00  0.00     0.012 A 
HETATM   14  C   UNL     1      42.873 -18.835   2.225  1.00  0.00     0.042 A 
ENDBRANCH   1   5
BRANCH   2  15
HETATM   15  C   UNL     1      41.436 -14.422   1.716  1.00  0.00     0.073 A 
HETATM   16  S   UNL     1      41.671 -12.736   1.548  1.00  0.00    -0.096 SA
HETATM   17  C   UNL     1      40.157 -12.531   0.788  1.00  0.00     0.067 A 
HETATM   18  C   UNL     1      39.451 -13.714   0.645  1.00  0.00     0.039 A 
HETATM   19  C   UNL     1      40.213 -14.804   1.189  1.00  0.00     0.042 A 
BRANCH  18  20
HETATM   20  C   UNL     1      38.131 -13.745   0.020  1.00  0.00     0.249 C 
HETATM   21  N   UNL     1      37.078 -14.032   0.838  1.00  0.00    -0.366 N 
HETATM   22  H   UNL     1      37.162 -14.228   1.822  1.00  0.00     0.159 HD
HETATM   23  H   UNL     1      36.160 -14.059   0.414  1.00  0.00     0.159 HD
HETATM   24  O   UNL     1      37.947 -13.528  -1.173  1.00  0.00    -0.268 OA
ENDBRANCH  18  20
ENDBRANCH   2  15
TORSDOF 3
ENDMDL
MODEL 10
REMARK VINA RESULT:      -7.4      4.938      6.476
REMARK  3 active torsions:
REMARK  status: ('A' for Active; 'I' for Inactive)
REMARK    1  A    between atoms: C_9  and  N_10 
REMARK       I    between atoms: N_10  and  C_11 
REMARK    2  A    between atoms: C_11  and  C_12 
REMARK    3  A    between atoms: C_15  and  C_16 
REMARK       I    between atoms: C_16  and  N_17 
ROOT
HETATM    1  N   UNL     1      41.491 -14.968   4.472  1.00  0.00    -0.322 N 
HETATM    2  C   UNL     1      41.832 -13.659   4.178  1.00  0.00     0.263 C 
HETATM    3  O   UNL     1      42.597 -13.321   3.279  1.00  0.00    -0.267 OA
HETATM    4  H   UNL     1      40.850 -15.082   5.249  1.00  0.00     0.169 HD
ENDROOT
BRANCH   1   5
HETATM    5  C   UNL     1      41.907 -16.149   3.827  1.00  0.00     0.035 A 
HETATM    6  C   UNL     1      41.421 -16.580   2.595  1.00  0.00     0.030 A 
HETATM    7  C   UNL     1      41.883 -17.774   2.028  1.00  0.00     0.014 A 
HETATM    8  C   UNL     1      42.840 -18.561   2.684  1.00  0.00    -0.026 A 
HETATM    9  C   UNL     1      43.308 -19.763   2.128  1.00  0.00     0.012 A 
HETATM   10  C   UNL     1      43.341 -18.133   3.931  1.00  0.00    -0.024 A 
HETATM   11  C   UNL     1      44.261 -20.533   2.795  1.00  0.00     0.001 A 
HETATM   12  C   UNL     1      44.757 -20.112   4.025  1.00  0.00     0.001 A 
HETATM   13  C   UNL     1      44.302 -18.920   4.590  1.00  0.00     0.012 A 
HETATM   14  C   UNL     1      42.867 -16.931   4.487  1.00  0.00     0.042 A 
ENDBRANCH   1   5
BRANCH   2  15
HETATM   15  C   UNL     1      41.196 -12.655   5.034  1.00  0.00     0.073 A 
HETATM   16  S   UNL     1      41.269 -10.977   4.708  1.00  0.00    -0.096 SA
HETATM   17  C   UNL     1      40.353 -10.598   6.097  1.00  0.00     0.067 A 
HETATM   18  C   UNL     1      39.976 -11.713   6.826  1.00  0.00     0.039 A 
HETATM   19  C   UNL     1      40.474 -12.901   6.190  1.00  0.00     0.042 A 
BRANCH  18  20
HETATM   20  C   UNL     1      39.189 -11.594   8.051  1.00  0.00     0.249 C 
HETATM   21  N   UNL     1      38.893 -12.757   8.698  1.00  0.00    -0.366 N 
HETATM   22  H   UNL     1      39.174 -13.670   8.379  1.00  0.00     0.159 HD
HETATM   23  H   UNL     1      38.345 -12.686   9.545  1.00  0.00     0.159 HD
HETATM   24  O   UNL     1      38.800 -10.520   8.499  1.00  0.00    -0.268 OA
ENDBRANCH  18  20
ENDBRANCH   2  15
TORSDOF 3
ENDMDL
