MODEL 1
REMARK VINA RESULT:      -8.7      0.000      0.000
REMARK  5 active torsions:
REMARK  status: ('A' for Active; 'I' for Inactive)
REMARK    1  A    between atoms: C_4  and  C_5 
REMARK    2  A    between atoms: C_5  and  C_6 
REMARK    3  A    between atoms: C_6  and  C_7 
REMARK       I    between atoms: C_7  and  N_8 
REMARK    4  A    between atoms: N_8  and  C_9 
REMARK    5  A    between atoms: C_16  and  C_17 
REMARK       I    between atoms: C_17  and  N_18 
ROOT
HETATM    1  C   UNL     1      40.505 -15.095   1.263  1.00  0.00     0.035 A 
HETATM    2  C   UNL     1      40.861 -14.885  -0.076  1.00  0.00     0.046 A 
HETATM    3  C   UNL     1      39.951 -14.241  -0.945  1.00  0.00     0.030 A 
HETATM    4  C   UNL     1      38.720 -13.833  -0.445  1.00  0.00     0.063 A 
HETATM    5  N   UNL     1      38.069 -13.264  -1.503  1.00  0.00    -0.277 N 
HETATM    6  H   UNL     1      37.140 -12.860  -1.507  1.00  0.00     0.189 HD
HETATM    7  N   UNL     1      38.770 -13.255  -2.649  1.00  0.00    -0.168 NA
HETATM    8  C   UNL     1      39.937 -13.855  -2.319  1.00  0.00     0.156 A 
HETATM    9  C   UNL     1      38.336 -14.022   0.883  1.00  0.00     0.034 A 
HETATM   10  C   UNL     1      39.257 -14.658   1.725  1.00  0.00     0.032 A 
ENDROOT
BRANCH   1  11
HETATM   11  N   UNL     1      41.332 -15.749   2.200  1.00  0.00    -0.326 N 
HETATM   12  C   UNL     1      41.627 -17.093   2.270  1.00  0.00     0.231 C 
HETATM   13  O   UNL     1      41.294 -17.974   1.493  1.00  0.00    -0.272 OA
HETATM   14  H   UNL     1      41.730 -15.171   2.928  1.00  0.00     0.169 HD
BRANCH  12  15
HETATM   15  C   UNL     1      42.465 -17.443   3.479  1.00  0.00     0.045 A 
HETATM   16  C   UNL     1      41.708 -18.079   4.649  1.00  0.00     0.020 A 
HETATM   17  C   UNL     1      42.209 -16.676   4.774  1.00  0.00     0.020 A 
BRANCH  15  18
HETATM   18  C   UNL     1      43.885 -17.936   3.216  1.00  0.00     0.057 C 
BRANCH  18  19
HETATM   19  C   UNL     1      44.045 -19.440   3.163  1.00  0.00    -0.057 A 
HETATM   20  C   UNL     1      44.616 -20.181   4.205  1.00  0.00     0.007 A 
HETATM   21  C   UNL     1      44.799 -21.563   4.084  1.00  0.00     0.001 A 
HETATM   22  C   UNL     1      44.434 -22.219   2.913  1.00  0.00     0.000 A 
HETATM   23  C   UNL     1      43.883 -21.495   1.859  1.00  0.00     0.001 A 
HETATM   24  C   UNL     1      43.694 -20.117   1.982  1.00  0.00     0.007 A 
ENDBRANCH  18  19
ENDBRANCH  15  18
ENDBRANCH  12  15
ENDBRANCH   1  11
BRANCH   8  25
HETATM   25  C   UNL     1      41.001 -14.044  -3.316  1.00  0.00     0.270 C 
HETATM   26  N   UNL     1      41.638 -12.887  -3.678  1.00  0.00    -0.365 N 
HETATM   27  H   UNL     1      41.345 -12.018  -3.248  1.00  0.00     0.159 HD
HETATM   28  H   UNL     1      42.386 -12.920  -4.352  1.00  0.00     0.159 HD
HETATM   29  O   UNL     1      41.322 -15.122  -3.803  1.00  0.00    -0.266 OA
ENDBRANCH   8  25
TORSDOF 5
ENDMDL
MODEL 2
REMARK VINA RESULT:      -8.7      3.165      5.255
REMARK  5 active torsions:
REMARK  status: ('A' for Active; 'I' for Inactive)
REMARK    1  A    between atoms: C_4  and  C_5 
REMARK    2  A    between atoms: C_5  and  C_6 
REMARK    3  A    between atoms: C_6  and  C_7 
REMARK       I    between atoms: C_7  and  N_8 
REMARK    4  A    between atoms: N_8  and  C_9 
REMARK    5  A    between atoms: C_16  and  C_17 
REMARK       I    between atoms: C_17  and  N_18 
ROOT
HETATM    1  C   UNL     1      41.716 -17.475   2.861  1.00  0.00     0.035 A 
HETATM    2  C   UNL     1      41.627 -16.478   3.842  1.00  0.00     0.046 A 
HETATM    3  C   UNL     1      40.833 -15.334   3.601  1.00  0.00     0.030 A 
HETATM    4  C   UNL     1      40.160 -15.226   2.390  1.00  0.00     0.063 A 
HETATM    5  N   UNL     1      39.500 -14.031   2.446  1.00  0.00    -0.277 N 
HETATM    6  H   UNL     1      38.910 -13.622   1.731  1.00  0.00     0.189 HD
HETATM    7  N   UNL     1      39.674 -13.352   3.592  1.00  0.00    -0.168 NA
HETATM    8  C   UNL     1      40.496 -14.145   4.317  1.00  0.00     0.156 A 
HETATM    9  C   UNL     1      40.222 -16.202   1.394  1.00  0.00     0.034 A 
HETATM   10  C   UNL     1      41.011 -17.329   1.659  1.00  0.00     0.032 A 
ENDROOT
BRANCH   1  11
HETATM   11  N   UNL     1      42.499 -18.639   2.997  1.00  0.00    -0.326 N 
HETATM   12  C   UNL     1      43.732 -18.896   2.434  1.00  0.00     0.231 C 
HETATM   13  O   UNL     1      44.423 -18.141   1.770  1.00  0.00    -0.272 OA
HETATM   14  H   UNL     1      42.098 -19.390   3.542  1.00  0.00     0.169 HD
BRANCH  12  15
HETATM   15  C   UNL     1      44.218 -20.300   2.717  1.00  0.00     0.045 A 
HETATM   16  C   UNL     1      44.421 -21.190   1.486  1.00  0.00     0.020 A 
HETATM   17  C   UNL     1      43.276 -21.460   2.408  1.00  0.00     0.020 A 
BRANCH  15  18
HETATM   18  C   UNL     1      45.199 -20.472   3.873  1.00  0.00     0.057 C 
BRANCH  18  19
HETATM   19  C   UNL     1      44.734 -19.913   5.201  1.00  0.00    -0.057 A 
HETATM   20  C   UNL     1      45.054 -18.621   5.636  1.00  0.00     0.007 A 
HETATM   21  C   UNL     1      44.653 -18.171   6.899  1.00  0.00     0.001 A 
HETATM   22  C   UNL     1      43.944 -19.013   7.751  1.00  0.00     0.000 A 
HETATM   23  C   UNL     1      43.635 -20.307   7.342  1.00  0.00     0.001 A 
HETATM   24  C   UNL     1      44.029 -20.754   6.079  1.00  0.00     0.007 A 
ENDBRANCH  18  19
ENDBRANCH  15  18
ENDBRANCH  12  15
ENDBRANCH   1  11
BRANCH   8  25
HETATM   25  C   UNL     1      40.935 -13.752   5.664  1.00  0.00     0.270 C 
HETATM   26  N   UNL     1      39.975 -13.901   6.629  1.00  0.00    -0.365 N 
HETATM   27  H   UNL     1      39.068 -14.260   6.358  1.00  0.00     0.159 HD
HETATM   28  H   UNL     1      40.188 -13.663   7.584  1.00  0.00     0.159 HD
HETATM   29  O   UNL     1      42.051 -13.327   5.941  1.00  0.00    -0.266 OA
ENDBRANCH   8  25
TORSDOF 5
ENDMDL
MODEL 3
REMARK VINA RESULT:      -8.6      1.299      1.918
REMARK  5 active torsions:
REMARK  status: ('A' for Active; 'I' for Inactive)
REMARK    1  A    between atoms: C_4  and  C_5 
REMARK    2  A    between atoms: C_5  and  C_6 
REMARK    3  A    between atoms: C_6  and  C_7 
REMARK       I    between atoms: C_7  and  N_8 
REMARK    4  A    between atoms: N_8  and  C_9 
REMARK    5  A    between atoms: C_16  and  C_17 
REMARK       I    between atoms: C_17  and  N_18 
ROOT
HETATM    1  C   UNL     1      39.932 -14.987   1.647  1.00  0.00     0.035 A 
HETATM    2  C   UNL     1      40.575 -14.911   0.404  1.00  0.00     0.046 A 
HETATM    3  C   UNL     1      39.880 -14.388  -0.709  1.00  0.00     0.030 A 
HETATM    4  C   UNL     1      38.568 -13.962  -0.541  1.00  0.00     0.063 A 
HETATM    5  N   UNL     1      38.167 -13.526  -1.773  1.00  0.00    -0.277 N 
HETATM    6  H   UNL     1      37.260 -13.150  -2.025  1.00  0.00     0.189 HD
HETATM    7  N   UNL     1      39.105 -13.620  -2.729  1.00  0.00    -0.168 NA
HETATM    8  C   UNL     1      40.171 -14.151  -2.087  1.00  0.00     0.156 A 
HETATM    9  C   UNL     1      37.898 -14.019   0.682  1.00  0.00     0.034 A 
HETATM   10  C   UNL     1      38.611 -14.537   1.771  1.00  0.00     0.032 A 
ENDROOT
BRANCH   1  11
HETATM   11  N   UNL     1      40.532 -15.515   2.808  1.00  0.00    -0.326 N 
HETATM   12  C   UNL     1      41.754 -15.182   3.352  1.00  0.00     0.231 C 
HETATM   13  O   UNL     1      42.527 -14.313   2.981  1.00  0.00    -0.272 OA
HETATM   14  H   UNL     1      40.023 -16.249   3.282  1.00  0.00     0.169 HD
BRANCH  12  15
HETATM   15  C   UNL     1      42.112 -16.039   4.545  1.00  0.00     0.045 A 
HETATM   16  C   UNL     1      42.017 -15.348   5.909  1.00  0.00     0.020 A 
HETATM   17  C   UNL     1      43.361 -15.671   5.342  1.00  0.00     0.020 A 
BRANCH  15  18
HETATM   18  C   UNL     1      41.721 -17.512   4.480  1.00  0.00     0.057 C 
BRANCH  18  19
HETATM   19  C   UNL     1      42.730 -18.417   3.806  1.00  0.00    -0.057 A 
HETATM   20  C   UNL     1      42.720 -18.675   2.429  1.00  0.00     0.007 A 
HETATM   21  C   UNL     1      43.635 -19.568   1.861  1.00  0.00     0.001 A 
HETATM   22  C   UNL     1      44.559 -20.230   2.664  1.00  0.00     0.000 A 
HETATM   23  C   UNL     1      44.571 -20.000   4.036  1.00  0.00     0.001 A 
HETATM   24  C   UNL     1      43.662 -19.105   4.603  1.00  0.00     0.007 A 
ENDBRANCH  18  19
ENDBRANCH  15  18
ENDBRANCH  12  15
ENDBRANCH   1  11
BRANCH   8  25
HETATM   25  C   UNL     1      41.430 -14.415  -2.797  1.00  0.00     0.270 C 
HETATM   26  N   UNL     1      42.455 -13.577  -2.448  1.00  0.00    -0.365 N 
HETATM   27  H   UNL     1      42.281 -12.864  -1.749  1.00  0.00     0.159 HD
HETATM   28  H   UNL     1      43.358 -13.687  -2.879  1.00  0.00     0.159 HD
HETATM   29  O   UNL     1      41.590 -15.297  -3.633  1.00  0.00    -0.266 OA
ENDBRANCH   8  25
TORSDOF 5
ENDMDL
MODEL 4
REMARK VINA RESULT:      -8.4      2.091      2.938
REMARK  5 active torsions:
REMARK  status: ('A' for Active; 'I' for Inactive)
REMARK    1  A    between atoms: C_4  and  C_5 
REMARK    2  A    between atoms: C_5  and  C_6 
REMARK    3  A    between atoms: C_6  and  C_7 
REMARK       I    between atoms: C_7  and  N_8 
REMARK    4  A    between atoms: N_8  and  C_9 
REMARK    5  A    between atoms: C_16  and  C_17 
REMARK       I    between atoms: C_17  and  N_18 
ROOT
HETATM    1  C   UNL     1      41.936 -15.788   3.982  1.00  0.00     0.035 A 
HETATM    2  C   UNL     1      41.864 -15.630   2.591  1.00  0.00     0.046 A 
HETATM    3  C   UNL     1      40.857 -14.809   2.035  1.00  0.00     0.030 A 
HETATM    4  C   UNL     1      39.957 -14.181   2.887  1.00  0.00     0.063 A 
HETATM    5  N   UNL     1      39.113 -13.480   2.072  1.00  0.00    -0.277 N 
HETATM    6  H   UNL     1      38.327 -12.906   2.351  1.00  0.00     0.189 HD
HETATM    7  N   UNL     1      39.388 -13.589   0.761  1.00  0.00    -0.168 NA
HETATM    8  C   UNL     1      40.465 -14.407   0.723  1.00  0.00     0.156 A 
HETATM    9  C   UNL     1      40.003 -14.312   4.276  1.00  0.00     0.034 A 
HETATM   10  C   UNL     1      41.013 -15.126   4.803  1.00  0.00     0.032 A 
ENDROOT
BRANCH   1  11
HETATM   11  N   UNL     1      42.887 -16.603   4.629  1.00  0.00    -0.326 N 
HETATM   12  C   UNL     1      42.699 -17.863   5.155  1.00  0.00     0.231 C 
HETATM   13  O   UNL     1      41.695 -18.555   5.100  1.00  0.00    -0.272 OA
HETATM   14  H   UNL     1      43.808 -16.205   4.754  1.00  0.00     0.169 HD
BRANCH  12  15
HETATM   15  C   UNL     1      43.925 -18.383   5.872  1.00  0.00     0.045 A 
HETATM   16  C   UNL     1      43.665 -19.075   7.213  1.00  0.00     0.020 A 
HETATM   17  C   UNL     1      44.314 -17.729   7.195  1.00  0.00     0.020 A 
BRANCH  15  18
HETATM   18  C   UNL     1      45.047 -18.945   5.002  1.00  0.00     0.057 C 
BRANCH  18  19
HETATM   19  C   UNL     1      44.623 -20.010   4.014  1.00  0.00    -0.057 A 
HETATM   20  C   UNL     1      44.807 -21.379   4.246  1.00  0.00     0.007 A 
HETATM   21  C   UNL     1      44.456 -22.324   3.276  1.00  0.00     0.001 A 
HETATM   22  C   UNL     1      43.936 -21.912   2.053  1.00  0.00     0.000 A 
HETATM   23  C   UNL     1      43.764 -20.555   1.797  1.00  0.00     0.001 A 
HETATM   24  C   UNL     1      44.109 -19.612   2.768  1.00  0.00     0.007 A 
ENDBRANCH  18  19
ENDBRANCH  15  18
ENDBRANCH  12  15
ENDBRANCH   1  11
BRANCH   8  25
HETATM   25  C   UNL     1      41.087 -14.781  -0.556  1.00  0.00     0.270 C 
HETATM   26  N   UNL     1      40.950 -16.104  -0.878  1.00  0.00    -0.365 N 
HETATM   27  H   UNL     1      40.446 -16.708  -0.240  1.00  0.00     0.159 HD
HETATM   28  H   UNL     1      41.340 -16.450  -1.740  1.00  0.00     0.159 HD
HETATM   29  O   UNL     1      41.683 -14.007  -1.296  1.00  0.00    -0.266 OA
ENDBRANCH   8  25
TORSDOF 5
ENDMDL
MODEL 5
REMARK VINA RESULT:      -8.4      3.009      8.434
REMARK  5 active torsions:
REMARK  status: ('A' for Active; 'I' for Inactive)
REMARK    1  A    between atoms: C_4  and  C_5 
REMARK    2  A    between atoms: C_5  and  C_6 
REMARK    3  A    between atoms: C_6  and  C_7 
REMARK       I    between atoms: C_7  and  N_8 
REMARK    4  A    between atoms: N_8  and  C_9 
REMARK    5  A    between atoms: C_16  and  C_17 
REMARK       I    between atoms: C_17  and  N_18 
ROOT
HETATM    1  C   UNL     1      42.725 -17.396   2.896  1.00  0.00     0.035 A 
HETATM    2  C   UNL     1      42.882 -17.770   4.237  1.00  0.00     0.046 A 
HETATM    3  C   UNL     1      43.624 -18.929   4.555  1.00  0.00     0.030 A 
HETATM    4  C   UNL     1      44.180 -19.674   3.522  1.00  0.00     0.063 A 
HETATM    5  N   UNL     1      44.816 -20.720   4.130  1.00  0.00    -0.277 N 
HETATM    6  H   UNL     1      45.329 -21.471   3.682  1.00  0.00     0.189 HD
HETATM    7  N   UNL     1      44.733 -20.719   5.471  1.00  0.00    -0.168 NA
HETATM    8  C   UNL     1      43.999 -19.617   5.749  1.00  0.00     0.156 A 
HETATM    9  C   UNL     1      44.048 -19.329   2.177  1.00  0.00     0.034 A 
HETATM   10  C   UNL     1      43.313 -18.172   1.888  1.00  0.00     0.032 A 
ENDROOT
BRANCH   1  11
HETATM   11  N   UNL     1      41.984 -16.273   2.477  1.00  0.00    -0.326 N 
HETATM   12  C   UNL     1      40.672 -16.239   2.055  1.00  0.00     0.231 C 
HETATM   13  O   UNL     1      39.869 -17.157   2.032  1.00  0.00    -0.272 OA
HETATM   14  H   UNL     1      42.480 -15.392   2.449  1.00  0.00     0.169 HD
BRANCH  12  15
HETATM   15  C   UNL     1      40.250 -14.866   1.580  1.00  0.00     0.045 A 
HETATM   16  C   UNL     1      39.531 -13.998   2.617  1.00  0.00     0.020 A 
HETATM   17  C   UNL     1      38.755 -14.572   1.475  1.00  0.00     0.020 A 
BRANCH  15  18
HETATM   18  C   UNL     1      41.182 -14.157   0.601  1.00  0.00     0.057 C 
BRANCH  18  19
HETATM   19  C   UNL     1      40.830 -14.328  -0.861  1.00  0.00    -0.057 A 
HETATM   20  C   UNL     1      40.168 -13.343  -1.604  1.00  0.00     0.007 A 
HETATM   21  C   UNL     1      39.808 -13.571  -2.936  1.00  0.00     0.001 A 
HETATM   22  C   UNL     1      40.089 -14.793  -3.539  1.00  0.00     0.000 A 
HETATM   23  C   UNL     1      40.729 -15.791  -2.810  1.00  0.00     0.001 A 
HETATM   24  C   UNL     1      41.094 -15.562  -1.481  1.00  0.00     0.007 A 
ENDBRANCH  18  19
ENDBRANCH  15  18
ENDBRANCH  12  15
ENDBRANCH   1  11
BRANCH   8  25
HETATM   25  C   UNL     1      43.678 -19.250   7.136  1.00  0.00     0.270 C 
HETATM   26  N   UNL     1      43.612 -20.315   7.994  1.00  0.00    -0.365 N 
HETATM   27  H   UNL     1      43.786 -21.243   7.628  1.00  0.00     0.159 HD
HETATM   28  H   UNL     1      43.404 -20.159   8.967  1.00  0.00     0.159 HD
HETATM   29  O   UNL     1      43.481 -18.106   7.530  1.00  0.00    -0.266 OA
ENDBRANCH   8  25
TORSDOF 5
ENDMDL
MODEL 6
REMARK VINA RESULT:      -8.4      2.922      8.036
REMARK  5 active torsions:
REMARK  status: ('A' for Active; 'I' for Inactive)
REMARK    1  A    between atoms: C_4  and  C_5 
REMARK    2  A    between atoms: C_5  and  C_6 
REMARK    3  A    between atoms: C_6  and  C_7 
REMARK       I    between atoms: C_7  and  N_8 
REMARK    4  A    between atoms: N_8  and  C_9 
REMARK    5  A    between atoms: C_16  and  C_17 
REMARK       I    between atoms: C_17  and  N_18 
ROOT
HETATM    1  C   UNL     1      40.722 -16.338   1.795  1.00  0.00     0.035 A 
HETATM    2  C   UNL     1      40.822 -16.395   3.192  1.00  0.00     0.046 A 
HETATM    3  C   UNL     1      41.716 -17.314   3.788  1.00  0.00     0.030 A 
HETATM    4  C   UNL     1      42.473 -18.142   2.969  1.00  0.00     0.063 A 
HETATM    5  N   UNL     1      43.218 -18.911   3.818  1.00  0.00    -0.277 N 
HETATM    6  H   UNL     1      43.883 -19.633   3.568  1.00  0.00     0.189 HD
HETATM    7  N   UNL     1      43.021 -18.651   5.121  1.00  0.00    -0.168 NA
HETATM    8  C   UNL     1      42.095 -17.665   5.119  1.00  0.00     0.156 A 
HETATM    9  C   UNL     1      42.401 -18.108   1.576  1.00  0.00     0.034 A 
HETATM   10  C   UNL     1      41.513 -17.186   1.008  1.00  0.00     0.032 A 
ENDROOT
BRANCH   1  11
HETATM   11  N   UNL     1      39.844 -15.475   1.108  1.00  0.00    -0.326 N 
HETATM   12  C   UNL     1      39.947 -14.108   0.964  1.00  0.00     0.231 C 
HETATM   13  O   UNL     1      40.855 -13.382   1.336  1.00  0.00    -0.272 OA
HETATM   14  H   UNL     1      39.023 -15.901   0.701  1.00  0.00     0.169 HD
BRANCH  12  15
HETATM   15  C   UNL     1      38.756 -13.507   0.251  1.00  0.00     0.045 A 
HETATM   16  C   UNL     1      37.802 -12.691   1.128  1.00  0.00     0.020 A 
HETATM   17  C   UNL     1      37.367 -14.026   0.614  1.00  0.00     0.020 A 
BRANCH  15  18
HETATM   18  C   UNL     1      38.981 -13.020  -1.178  1.00  0.00     0.057 C 
BRANCH  18  19
HETATM   19  C   UNL     1      38.999 -14.106  -2.233  1.00  0.00    -0.057 A 
HETATM   20  C   UNL     1      37.864 -14.473  -2.966  1.00  0.00     0.007 A 
HETATM   21  C   UNL     1      37.915 -15.526  -3.886  1.00  0.00     0.001 A 
HETATM   22  C   UNL     1      39.097 -16.237  -4.072  1.00  0.00     0.000 A 
HETATM   23  C   UNL     1      40.229 -15.899  -3.338  1.00  0.00     0.001 A 
HETATM   24  C   UNL     1      40.180 -14.844  -2.423  1.00  0.00     0.007 A 
ENDBRANCH  18  19
ENDBRANCH  15  18
ENDBRANCH  12  15
ENDBRANCH   1  11
BRANCH   8  25
HETATM   25  C   UNL     1      41.601 -17.086   6.377  1.00  0.00     0.270 C 
HETATM   26  N   UNL     1      40.238 -16.967   6.439  1.00  0.00    -0.365 N 
HETATM   27  H   UNL     1      39.689 -17.277   5.647  1.00  0.00     0.159 HD
HETATM   28  H   UNL     1      39.809 -16.587   7.267  1.00  0.00     0.159 HD
HETATM   29  O   UNL     1      42.311 -16.731   7.311  1.00  0.00    -0.266 OA
ENDBRANCH   8  25
TORSDOF 5
ENDMDL
MODEL 7
REMARK VINA RESULT:      -8.4      3.019      8.330
REMARK  5 active torsions:
REMARK  status: ('A' for Active; 'I' for Inactive)
REMARK    1  A    between atoms: C_4  and  C_5 
REMARK    2  A    between atoms: C_5  and  C_6 
REMARK    3  A    between atoms: C_6  and  C_7 
REMARK       I    between atoms: C_7  and  N_8 
REMARK    4  A    between atoms: N_8  and  C_9 
REMARK    5  A    between atoms: C_16  and  C_17 
REMARK       I    between atoms: C_17  and  N_18 
ROOT
HETATM    1  C   UNL     1      42.247 -17.611   2.619  1.00  0.00     0.035 A 
HETATM    2  C   UNL     1      42.595 -17.737   3.970  1.00  0.00     0.046 A 
HETATM    3  C   UNL     1      43.470 -18.773   4.370  1.00  0.00     0.030 A 
HETATM    4  C   UNL     1      43.961 -19.645   3.407  1.00  0.00     0.063 A 
HETATM    5  N   UNL     1      44.755 -20.526   4.086  1.00  0.00    -0.277 N 
HETATM    6  H   UNL     1      45.274 -21.307   3.701  1.00  0.00     0.189 HD
HETATM    7  N   UNL     1      44.834 -20.300   5.408  1.00  0.00    -0.168 NA
HETATM    8  C   UNL     1      44.044 -19.218   5.599  1.00  0.00     0.156 A 
HETATM    9  C   UNL     1      43.639 -19.546   2.053  1.00  0.00     0.034 A 
HETATM   10  C   UNL     1      42.775 -18.509   1.681  1.00  0.00     0.032 A 
ENDROOT
BRANCH   1  11
HETATM   11  N   UNL     1      41.364 -16.629   2.126  1.00  0.00    -0.326 N 
HETATM   12  C   UNL     1      41.611 -15.284   1.955  1.00  0.00     0.231 C 
HETATM   13  O   UNL     1      42.662 -14.688   2.123  1.00  0.00    -0.272 OA
HETATM   14  H   UNL     1      40.428 -16.938   1.902  1.00  0.00     0.169 HD
BRANCH  12  15
HETATM   15  C   UNL     1      40.385 -14.521   1.504  1.00  0.00     0.045 A 
HETATM   16  C   UNL     1      39.488 -13.987   2.624  1.00  0.00     0.020 A 
HETATM   17  C   UNL     1      39.015 -15.132   1.788  1.00  0.00     0.020 A 
BRANCH  15  18
HETATM   18  C   UNL     1      40.530 -13.657   0.254  1.00  0.00     0.057 C 
BRANCH  18  19
HETATM   19  C   UNL     1      40.179 -14.344  -1.048  1.00  0.00    -0.057 A 
HETATM   20  C   UNL     1      41.019 -15.280  -1.665  1.00  0.00     0.007 A 
HETATM   21  C   UNL     1      40.680 -15.842  -2.900  1.00  0.00     0.001 A 
HETATM   22  C   UNL     1      39.506 -15.463  -3.545  1.00  0.00     0.000 A 
HETATM   23  C   UNL     1      38.669 -14.520  -2.956  1.00  0.00     0.001 A 
HETATM   24  C   UNL     1      39.004 -13.963  -1.720  1.00  0.00     0.007 A 
ENDBRANCH  18  19
ENDBRANCH  15  18
ENDBRANCH  12  15
ENDBRANCH   1  11
BRANCH   8  25
HETATM   25  C   UNL     1      43.860 -18.641   6.938  1.00  0.00     0.270 C 
HETATM   26  N   UNL     1      43.683 -19.571   7.927  1.00  0.00    -0.365 N 
HETATM   27  H   UNL     1      43.694 -20.552   7.677  1.00  0.00     0.159 HD
HETATM   28  H   UNL     1      43.556 -19.267   8.879  1.00  0.00     0.159 HD
HETATM   29  O   UNL     1      43.861 -17.441   7.189  1.00  0.00    -0.266 OA
ENDBRANCH   8  25
TORSDOF 5
ENDMDL
MODEL 8
REMARK VINA RESULT:      -8.1      2.240      3.065
REMARK  5 active torsions:
REMARK  status: ('A' for Active; 'I' for Inactive)
REMARK    1  A    between atoms: C_4  and  C_5 
REMARK    2  A    between atoms: C_5  and  C_6 
REMARK    3  A    between atoms: C_6  and  C_7 
REMARK       I    between atoms: C_7  and  N_8 
REMARK    4  A    between atoms: N_8  and  C_9 
REMARK    5  A    between atoms: C_16  and  C_17 
REMARK       I    between atoms: C_17  and  N_18 
ROOT
HETATM    1  C   UNL     1      41.731 -14.890   0.208  1.00  0.00     0.035 A 
HETATM    2  C   UNL     1      42.170 -13.633  -0.227  1.00  0.00     0.046 A 
HETATM    3  C   UNL     1      42.022 -13.275  -1.586  1.00  0.00     0.030 A 
HETATM    4  C   UNL     1      41.445 -14.187  -2.461  1.00  0.00     0.063 A 
HETATM    5  N   UNL     1      41.448 -13.572  -3.681  1.00  0.00    -0.277 N 
HETATM    6  H   UNL     1      41.107 -13.948  -4.559  1.00  0.00     0.189 HD
HETATM    7  N   UNL     1      41.968 -12.334  -3.680  1.00  0.00    -0.168 NA
HETATM    8  C   UNL     1      42.327 -12.135  -2.390  1.00  0.00     0.156 A 
HETATM    9  C   UNL     1      40.993 -15.446  -2.062  1.00  0.00     0.034 A 
HETATM   10  C   UNL     1      41.146 -15.775  -0.709  1.00  0.00     0.032 A 
ENDROOT
BRANCH   1  11
HETATM   11  N   UNL     1      41.857 -15.348   1.535  1.00  0.00    -0.326 N 
HETATM   12  C   UNL     1      40.854 -15.529   2.463  1.00  0.00     0.231 C 
HETATM   13  O   UNL     1      39.651 -15.401   2.300  1.00  0.00    -0.272 OA
HETATM   14  H   UNL     1      42.797 -15.535   1.859  1.00  0.00     0.169 HD
BRANCH  12  15
HETATM   15  C   UNL     1      41.384 -15.931   3.821  1.00  0.00     0.045 A 
HETATM   16  C   UNL     1      41.187 -14.904   4.940  1.00  0.00     0.020 A 
HETATM   17  C   UNL     1      42.558 -15.142   4.395  1.00  0.00     0.020 A 
BRANCH  15  18
HETATM   18  C   UNL     1      41.269 -17.405   4.199  1.00  0.00     0.057 C 
BRANCH  18  19
HETATM   19  C   UNL     1      42.428 -18.275   3.761  1.00  0.00    -0.057 A 
HETATM   20  C   UNL     1      42.599 -18.706   2.440  1.00  0.00     0.007 A 
HETATM   21  C   UNL     1      43.652 -19.560   2.096  1.00  0.00     0.001 A 
HETATM   22  C   UNL     1      44.537 -20.010   3.071  1.00  0.00     0.000 A 
HETATM   23  C   UNL     1      44.371 -19.606   4.393  1.00  0.00     0.001 A 
HETATM   24  C   UNL     1      43.324 -18.749   4.735  1.00  0.00     0.007 A 
ENDBRANCH  18  19
ENDBRANCH  15  18
ENDBRANCH  12  15
ENDBRANCH   1  11
BRANCH   8  25
HETATM   25  C   UNL     1      42.946 -10.873  -1.961  1.00  0.00     0.270 C 
HETATM   26  N   UNL     1      42.640  -9.802  -2.758  1.00  0.00    -0.365 N 
HETATM   27  H   UNL     1      42.030  -9.949  -3.553  1.00  0.00     0.159 HD
HETATM   28  H   UNL     1      43.015  -8.894  -2.537  1.00  0.00     0.159 HD
HETATM   29  O   UNL     1      43.675 -10.747  -0.984  1.00  0.00    -0.266 OA
ENDBRANCH   8  25
TORSDOF 5
ENDMDL
MODEL 9
REMARK VINA RESULT:      -8.0      2.892      7.885
REMARK  5 active torsions:
REMARK  status: ('A' for Active; 'I' for Inactive)
REMARK    1  A    between atoms: C_4  and  C_5 
REMARK    2  A    between atoms: C_5  and  C_6 
REMARK    3  A    between atoms: C_6  and  C_7 
REMARK       I    between atoms: C_7  and  N_8 
REMARK    4  A    between atoms: N_8  and  C_9 
REMARK    5  A    between atoms: C_16  and  C_17 
REMARK       I    between atoms: C_17  and  N_18 
ROOT
HETATM    1  C   UNL     1      42.321 -17.284   3.240  1.00  0.00     0.035 A 
HETATM    2  C   UNL     1      42.698 -18.531   2.725  1.00  0.00     0.046 A 
HETATM    3  C   UNL     1      43.653 -19.310   3.418  1.00  0.00     0.030 A 
HETATM    4  C   UNL     1      44.197 -18.814   4.596  1.00  0.00     0.063 A 
HETATM    5  N   UNL     1      45.079 -19.768   5.019  1.00  0.00    -0.277 N 
HETATM    6  H   UNL     1      45.663 -19.739   5.847  1.00  0.00     0.189 HD
HETATM    7  N   UNL     1      45.152 -20.849   4.226  1.00  0.00    -0.168 NA
HETATM    8  C   UNL     1      44.275 -20.582   3.231  1.00  0.00     0.156 A 
HETATM    9  C   UNL     1      43.841 -17.578   5.139  1.00  0.00     0.034 A 
HETATM   10  C   UNL     1      42.889 -16.828   4.437  1.00  0.00     0.032 A 
ENDROOT
BRANCH   1  11
HETATM   11  N   UNL     1      41.397 -16.424   2.611  1.00  0.00    -0.326 N 
HETATM   12  C   UNL     1      41.644 -15.194   2.040  1.00  0.00     0.231 C 
HETATM   13  O   UNL     1      42.721 -14.638   1.898  1.00  0.00    -0.272 OA
HETATM   14  H   UNL     1      40.433 -16.728   2.606  1.00  0.00     0.169 HD
BRANCH  12  15
HETATM   15  C   UNL     1      40.383 -14.514   1.557  1.00  0.00     0.045 A 
HETATM   16  C   UNL     1      39.425 -14.039   2.654  1.00  0.00     0.020 A 
HETATM   17  C   UNL     1      39.050 -15.213   1.809  1.00  0.00     0.020 A 
BRANCH  15  18
HETATM   18  C   UNL     1      40.502 -13.644   0.309  1.00  0.00     0.057 C 
BRANCH  18  19
HETATM   19  C   UNL     1      40.193 -14.345  -0.997  1.00  0.00    -0.057 A 
HETATM   20  C   UNL     1      41.055 -15.282  -1.580  1.00  0.00     0.007 A 
HETATM   21  C   UNL     1      40.755 -15.857  -2.819  1.00  0.00     0.001 A 
HETATM   22  C   UNL     1      39.599 -15.490  -3.501  1.00  0.00     0.000 A 
HETATM   23  C   UNL     1      38.740 -14.546  -2.946  1.00  0.00     0.001 A 
HETATM   24  C   UNL     1      39.036 -13.976  -1.706  1.00  0.00     0.007 A 
ENDBRANCH  18  19
ENDBRANCH  15  18
ENDBRANCH  12  15
ENDBRANCH   1  11
BRANCH   8  25
HETATM   25  C   UNL     1      44.055 -21.539   2.137  1.00  0.00     0.270 C 
HETATM   26  N   UNL     1      42.776 -21.543   1.649  1.00  0.00    -0.365 N 
HETATM   27  H   UNL     1      42.099 -20.909   2.057  1.00  0.00     0.159 HD
HETATM   28  H   UNL     1      42.533 -22.163   0.893  1.00  0.00     0.159 HD
HETATM   29  O   UNL     1      44.912 -22.283   1.675  1.00  0.00    -0.266 OA
ENDBRANCH   8  25
TORSDOF 5
ENDMDL
MODEL 10
REMARK VINA RESULT:      -7.9      3.456      8.517
REMARK  5 active torsions:
REMARK  status: ('A' for Active; 'I' for Inactive)
REMARK    1  A    between atoms: C_4  and  C_5 
REMARK    2  A    between atoms: C_5  and  C_6 
REMARK    3  A    between atoms: C_6  and  C_7 
REMARK       I    between atoms: C_7  and  N_8 
REMARK    4  A    between atoms: N_8  and  C_9 
REMARK    5  A    between atoms: C_16  and  C_17 
REMARK       I    between atoms: C_17  and  N_18 
ROOT
HETATM    1  C   UNL     1      42.884 -17.655   2.789  1.00  0.00     0.035 A 
HETATM    2  C   UNL     1      43.087 -17.979   4.137  1.00  0.00     0.046 A 
HETATM    3  C   UNL     1      43.754 -19.179   4.472  1.00  0.00     0.030 A 
HETATM    4  C   UNL     1      44.191 -20.012   3.449  1.00  0.00     0.063 A 
HETATM    5  N   UNL     1      44.778 -21.076   4.073  1.00  0.00    -0.277 N 
HETATM    6  H   UNL     1      45.204 -21.885   3.636  1.00  0.00     0.189 HD
HETATM    7  N   UNL     1      44.772 -21.008   5.415  1.00  0.00    -0.168 NA
HETATM    8  C   UNL     1      44.143 -19.839   5.677  1.00  0.00     0.156 A 
HETATM    9  C   UNL     1      44.009 -19.718   2.097  1.00  0.00     0.034 A 
HETATM   10  C   UNL     1      43.350 -18.521   1.791  1.00  0.00     0.032 A 
ENDROOT
BRANCH   1  11
HETATM   11  N   UNL     1      42.208 -16.496   2.355  1.00  0.00    -0.326 N 
HETATM   12  C   UNL     1      40.898 -16.390   1.940  1.00  0.00     0.231 C 
HETATM   13  O   UNL     1      40.041 -17.259   1.936  1.00  0.00    -0.272 OA
HETATM   14  H   UNL     1      42.756 -15.648   2.310  1.00  0.00     0.169 HD
BRANCH  12  15
HETATM   15  C   UNL     1      40.556 -15.002   1.444  1.00  0.00     0.045 A 
HETATM   16  C   UNL     1      40.689 -14.788  -0.067  1.00  0.00     0.020 A 
HETATM   17  C   UNL     1      41.681 -14.155   0.855  1.00  0.00     0.020 A 
BRANCH  15  18
HETATM   18  C   UNL     1      39.419 -14.275   2.155  1.00  0.00     0.057 C 
BRANCH  18  19
HETATM   19  C   UNL     1      39.795 -13.614   3.464  1.00  0.00    -0.057 A 
HETATM   20  C   UNL     1      40.119 -12.256   3.564  1.00  0.00     0.007 A 
HETATM   21  C   UNL     1      40.522 -11.704   4.785  1.00  0.00     0.001 A 
HETATM   22  C   UNL     1      40.624 -12.506   5.917  1.00  0.00     0.000 A 
HETATM   23  C   UNL     1      40.325 -13.862   5.832  1.00  0.00     0.001 A 
HETATM   24  C   UNL     1      39.917 -14.413   4.615  1.00  0.00     0.007 A 
ENDBRANCH  18  19
ENDBRANCH  15  18
ENDBRANCH  12  15
ENDBRANCH   1  11
BRANCH   8  25
HETATM   25  C   UNL     1      43.931 -19.386   7.059  1.00  0.00     0.270 C 
HETATM   26  N   UNL     1      43.577 -20.384   7.926  1.00  0.00    -0.365 N 
HETATM   27  H   UNL     1      43.493 -21.329   7.569  1.00  0.00     0.159 HD
HETATM   28  H   UNL     1      43.418 -20.168   8.897  1.00  0.00     0.159 HD
HETATM   29  O   UNL     1      44.052 -18.228   7.442  1.00  0.00    -0.266 OA
ENDBRANCH   8  25
TORSDOF 5
ENDMDL
