MODEL 1
REMARK VINA RESULT:      -9.0      0.000      0.000
REMARK  3 active torsions:
REMARK  status: ('A' for Active; 'I' for Inactive)
REMARK    1  A    between atoms: C_4  and  N_5 
REMARK       I    between atoms: N_5  and  C_6 
REMARK    2  A    between atoms: C_6  and  C_7 
REMARK    3  A    between atoms: C_7  and  N_8 
ROOT
HETATM    1  N   UNL     1      43.221 -15.340   5.181  1.00  0.00    -0.224 N 
HETATM    2  N   UNL     1      43.042 -15.518   3.795  1.00  0.00    -0.180 NA
HETATM    3  C   UNL     1      43.262 -16.691   3.270  1.00  0.00     0.153 A 
HETATM    4  C   UNL     1      43.700 -17.795   4.078  1.00  0.00     0.028 A 
HETATM    5  C   UNL     1      43.889 -17.594   5.422  1.00  0.00     0.116 A 
HETATM    6  N   UNL     1      44.299 -18.770   5.980  1.00  0.00    -0.350 N 
HETATM    7  H   UNL     1      44.501 -18.902   6.963  1.00  0.00     0.166 HD
HETATM    8  C   UNL     1      44.380 -19.741   5.004  1.00  0.00     0.044 A 
HETATM    9  C   UNL     1      44.002 -19.150   3.792  1.00  0.00     0.005 A 
HETATM   10  C   UNL     1      44.754 -21.084   5.102  1.00  0.00     0.031 A 
HETATM   11  C   UNL     1      44.735 -21.851   3.932  1.00  0.00     0.009 A 
HETATM   12  C   UNL     1      44.347 -21.304   2.705  1.00  0.00    -0.061 A 
HETATM   13  C   UNL     1      44.351 -22.143   1.460  1.00  0.00     0.048 C 
HETATM   14  C   UNL     1      43.991 -19.945   2.627  1.00  0.00     0.021 A 
HETATM   15  C   UNL     1      43.657 -16.339   6.069  1.00  0.00     0.291 A 
HETATM   16  O   UNL     1      43.837 -16.165   7.272  1.00  0.00    -0.264 OA
ENDROOT
BRANCH   1  17
HETATM   17  C   UNL     1      42.846 -14.045   5.729  1.00  0.00     0.258 C 
BRANCH  17  18
HETATM   18  C   UNL     1      41.989 -13.243   4.732  1.00  0.00     0.244 C 
HETATM   19  N   UNL     1      40.600 -13.510   4.745  1.00  0.00    -0.321 N 
HETATM   20  C   UNL     1      39.974 -14.263   5.835  1.00  0.00     0.159 C 
HETATM   21  O   UNL     1      42.520 -12.400   4.003  1.00  0.00    -0.271 OA
BRANCH  19  22
HETATM   22  C   UNL     1      39.712 -12.949   3.747  1.00  0.00     0.037 A 
HETATM   23  C   UNL     1      39.372 -13.649   2.577  1.00  0.00     0.036 A 
HETATM   24  C   UNL     1      38.504 -13.111   1.610  1.00  0.00    -0.060 A 
HETATM   25  C   UNL     1      38.167 -13.884   0.369  1.00  0.00     0.048 C 
HETATM   26  C   UNL     1      37.942 -11.851   1.822  1.00  0.00     0.007 A 
HETATM   27  C   UNL     1      38.246 -11.144   2.979  1.00  0.00     0.003 A 
HETATM   28  C   UNL     1      39.118 -11.687   3.930  1.00  0.00     0.030 A 
ENDBRANCH  19  22
ENDBRANCH  17  18
ENDBRANCH   1  17
TORSDOF 3
ENDMDL
MODEL 2
REMARK VINA RESULT:      -8.8      2.708      3.835
REMARK  3 active torsions:
REMARK  status: ('A' for Active; 'I' for Inactive)
REMARK    1  A    between atoms: C_4  and  N_5 
REMARK       I    between atoms: N_5  and  C_6 
REMARK    2  A    between atoms: C_6  and  C_7 
REMARK    3  A    between atoms: C_7  and  N_8 
ROOT
HETATM    1  N   UNL     1      40.558 -15.315   2.572  1.00  0.00    -0.224 N 
HETATM    2  N   UNL     1      40.431 -16.191   1.477  1.00  0.00    -0.180 NA
HETATM    3  C   UNL     1      41.139 -17.285   1.450  1.00  0.00     0.153 A 
HETATM    4  C   UNL     1      42.057 -17.600   2.509  1.00  0.00     0.028 A 
HETATM    5  C   UNL     1      42.182 -16.723   3.557  1.00  0.00     0.116 A 
HETATM    6  N   UNL     1      43.099 -17.225   4.433  1.00  0.00    -0.350 N 
HETATM    7  H   UNL     1      43.373 -16.779   5.299  1.00  0.00     0.166 HD
HETATM    8  C   UNL     1      43.576 -18.430   3.962  1.00  0.00     0.044 A 
HETATM    9  C   UNL     1      42.930 -18.692   2.748  1.00  0.00     0.005 A 
HETATM   10  C   UNL     1      44.521 -19.300   4.515  1.00  0.00     0.031 A 
HETATM   11  C   UNL     1      44.810 -20.476   3.813  1.00  0.00     0.009 A 
HETATM   12  C   UNL     1      44.174 -20.782   2.606  1.00  0.00    -0.061 A 
HETATM   13  C   UNL     1      44.514 -22.042   1.864  1.00  0.00     0.048 C 
HETATM   14  C   UNL     1      43.239 -19.884   2.061  1.00  0.00     0.021 A 
HETATM   15  C   UNL     1      41.430 -15.509   3.658  1.00  0.00     0.291 A 
HETATM   16  O   UNL     1      41.554 -14.724   4.595  1.00  0.00    -0.264 OA
ENDROOT
BRANCH   1  17
HETATM   17  C   UNL     1      39.657 -14.173   2.606  1.00  0.00     0.258 C 
BRANCH  17  18
HETATM   18  C   UNL     1      38.804 -14.096   1.327  1.00  0.00     0.244 C 
HETATM   19  N   UNL     1      39.339 -13.333   0.262  1.00  0.00    -0.321 N 
HETATM   20  C   UNL     1      40.740 -12.903   0.255  1.00  0.00     0.159 C 
HETATM   21  O   UNL     1      37.734 -14.708   1.263  1.00  0.00    -0.271 OA
BRANCH  19  22
HETATM   22  C   UNL     1      38.563 -13.045  -0.928  1.00  0.00     0.037 A 
HETATM   23  C   UNL     1      38.333 -14.016  -1.918  1.00  0.00     0.036 A 
HETATM   24  C   UNL     1      37.574 -13.742  -3.070  1.00  0.00    -0.060 A 
HETATM   25  C   UNL     1      37.353 -14.801  -4.110  1.00  0.00     0.048 C 
HETATM   26  C   UNL     1      37.012 -12.476  -3.232  1.00  0.00     0.007 A 
HETATM   27  C   UNL     1      37.208 -11.502  -2.261  1.00  0.00     0.003 A 
HETATM   28  C   UNL     1      37.972 -11.784  -1.122  1.00  0.00     0.030 A 
ENDBRANCH  19  22
ENDBRANCH  17  18
ENDBRANCH   1  17
TORSDOF 3
ENDMDL
MODEL 3
REMARK VINA RESULT:      -8.8      3.507      4.416
REMARK  3 active torsions:
REMARK  status: ('A' for Active; 'I' for Inactive)
REMARK    1  A    between atoms: C_4  and  N_5 
REMARK       I    between atoms: N_5  and  C_6 
REMARK    2  A    between atoms: C_6  and  C_7 
REMARK    3  A    between atoms: C_7  and  N_8 
ROOT
HETATM    1  N   UNL     1      41.472 -15.064   1.927  1.00  0.00    -0.224 N 
HETATM    2  N   UNL     1      41.389 -15.954   0.839  1.00  0.00    -0.180 NA
HETATM    3  C   UNL     1      41.936 -17.133   0.936  1.00  0.00     0.153 A 
HETATM    4  C   UNL     1      42.637 -17.529   2.125  1.00  0.00     0.028 A 
HETATM    5  C   UNL     1      42.726 -16.640   3.166  1.00  0.00     0.116 A 
HETATM    6  N   UNL     1      43.426 -17.228   4.178  1.00  0.00    -0.350 N 
HETATM    7  H   UNL     1      43.629 -16.793   5.068  1.00  0.00     0.166 HD
HETATM    8  C   UNL     1      43.798 -18.502   3.802  1.00  0.00     0.044 A 
HETATM    9  C   UNL     1      43.307 -18.718   2.509  1.00  0.00     0.005 A 
HETATM   10  C   UNL     1      44.523 -19.470   4.504  1.00  0.00     0.031 A 
HETATM   11  C   UNL     1      44.748 -20.698   3.872  1.00  0.00     0.009 A 
HETATM   12  C   UNL     1      44.261 -20.960   2.587  1.00  0.00    -0.061 A 
HETATM   13  C   UNL     1      44.530 -22.279   1.924  1.00  0.00     0.048 C 
HETATM   14  C   UNL     1      43.548 -19.965   1.895  1.00  0.00     0.021 A 
HETATM   15  C   UNL     1      42.141 -15.334   3.135  1.00  0.00     0.291 A 
HETATM   16  O   UNL     1      42.232 -14.540   4.067  1.00  0.00    -0.264 OA
ENDROOT
BRANCH   1  17
HETATM   17  C   UNL     1      40.741 -13.812   1.808  1.00  0.00     0.258 C 
BRANCH  17  18
HETATM   18  C   UNL     1      41.413 -12.868   0.793  1.00  0.00     0.244 C 
HETATM   19  N   UNL     1      40.691 -12.612  -0.396  1.00  0.00    -0.321 N 
HETATM   20  C   UNL     1      39.275 -12.965  -0.525  1.00  0.00     0.159 C 
HETATM   21  O   UNL     1      42.506 -12.358   1.057  1.00  0.00    -0.271 OA
BRANCH  19  22
HETATM   22  C   UNL     1      41.282 -11.879  -1.498  1.00  0.00     0.037 A 
HETATM   23  C   UNL     1      41.342 -10.475  -1.511  1.00  0.00     0.036 A 
HETATM   24  C   UNL     1      41.922  -9.762  -2.574  1.00  0.00    -0.060 A 
HETATM   25  C   UNL     1      41.963  -8.261  -2.558  1.00  0.00     0.048 C 
HETATM   26  C   UNL     1      42.476 -10.464  -3.645  1.00  0.00     0.007 A 
HETATM   27  C   UNL     1      42.448 -11.853  -3.651  1.00  0.00     0.003 A 
HETATM   28  C   UNL     1      41.861 -12.551  -2.590  1.00  0.00     0.030 A 
ENDBRANCH  19  22
ENDBRANCH  17  18
ENDBRANCH   1  17
TORSDOF 3
ENDMDL
MODEL 4
REMARK VINA RESULT:      -8.7      2.480      3.608
REMARK  3 active torsions:
REMARK  status: ('A' for Active; 'I' for Inactive)
REMARK    1  A    between atoms: C_4  and  N_5 
REMARK       I    between atoms: N_5  and  C_6 
REMARK    2  A    between atoms: C_6  and  C_7 
REMARK    3  A    between atoms: C_7  and  N_8 
ROOT
HETATM    1  N   UNL     1      42.319 -14.757   2.044  1.00  0.00    -0.224 N 
HETATM    2  N   UNL     1      42.276 -15.578   0.900  1.00  0.00    -0.180 NA
HETATM    3  C   UNL     1      42.672 -16.816   0.989  1.00  0.00     0.153 A 
HETATM    4  C   UNL     1      43.169 -17.349   2.227  1.00  0.00     0.028 A 
HETATM    5  C   UNL     1      43.223 -16.527   3.324  1.00  0.00     0.116 A 
HETATM    6  N   UNL     1      43.720 -17.241   4.375  1.00  0.00    -0.350 N 
HETATM    7  H   UNL     1      43.854 -16.876   5.308  1.00  0.00     0.166 HD
HETATM    8  C   UNL     1      43.993 -18.531   3.968  1.00  0.00     0.044 A 
HETATM    9  C   UNL     1      43.649 -18.626   2.614  1.00  0.00     0.005 A 
HETATM   10  C   UNL     1      44.511 -19.610   4.690  1.00  0.00     0.031 A 
HETATM   11  C   UNL     1      44.677 -20.824   4.015  1.00  0.00     0.009 A 
HETATM   12  C   UNL     1      44.330 -20.965   2.667  1.00  0.00    -0.061 A 
HETATM   13  C   UNL     1      44.533 -22.274   1.960  1.00  0.00     0.048 C 
HETATM   14  C   UNL     1      43.826 -19.861   1.957  1.00  0.00     0.021 A 
HETATM   15  C   UNL     1      42.794 -15.161   3.304  1.00  0.00     0.291 A 
HETATM   16  O   UNL     1      42.854 -14.429   4.289  1.00  0.00    -0.264 OA
ENDROOT
BRANCH   1  17
HETATM   17  C   UNL     1      41.752 -13.423   1.916  1.00  0.00     0.258 C 
BRANCH  17  18
HETATM   18  C   UNL     1      41.139 -13.209   0.520  1.00  0.00     0.244 C 
HETATM   19  N   UNL     1      39.785 -13.589   0.366  1.00  0.00    -0.321 N 
HETATM   20  C   UNL     1      38.933 -13.876   1.523  1.00  0.00     0.159 C 
HETATM   21  O   UNL     1      41.815 -12.699  -0.378  1.00  0.00    -0.271 OA
BRANCH  19  22
HETATM   22  C   UNL     1      39.143 -13.595  -0.933  1.00  0.00     0.037 A 
HETATM   23  C   UNL     1      39.375 -14.615  -1.872  1.00  0.00     0.036 A 
HETATM   24  C   UNL     1      38.747 -14.628  -3.130  1.00  0.00    -0.060 A 
HETATM   25  C   UNL     1      39.023 -15.730  -4.112  1.00  0.00     0.048 C 
HETATM   26  C   UNL     1      37.849 -13.612  -3.456  1.00  0.00     0.007 A 
HETATM   27  C   UNL     1      37.586 -12.601  -2.541  1.00  0.00     0.003 A 
HETATM   28  C   UNL     1      38.223 -12.594  -1.294  1.00  0.00     0.030 A 
ENDBRANCH  19  22
ENDBRANCH  17  18
ENDBRANCH   1  17
TORSDOF 3
ENDMDL
MODEL 5
REMARK VINA RESULT:      -8.6      2.597      3.509
REMARK  3 active torsions:
REMARK  status: ('A' for Active; 'I' for Inactive)
REMARK    1  A    between atoms: C_4  and  N_5 
REMARK       I    between atoms: N_5  and  C_6 
REMARK    2  A    between atoms: C_6  and  C_7 
REMARK    3  A    between atoms: C_7  and  N_8 
ROOT
HETATM    1  N   UNL     1      40.470 -15.469   2.795  1.00  0.00    -0.224 N 
HETATM    2  N   UNL     1      40.334 -16.310   1.674  1.00  0.00    -0.180 NA
HETATM    3  C   UNL     1      41.066 -17.386   1.592  1.00  0.00     0.153 A 
HETATM    4  C   UNL     1      42.019 -17.714   2.615  1.00  0.00     0.028 A 
HETATM    5  C   UNL     1      42.151 -16.870   3.689  1.00  0.00     0.116 A 
HETATM    6  N   UNL     1      43.102 -17.379   4.524  1.00  0.00    -0.350 N 
HETATM    7  H   UNL     1      43.388 -16.957   5.398  1.00  0.00     0.166 HD
HETATM    8  C   UNL     1      43.594 -18.556   4.000  1.00  0.00     0.044 A 
HETATM    9  C   UNL     1      42.922 -18.792   2.794  1.00  0.00     0.005 A 
HETATM   10  C   UNL     1      44.572 -19.422   4.498  1.00  0.00     0.031 A 
HETATM   11  C   UNL     1      44.870 -20.566   3.749  1.00  0.00     0.009 A 
HETATM   12  C   UNL     1      44.210 -20.847   2.549  1.00  0.00    -0.061 A 
HETATM   13  C   UNL     1      44.558 -22.072   1.755  1.00  0.00     0.048 C 
HETATM   14  C   UNL     1      43.240 -19.953   2.059  1.00  0.00     0.021 A 
HETATM   15  C   UNL     1      41.374 -15.678   3.852  1.00  0.00     0.291 A 
HETATM   16  O   UNL     1      41.505 -14.923   4.811  1.00  0.00    -0.264 OA
ENDROOT
BRANCH   1  17
HETATM   17  C   UNL     1      39.545 -14.350   2.892  1.00  0.00     0.258 C 
BRANCH  17  18
HETATM   18  C   UNL     1      39.792 -13.323   1.772  1.00  0.00     0.244 C 
HETATM   19  N   UNL     1      38.869 -13.331   0.699  1.00  0.00    -0.321 N 
HETATM   20  C   UNL     1      37.594 -14.048   0.791  1.00  0.00     0.159 C 
HETATM   21  O   UNL     1      40.735 -12.531   1.859  1.00  0.00    -0.271 OA
BRANCH  19  22
HETATM   22  C   UNL     1      39.084 -12.534  -0.491  1.00  0.00     0.037 A 
HETATM   23  C   UNL     1      39.952 -12.947  -1.516  1.00  0.00     0.036 A 
HETATM   24  C   UNL     1      40.157 -12.180  -2.676  1.00  0.00    -0.060 A 
HETATM   25  C   UNL     1      41.097 -12.650  -3.749  1.00  0.00     0.048 C 
HETATM   26  C   UNL     1      39.464 -10.980  -2.832  1.00  0.00     0.007 A 
HETATM   27  C   UNL     1      38.584 -10.554  -1.844  1.00  0.00     0.003 A 
HETATM   28  C   UNL     1      38.396 -11.324  -0.689  1.00  0.00     0.030 A 
ENDBRANCH  19  22
ENDBRANCH  17  18
ENDBRANCH   1  17
TORSDOF 3
ENDMDL
MODEL 6
REMARK VINA RESULT:      -8.4      3.947      8.664
REMARK  3 active torsions:
REMARK  status: ('A' for Active; 'I' for Inactive)
REMARK    1  A    between atoms: C_4  and  N_5 
REMARK       I    between atoms: N_5  and  C_6 
REMARK    2  A    between atoms: C_6  and  C_7 
REMARK    3  A    between atoms: C_7  and  N_8 
ROOT
HETATM    1  N   UNL     1      41.227 -14.629   1.540  1.00  0.00    -0.224 N 
HETATM    2  N   UNL     1      40.831 -15.092   0.270  1.00  0.00    -0.180 NA
HETATM    3  C   UNL     1      41.042 -14.343  -0.775  1.00  0.00     0.153 A 
HETATM    4  C   UNL     1      41.653 -13.049  -0.650  1.00  0.00     0.028 A 
HETATM    5  C   UNL     1      42.012 -12.608   0.599  1.00  0.00     0.116 A 
HETATM    6  N   UNL     1      42.570 -11.369   0.475  1.00  0.00    -0.350 N 
HETATM    7  H   UNL     1      42.930 -10.819   1.244  1.00  0.00     0.166 HD
HETATM    8  C   UNL     1      42.576 -10.997  -0.853  1.00  0.00     0.044 A 
HETATM    9  C   UNL     1      42.005 -12.044  -1.586  1.00  0.00     0.005 A 
HETATM   10  C   UNL     1      43.041  -9.823  -1.455  1.00  0.00     0.031 A 
HETATM   11  C   UNL     1      42.929  -9.718  -2.846  1.00  0.00     0.009 A 
HETATM   12  C   UNL     1      42.380 -10.748  -3.615  1.00  0.00    -0.061 A 
HETATM   13  C   UNL     1      42.255 -10.604  -5.104  1.00  0.00     0.048 C 
HETATM   14  C   UNL     1      41.904 -11.913  -2.986  1.00  0.00     0.021 A 
HETATM   15  C   UNL     1      41.822 -13.379   1.790  1.00  0.00     0.291 A 
HETATM   16  O   UNL     1      42.138 -12.974   2.905  1.00  0.00    -0.264 OA
ENDROOT
BRANCH   1  17
HETATM   17  C   UNL     1      41.077 -15.556   2.652  1.00  0.00     0.258 C 
BRANCH  17  18
HETATM   18  C   UNL     1      42.032 -16.755   2.513  1.00  0.00     0.244 C 
HETATM   19  N   UNL     1      42.105 -17.630   3.623  1.00  0.00    -0.321 N 
HETATM   20  C   UNL     1      41.117 -17.580   4.704  1.00  0.00     0.159 C 
HETATM   21  O   UNL     1      42.657 -16.926   1.462  1.00  0.00    -0.271 OA
BRANCH  19  22
HETATM   22  C   UNL     1      43.085 -18.695   3.685  1.00  0.00     0.037 A 
HETATM   23  C   UNL     1      43.182 -19.675   2.682  1.00  0.00     0.036 A 
HETATM   24  C   UNL     1      44.137 -20.705   2.734  1.00  0.00    -0.060 A 
HETATM   25  C   UNL     1      44.209 -21.739   1.648  1.00  0.00     0.048 C 
HETATM   26  C   UNL     1      45.033 -20.752   3.803  1.00  0.00     0.007 A 
HETATM   27  C   UNL     1      44.973 -19.786   4.800  1.00  0.00     0.003 A 
HETATM   28  C   UNL     1      44.012 -18.769   4.739  1.00  0.00     0.030 A 
ENDBRANCH  19  22
ENDBRANCH  17  18
ENDBRANCH   1  17
TORSDOF 3
ENDMDL
MODEL 7
REMARK VINA RESULT:      -8.4      2.383      3.598
REMARK  3 active torsions:
REMARK  status: ('A' for Active; 'I' for Inactive)
REMARK    1  A    between atoms: C_4  and  N_5 
REMARK       I    between atoms: N_5  and  C_6 
REMARK    2  A    between atoms: C_6  and  C_7 
REMARK    3  A    between atoms: C_7  and  N_8 
ROOT
HETATM    1  N   UNL     1      42.507 -14.761   3.345  1.00  0.00    -0.224 N 
HETATM    2  N   UNL     1      43.166 -15.567   2.397  1.00  0.00    -0.180 NA
HETATM    3  C   UNL     1      43.575 -16.755   2.744  1.00  0.00     0.153 A 
HETATM    4  C   UNL     1      43.382 -17.244   4.081  1.00  0.00     0.028 A 
HETATM    5  C   UNL     1      42.757 -16.435   4.996  1.00  0.00     0.116 A 
HETATM    6  N   UNL     1      42.683 -17.102   6.183  1.00  0.00    -0.350 N 
HETATM    7  H   UNL     1      42.259 -16.735   7.025  1.00  0.00     0.166 HD
HETATM    8  C   UNL     1      43.259 -18.348   6.049  1.00  0.00     0.044 A 
HETATM    9  C   UNL     1      43.705 -18.464   4.727  1.00  0.00     0.005 A 
HETATM   10  C   UNL     1      43.416 -19.372   6.989  1.00  0.00     0.031 A 
HETATM   11  C   UNL     1      44.039 -20.551   6.567  1.00  0.00     0.009 A 
HETATM   12  C   UNL     1      44.484 -20.713   5.251  1.00  0.00    -0.061 A 
HETATM   13  C   UNL     1      45.164 -21.983   4.827  1.00  0.00     0.048 C 
HETATM   14  C   UNL     1      44.330 -19.664   4.327  1.00  0.00     0.021 A 
HETATM   15  C   UNL     1      42.271 -15.125   4.683  1.00  0.00     0.291 A 
HETATM   16  O   UNL     1      41.721 -14.403   5.510  1.00  0.00    -0.264 OA
ENDROOT
BRANCH   1  17
HETATM   17  C   UNL     1      41.966 -13.497   2.869  1.00  0.00     0.258 C 
BRANCH  17  18
HETATM   18  C   UNL     1      41.707 -13.536   1.352  1.00  0.00     0.244 C 
HETATM   19  N   UNL     1      40.583 -14.283   0.928  1.00  0.00    -0.321 N 
HETATM   20  C   UNL     1      39.558 -14.730   1.875  1.00  0.00     0.159 C 
HETATM   21  O   UNL     1      42.444 -12.910   0.584  1.00  0.00    -0.271 OA
BRANCH  19  22
HETATM   22  C   UNL     1      40.327 -14.537  -0.476  1.00  0.00     0.037 A 
HETATM   23  C   UNL     1      39.325 -13.853  -1.185  1.00  0.00     0.036 A 
HETATM   24  C   UNL     1      39.080 -14.091  -2.548  1.00  0.00    -0.060 A 
HETATM   25  C   UNL     1      37.997 -13.346  -3.273  1.00  0.00     0.048 C 
HETATM   26  C   UNL     1      39.865 -15.019  -3.232  1.00  0.00     0.007 A 
HETATM   27  C   UNL     1      40.876 -15.698  -2.561  1.00  0.00     0.003 A 
HETATM   28  C   UNL     1      41.105 -15.457  -1.201  1.00  0.00     0.030 A 
ENDBRANCH  19  22
ENDBRANCH  17  18
ENDBRANCH   1  17
TORSDOF 3
ENDMDL
MODEL 8
REMARK VINA RESULT:      -8.4      4.324      8.966
REMARK  3 active torsions:
REMARK  status: ('A' for Active; 'I' for Inactive)
REMARK    1  A    between atoms: C_4  and  N_5 
REMARK       I    between atoms: N_5  and  C_6 
REMARK    2  A    between atoms: C_6  and  C_7 
REMARK    3  A    between atoms: C_7  and  N_8 
ROOT
HETATM    1  N   UNL     1      41.239 -14.818   1.127  1.00  0.00    -0.224 N 
HETATM    2  N   UNL     1      41.813 -13.862   1.986  1.00  0.00    -0.180 NA
HETATM    3  C   UNL     1      42.252 -12.739   1.489  1.00  0.00     0.153 A 
HETATM    4  C   UNL     1      42.176 -12.473   0.080  1.00  0.00     0.028 A 
HETATM    5  C   UNL     1      41.633 -13.427  -0.743  1.00  0.00     0.116 A 
HETATM    6  N   UNL     1      41.663 -12.960  -2.025  1.00  0.00    -0.350 N 
HETATM    7  H   UNL     1      41.315 -13.463  -2.830  1.00  0.00     0.166 HD
HETATM    8  C   UNL     1      42.226 -11.701  -2.043  1.00  0.00     0.044 A 
HETATM    9  C   UNL     1      42.555 -11.368  -0.724  1.00  0.00     0.005 A 
HETATM   10  C   UNL     1      42.464 -10.839  -3.118  1.00  0.00     0.031 A 
HETATM   11  C   UNL     1      43.048  -9.598  -2.839  1.00  0.00     0.009 A 
HETATM   12  C   UNL     1      43.376  -9.221  -1.533  1.00  0.00    -0.061 A 
HETATM   13  C   UNL     1      44.017  -7.891  -1.262  1.00  0.00     0.048 C 
HETATM   14  C   UNL     1      43.142 -10.111  -0.470  1.00  0.00     0.021 A 
HETATM   15  C   UNL     1      41.122 -14.677  -0.267  1.00  0.00     0.291 A 
HETATM   16  O   UNL     1      40.645 -15.530  -1.012  1.00  0.00    -0.264 OA
ENDROOT
BRANCH   1  17
HETATM   17  C   UNL     1      40.659 -15.997   1.752  1.00  0.00     0.258 C 
BRANCH  17  18
HETATM   18  C   UNL     1      41.689 -17.137   1.858  1.00  0.00     0.244 C 
HETATM   19  N   UNL     1      41.921 -17.652   3.155  1.00  0.00    -0.321 N 
HETATM   20  C   UNL     1      41.026 -17.344   4.274  1.00  0.00     0.159 C 
HETATM   21  O   UNL     1      42.236 -17.570   0.840  1.00  0.00    -0.271 OA
BRANCH  19  22
HETATM   22  C   UNL     1      42.982 -18.605   3.413  1.00  0.00     0.037 A 
HETATM   23  C   UNL     1      43.224 -19.697   2.562  1.00  0.00     0.036 A 
HETATM   24  C   UNL     1      44.258 -20.618   2.805  1.00  0.00    -0.060 A 
HETATM   25  C   UNL     1      44.484 -21.777   1.877  1.00  0.00     0.048 C 
HETATM   26  C   UNL     1      45.086 -20.439   3.913  1.00  0.00     0.007 A 
HETATM   27  C   UNL     1      44.882 -19.359   4.762  1.00  0.00     0.003 A 
HETATM   28  C   UNL     1      43.844 -18.452   4.514  1.00  0.00     0.030 A 
ENDBRANCH  19  22
ENDBRANCH  17  18
ENDBRANCH   1  17
TORSDOF 3
ENDMDL
MODEL 9
REMARK VINA RESULT:      -8.3      2.438      2.953
REMARK  3 active torsions:
REMARK  status: ('A' for Active; 'I' for Inactive)
REMARK    1  A    between atoms: C_4  and  N_5 
REMARK       I    between atoms: N_5  and  C_6 
REMARK    2  A    between atoms: C_6  and  C_7 
REMARK    3  A    between atoms: C_7  and  N_8 
ROOT
HETATM    1  N   UNL     1      41.275 -15.247   4.065  1.00  0.00    -0.224 N 
HETATM    2  N   UNL     1      40.954 -15.811   2.815  1.00  0.00    -0.180 NA
HETATM    3  C   UNL     1      41.503 -16.940   2.466  1.00  0.00     0.153 A 
HETATM    4  C   UNL     1      42.442 -17.605   3.326  1.00  0.00     0.028 A 
HETATM    5  C   UNL     1      42.757 -17.028   4.530  1.00  0.00     0.116 A 
HETATM    6  N   UNL     1      43.656 -17.830   5.170  1.00  0.00    -0.350 N 
HETATM    7  H   UNL     1      44.048 -17.642   6.084  1.00  0.00     0.166 HD
HETATM    8  C   UNL     1      43.932 -18.932   4.388  1.00  0.00     0.044 A 
HETATM    9  C   UNL     1      43.173 -18.816   3.217  1.00  0.00     0.005 A 
HETATM   10  C   UNL     1      44.786 -20.013   4.627  1.00  0.00     0.031 A 
HETATM   11  C   UNL     1      44.863 -21.009   3.647  1.00  0.00     0.009 A 
HETATM   12  C   UNL     1      44.109 -20.939   2.472  1.00  0.00    -0.061 A 
HETATM   13  C   UNL     1      44.222 -22.012   1.428  1.00  0.00     0.048 C 
HETATM   14  C   UNL     1      43.269 -19.834   2.246  1.00  0.00     0.021 A 
HETATM   15  C   UNL     1      42.186 -15.797   4.984  1.00  0.00     0.291 A 
HETATM   16  O   UNL     1      42.481 -15.282   6.060  1.00  0.00    -0.264 OA
ENDROOT
BRANCH   1  17
HETATM   17  C   UNL     1      40.542 -14.051   4.452  1.00  0.00     0.258 C 
BRANCH  17  18
HETATM   18  C   UNL     1      41.127 -12.795   3.780  1.00  0.00     0.244 C 
HETATM   19  N   UNL     1      40.431 -12.309   2.648  1.00  0.00    -0.321 N 
HETATM   20  C   UNL     1      39.080 -12.774   2.321  1.00  0.00     0.159 C 
HETATM   21  O   UNL     1      42.131 -12.254   4.253  1.00  0.00    -0.271 OA
BRANCH  19  22
HETATM   22  C   UNL     1      40.969 -11.241   1.829  1.00  0.00     0.037 A 
HETATM   23  C   UNL     1      40.683  -9.889   2.089  1.00  0.00     0.036 A 
HETATM   24  C   UNL     1      41.209  -8.850   1.302  1.00  0.00    -0.060 A 
HETATM   25  C   UNL     1      40.878  -7.418   1.604  1.00  0.00     0.048 C 
HETATM   26  C   UNL     1      42.058  -9.161   0.240  1.00  0.00     0.007 A 
HETATM   27  C   UNL     1      42.374 -10.488  -0.029  1.00  0.00     0.003 A 
HETATM   28  C   UNL     1      41.837 -11.514   0.758  1.00  0.00     0.030 A 
ENDBRANCH  19  22
ENDBRANCH  17  18
ENDBRANCH   1  17
TORSDOF 3
ENDMDL
MODEL 10
REMARK VINA RESULT:      -8.3      2.594      8.596
REMARK  3 active torsions:
REMARK  status: ('A' for Active; 'I' for Inactive)
REMARK    1  A    between atoms: C_4  and  N_5 
REMARK       I    between atoms: N_5  and  C_6 
REMARK    2  A    between atoms: C_6  and  C_7 
REMARK    3  A    between atoms: C_7  and  N_8 
ROOT
HETATM    1  N   UNL     1      41.329 -14.230   2.930  1.00  0.00    -0.224 N 
HETATM    2  N   UNL     1      40.513 -14.755   3.951  1.00  0.00    -0.180 NA
HETATM    3  C   UNL     1      40.154 -13.985   4.939  1.00  0.00     0.153 A 
HETATM    4  C   UNL     1      40.592 -12.619   5.012  1.00  0.00     0.028 A 
HETATM    5  C   UNL     1      41.403 -12.133   4.018  1.00  0.00     0.116 A 
HETATM    6  N   UNL     1      41.688 -10.827   4.292  1.00  0.00    -0.350 N 
HETATM    7  H   UNL     1      42.261 -10.228   3.713  1.00  0.00     0.166 HD
HETATM    8  C   UNL     1      41.063 -10.456   5.465  1.00  0.00     0.044 A 
HETATM    9  C   UNL     1      40.360 -11.570   5.938  1.00  0.00     0.005 A 
HETATM   10  C   UNL     1      41.067  -9.229   6.135  1.00  0.00     0.031 A 
HETATM   11  C   UNL     1      40.326  -9.132   7.318  1.00  0.00     0.009 A 
HETATM   12  C   UNL     1      39.596 -10.217   7.815  1.00  0.00    -0.061 A 
HETATM   13  C   UNL     1      38.822 -10.093   9.095  1.00  0.00     0.048 C 
HETATM   14  C   UNL     1      39.621 -11.446   7.132  1.00  0.00     0.021 A 
HETATM   15  C   UNL     1      41.829 -12.916   2.898  1.00  0.00     0.291 A 
HETATM   16  O   UNL     1      42.563 -12.477   2.017  1.00  0.00    -0.264 OA
ENDROOT
BRANCH   1  17
HETATM   17  C   UNL     1      41.598 -15.099   1.794  1.00  0.00     0.258 C 
BRANCH  17  18
HETATM   18  C   UNL     1      42.632 -16.182   2.152  1.00  0.00     0.244 C 
HETATM   19  N   UNL     1      42.166 -17.518   2.148  1.00  0.00    -0.321 N 
HETATM   20  C   UNL     1      40.879 -17.879   1.546  1.00  0.00     0.159 C 
HETATM   21  O   UNL     1      43.800 -15.863   2.391  1.00  0.00    -0.271 OA
BRANCH  19  22
HETATM   22  C   UNL     1      42.990 -18.609   2.628  1.00  0.00     0.037 A 
HETATM   23  C   UNL     1      43.222 -19.760   1.856  1.00  0.00     0.036 A 
HETATM   24  C   UNL     1      44.027 -20.818   2.315  1.00  0.00    -0.060 A 
HETATM   25  C   UNL     1      44.249 -22.036   1.466  1.00  0.00     0.048 C 
HETATM   26  C   UNL     1      44.635 -20.719   3.567  1.00  0.00     0.007 A 
HETATM   27  C   UNL     1      44.439 -19.585   4.344  1.00  0.00     0.003 A 
HETATM   28  C   UNL     1      43.628 -18.542   3.879  1.00  0.00     0.030 A 
ENDBRANCH  19  22
ENDBRANCH  17  18
ENDBRANCH   1  17
TORSDOF 3
ENDMDL
