MODEL 1
REMARK VINA RESULT:      -8.1      0.000      0.000
REMARK  9 active torsions:
REMARK  status: ('A' for Active; 'I' for Inactive)
REMARK    1  A    between atoms: C_3  and  C_4 
REMARK    2  A    between atoms: C_4  and  O_5 
REMARK    3  A    between atoms: C_8  and  N_9 
REMARK       I    between atoms: N_9  and  C_10 
REMARK    4  A    between atoms: C_10  and  C_11 
REMARK    5  A    between atoms: C_11  and  N_12 
REMARK    6  A    between atoms: C_14  and  C_15 
REMARK    7  A    between atoms: C_16  and  O_17 
REMARK    8  A    between atoms: C_21  and  O_22 
REMARK    9  A    between atoms: C_26  and  O_27 
ROOT
HETATM    1  N   UNL     1      40.773 -14.158   4.115  1.00  0.00    -0.054 N 
HETATM    2  H   UNL     1      40.440 -14.861   3.441  1.00  0.00     0.281 HD
HETATM    3  C   UNL     1      40.756 -12.877   3.266  1.00  0.00     0.231 C 
HETATM    4  C   UNL     1      40.574 -11.611   4.155  1.00  0.00     0.055 C 
HETATM    5  C   UNL     1      39.591 -11.710   5.338  1.00  0.00     0.065 C 
HETATM    6  C   UNL     1      39.832 -12.996   6.122  1.00  0.00     0.066 C 
HETATM    7  C   UNL     1      39.760 -14.212   5.216  1.00  0.00     0.239 C 
HETATM    8  C   UNL     1      40.349 -10.320   3.350  1.00  0.00     0.010 C 
HETATM    9  C   UNL     1      40.496  -9.091   4.250  1.00  0.00     0.001 C 
HETATM   10  C   UNL     1      39.596  -9.160   5.481  1.00  0.00     0.003 C 
HETATM   11  C   UNL     1      39.758 -10.475   6.250  1.00  0.00     0.038 C 
ENDROOT
BRANCH   1  12
HETATM   12  C   UNL     1      42.169 -14.702   4.445  1.00  0.00     0.338 C 
BRANCH  12  13
HETATM   13  C   UNL     1      42.350 -16.214   4.357  1.00  0.00     0.248 C 
HETATM   14  N   UNL     1      43.615 -16.611   3.951  1.00  0.00    -0.319 N 
HETATM   15  H   UNL     1      44.137 -16.034   3.304  1.00  0.00     0.169 HD
HETATM   16  O   UNL     1      41.399 -16.969   4.551  1.00  0.00    -0.271 OA
BRANCH  14  17
HETATM   17  C   UNL     1      43.929 -17.955   3.920  1.00  0.00     0.094 C 
HETATM   18  C   UNL     1      44.299 -18.861   4.896  1.00  0.00     0.080 C 
HETATM   19  C   UNL     1      44.348 -20.205   4.321  1.00  0.00    -0.030 C 
HETATM   20  C   UNL     1      44.652 -21.457   5.091  1.00  0.00     0.050 C 
HETATM   21  C   UNL     1      44.110 -20.186   2.950  1.00  0.00    -0.012 C 
HETATM   22  S   UNL     1      43.888 -18.601   2.358  1.00  0.00    -0.076 SA
HETATM   23  C   UNL     1      44.070 -21.339   1.996  1.00  0.00     0.057 C 
BRANCH  18  24
HETATM   24  C   UNL     1      44.655 -18.446   6.264  1.00  0.00     0.296 C 
HETATM   25  O   UNL     1      45.754 -17.987   6.564  1.00  0.00    -0.259 OA
BRANCH  24  26
HETATM   26  O   UNL     1      43.673 -18.700   7.174  1.00  0.00    -0.322 OA
HETATM   27  C   UNL     1      43.072 -17.546   7.765  1.00  0.00     0.213 C 
ENDBRANCH  24  26
ENDBRANCH  18  24
ENDBRANCH  14  17
ENDBRANCH  12  13
ENDBRANCH   1  12
BRANCH   3  28
HETATM   28  C   UNL     1      39.909 -13.098   2.010  1.00  0.00     0.009 A 
HETATM   29  C   UNL     1      40.465 -13.797   0.910  1.00  0.00     0.076 A 
HETATM   30  C   UNL     1      39.693 -14.061  -0.226  1.00  0.00     0.040 A 
HETATM   31  C   UNL     1      38.367 -13.638  -0.286  1.00  0.00     0.039 A 
HETATM   32  C   UNL     1      37.799 -12.952   0.780  1.00  0.00     0.069 A 
HETATM   33  C   UNL     1      38.563 -12.705   1.923  1.00  0.00     0.048 A 
BRANCH  29  34
HETATM   34  O   UNL     1      41.753 -14.245   1.063  1.00  0.00    -0.355 OA
HETATM   35  C   UNL     1      41.990 -15.621   0.762  1.00  0.00     0.210 C 
ENDBRANCH  29  34
BRANCH  32  36
HETATM   36  O   UNL     1      36.486 -12.611   0.613  1.00  0.00    -0.356 OA
HETATM   37  C   UNL     1      36.202 -11.228   0.437  1.00  0.00     0.210 C 
ENDBRANCH  32  36
ENDBRANCH   3  28
BRANCH   5  38
HETATM   38  O   UNL     1      38.245 -11.767   4.876  1.00  0.00    -0.389 OA
HETATM   39  H   UNL     1      37.679 -12.189   5.549  1.00  0.00     0.210 HD
ENDBRANCH   5  38
TORSDOF 9
ENDMDL
MODEL 2
REMARK VINA RESULT:      -8.0      2.325      3.305
REMARK  9 active torsions:
REMARK  status: ('A' for Active; 'I' for Inactive)
REMARK    1  A    between atoms: C_3  and  C_4 
REMARK    2  A    between atoms: C_4  and  O_5 
REMARK    3  A    between atoms: C_8  and  N_9 
REMARK       I    between atoms: N_9  and  C_10 
REMARK    4  A    between atoms: C_10  and  C_11 
REMARK    5  A    between atoms: C_11  and  N_12 
REMARK    6  A    between atoms: C_14  and  C_15 
REMARK    7  A    between atoms: C_16  and  O_17 
REMARK    8  A    between atoms: C_21  and  O_22 
REMARK    9  A    between atoms: C_26  and  O_27 
ROOT
HETATM    1  N   UNL     1      41.684 -14.758   1.550  1.00  0.00    -0.054 N 
HETATM    2  H   UNL     1      42.006 -15.361   0.782  1.00  0.00     0.281 HD
HETATM    3  C   UNL     1      41.641 -13.380   0.871  1.00  0.00     0.231 C 
HETATM    4  C   UNL     1      40.606 -12.442   1.558  1.00  0.00     0.055 C 
HETATM    5  C   UNL     1      39.272 -13.068   2.012  1.00  0.00     0.065 C 
HETATM    6  C   UNL     1      39.526 -14.374   2.758  1.00  0.00     0.066 C 
HETATM    7  C   UNL     1      40.352 -15.333   1.921  1.00  0.00     0.239 C 
HETATM    8  C   UNL     1      40.373 -11.122   0.803  1.00  0.00     0.010 C 
HETATM    9  C   UNL     1      39.605 -10.129   1.677  1.00  0.00     0.001 C 
HETATM   10  C   UNL     1      38.302 -10.714   2.217  1.00  0.00     0.003 C 
HETATM   11  C   UNL     1      38.511 -12.066   2.907  1.00  0.00     0.038 C 
ENDROOT
BRANCH   1  12
HETATM   12  C   UNL     1      42.815 -14.948   2.570  1.00  0.00     0.338 C 
BRANCH  12  13
HETATM   13  C   UNL     1      43.535 -16.292   2.547  1.00  0.00     0.248 C 
HETATM   14  N   UNL     1      43.156 -17.157   3.563  1.00  0.00    -0.319 N 
HETATM   15  H   UNL     1      42.883 -16.781   4.462  1.00  0.00     0.169 HD
HETATM   16  O   UNL     1      44.431 -16.506   1.732  1.00  0.00    -0.271 OA
BRANCH  14  17
HETATM   17  C   UNL     1      43.670 -18.437   3.595  1.00  0.00     0.094 C 
HETATM   18  C   UNL     1      44.223 -19.207   4.601  1.00  0.00     0.080 C 
HETATM   19  C   UNL     1      44.449 -20.565   4.107  1.00  0.00    -0.030 C 
HETATM   20  C   UNL     1      44.980 -21.701   4.933  1.00  0.00     0.050 C 
HETATM   21  C   UNL     1      44.144 -20.677   2.754  1.00  0.00    -0.012 C 
HETATM   22  S   UNL     1      43.652 -19.188   2.081  1.00  0.00    -0.076 SA
HETATM   23  C   UNL     1      44.235 -21.886   1.876  1.00  0.00     0.057 C 
BRANCH  18  24
HETATM   24  C   UNL     1      44.577 -18.650   5.918  1.00  0.00     0.296 C 
HETATM   25  O   UNL     1      45.651 -18.101   6.150  1.00  0.00    -0.259 OA
BRANCH  24  26
HETATM   26  O   UNL     1      43.629 -18.879   6.870  1.00  0.00    -0.322 OA
HETATM   27  C   UNL     1      43.045 -17.709   7.447  1.00  0.00     0.213 C 
ENDBRANCH  24  26
ENDBRANCH  18  24
ENDBRANCH  14  17
ENDBRANCH  12  13
ENDBRANCH   1  12
BRANCH   3  28
HETATM   28  C   UNL     1      41.678 -13.550  -0.650  1.00  0.00     0.009 A 
HETATM   29  C   UNL     1      42.473 -12.674  -1.429  1.00  0.00     0.076 A 
HETATM   30  C   UNL     1      42.568 -12.845  -2.814  1.00  0.00     0.040 A 
HETATM   31  C   UNL     1      41.880 -13.881  -3.441  1.00  0.00     0.039 A 
HETATM   32  C   UNL     1      41.095 -14.754  -2.698  1.00  0.00     0.069 A 
HETATM   33  C   UNL     1      41.015 -14.597  -1.313  1.00  0.00     0.048 A 
BRANCH  29  34
HETATM   34  O   UNL     1      43.178 -11.718  -0.741  1.00  0.00    -0.355 OA
HETATM   35  C   UNL     1      43.326 -10.451  -1.381  1.00  0.00     0.210 C 
ENDBRANCH  29  34
BRANCH  32  36
HETATM   36  O   UNL     1      40.490 -15.743  -3.422  1.00  0.00    -0.356 OA
HETATM   37  C   UNL     1      39.179 -15.472  -3.904  1.00  0.00     0.210 C 
ENDBRANCH  32  36
ENDBRANCH   3  28
BRANCH   5  38
HETATM   38  O   UNL     1      38.459 -13.397   0.890  1.00  0.00    -0.389 OA
HETATM   39  H   UNL     1      38.422 -12.643   0.271  1.00  0.00     0.210 HD
ENDBRANCH   5  38
TORSDOF 9
ENDMDL
MODEL 3
REMARK VINA RESULT:      -7.9      3.704      8.494
REMARK  9 active torsions:
REMARK  status: ('A' for Active; 'I' for Inactive)
REMARK    1  A    between atoms: C_3  and  C_4 
REMARK    2  A    between atoms: C_4  and  O_5 
REMARK    3  A    between atoms: C_8  and  N_9 
REMARK       I    between atoms: N_9  and  C_10 
REMARK    4  A    between atoms: C_10  and  C_11 
REMARK    5  A    between atoms: C_11  and  N_12 
REMARK    6  A    between atoms: C_14  and  C_15 
REMARK    7  A    between atoms: C_16  and  O_17 
REMARK    8  A    between atoms: C_21  and  O_22 
REMARK    9  A    between atoms: C_26  and  O_27 
ROOT
HETATM    1  N   UNL     1      41.759 -13.997   5.006  1.00  0.00    -0.054 N 
HETATM    2  H   UNL     1      41.868 -14.117   6.022  1.00  0.00     0.281 HD
HETATM    3  C   UNL     1      42.773 -15.014   4.459  1.00  0.00     0.231 C 
HETATM    4  C   UNL     1      42.370 -15.509   3.039  1.00  0.00     0.055 C 
HETATM    5  C   UNL     1      40.873 -15.765   2.775  1.00  0.00     0.065 C 
HETATM    6  C   UNL     1      40.036 -14.600   3.294  1.00  0.00     0.066 C 
HETATM    7  C   UNL     1      40.320 -14.330   4.760  1.00  0.00     0.239 C 
HETATM    8  C   UNL     1      43.234 -16.672   2.523  1.00  0.00     0.010 C 
HETATM    9  C   UNL     1      43.001 -16.894   1.027  1.00  0.00     0.001 C 
HETATM   10  C   UNL     1      41.525 -17.087   0.689  1.00  0.00     0.003 C 
HETATM   11  C   UNL     1      40.644 -15.971   1.262  1.00  0.00     0.038 C 
ENDROOT
BRANCH   1  12
HETATM   12  C   UNL     1      42.156 -12.525   4.837  1.00  0.00     0.338 C 
BRANCH  12  13
HETATM   13  C   UNL     1      41.574 -11.542   5.847  1.00  0.00     0.248 C 
HETATM   14  N   UNL     1      41.630 -11.980   7.162  1.00  0.00    -0.319 N 
HETATM   15  H   UNL     1      41.548 -12.968   7.363  1.00  0.00     0.169 HD
HETATM   16  O   UNL     1      41.033 -10.504   5.469  1.00  0.00    -0.271 OA
BRANCH  14  17
HETATM   17  C   UNL     1      41.217 -11.141   8.177  1.00  0.00     0.094 C 
HETATM   18  C   UNL     1      41.878 -10.540   9.232  1.00  0.00     0.080 C 
HETATM   19  C   UNL     1      40.974  -9.609   9.907  1.00  0.00    -0.030 C 
HETATM   20  C   UNL     1      41.355  -8.727  11.060  1.00  0.00     0.050 C 
HETATM   21  C   UNL     1      39.691  -9.659   9.371  1.00  0.00    -0.012 C 
HETATM   22  S   UNL     1      39.557 -10.825   8.132  1.00  0.00    -0.076 SA
HETATM   23  C   UNL     1      38.483  -8.872   9.772  1.00  0.00     0.057 C 
BRANCH  18  24
HETATM   24  C   UNL     1      43.257 -10.897   9.607  1.00  0.00     0.296 C 
HETATM   25  O   UNL     1      44.217 -10.758   8.853  1.00  0.00    -0.259 OA
BRANCH  24  26
HETATM   26  O   UNL     1      43.347 -11.473  10.839  1.00  0.00    -0.322 OA
HETATM   27  C   UNL     1      44.358 -12.474  10.975  1.00  0.00     0.213 C 
ENDBRANCH  24  26
ENDBRANCH  18  24
ENDBRANCH  14  17
ENDBRANCH  12  13
ENDBRANCH   1  12
BRANCH   3  28
HETATM   28  C   UNL     1      43.170 -15.997   5.564  1.00  0.00     0.009 A 
HETATM   29  C   UNL     1      43.715 -15.501   6.774  1.00  0.00     0.076 A 
HETATM   30  C   UNL     1      44.032 -16.374   7.819  1.00  0.00     0.040 A 
HETATM   31  C   UNL     1      43.814 -17.743   7.679  1.00  0.00     0.039 A 
HETATM   32  C   UNL     1      43.280 -18.254   6.502  1.00  0.00     0.069 A 
HETATM   33  C   UNL     1      42.945 -17.381   5.465  1.00  0.00     0.048 A 
BRANCH  29  34
HETATM   34  O   UNL     1      43.839 -14.138   6.871  1.00  0.00    -0.355 OA
HETATM   35  C   UNL     1      45.113 -13.642   7.285  1.00  0.00     0.210 C 
ENDBRANCH  29  34
BRANCH  32  36
HETATM   36  O   UNL     1      43.090 -19.607   6.494  1.00  0.00    -0.356 OA
HETATM   37  C   UNL     1      44.159 -20.400   5.990  1.00  0.00     0.210 C 
ENDBRANCH  32  36
ENDBRANCH   3  28
BRANCH   5  38
HETATM   38  O   UNL     1      40.426 -16.923   3.473  1.00  0.00    -0.389 OA
HETATM   39  H   UNL     1      39.824 -17.443   2.907  1.00  0.00     0.210 HD
ENDBRANCH   5  38
TORSDOF 9
ENDMDL
MODEL 4
REMARK VINA RESULT:      -7.7      2.775      7.949
REMARK  9 active torsions:
REMARK  status: ('A' for Active; 'I' for Inactive)
REMARK    1  A    between atoms: C_3  and  C_4 
REMARK    2  A    between atoms: C_4  and  O_5 
REMARK    3  A    between atoms: C_8  and  N_9 
REMARK       I    between atoms: N_9  and  C_10 
REMARK    4  A    between atoms: C_10  and  C_11 
REMARK    5  A    between atoms: C_11  and  N_12 
REMARK    6  A    between atoms: C_14  and  C_15 
REMARK    7  A    between atoms: C_16  and  O_17 
REMARK    8  A    between atoms: C_21  and  O_22 
REMARK    9  A    between atoms: C_26  and  O_27 
ROOT
HETATM    1  N   UNL     1      42.539 -16.142   5.478  1.00  0.00    -0.054 N 
HETATM    2  H   UNL     1      42.908 -16.964   5.974  1.00  0.00     0.281 HD
HETATM    3  C   UNL     1      43.125 -16.336   4.070  1.00  0.00     0.231 C 
HETATM    4  C   UNL     1      42.240 -15.649   2.989  1.00  0.00     0.055 C 
HETATM    5  C   UNL     1      40.711 -15.745   3.157  1.00  0.00     0.065 C 
HETATM    6  C   UNL     1      40.313 -15.417   4.593  1.00  0.00     0.066 C 
HETATM    7  C   UNL     1      41.054 -16.298   5.582  1.00  0.00     0.239 C 
HETATM    8  C   UNL     1      42.663 -15.976   1.547  1.00  0.00     0.010 C 
HETATM    9  C   UNL     1      41.972 -15.037   0.556  1.00  0.00     0.001 C 
HETATM   10  C   UNL     1      40.454 -15.034   0.717  1.00  0.00     0.003 C 
HETATM   11  C   UNL     1      40.022 -14.783   2.166  1.00  0.00     0.038 C 
ENDROOT
BRANCH   1  12
HETATM   12  C   UNL     1      43.163 -15.000   6.292  1.00  0.00     0.338 C 
BRANCH  12  13
HETATM   13  C   UNL     1      42.840 -13.582   5.835  1.00  0.00     0.248 C 
HETATM   14  N   UNL     1      41.802 -12.983   6.533  1.00  0.00    -0.319 N 
HETATM   15  H   UNL     1      41.041 -13.553   6.882  1.00  0.00     0.169 HD
HETATM   16  O   UNL     1      43.419 -13.091   4.867  1.00  0.00    -0.271 OA
BRANCH  14  17
HETATM   17  C   UNL     1      41.476 -11.668   6.272  1.00  0.00     0.094 C 
HETATM   18  C   UNL     1      41.713 -10.486   6.947  1.00  0.00     0.080 C 
HETATM   19  C   UNL     1      41.282  -9.357   6.121  1.00  0.00    -0.030 C 
HETATM   20  C   UNL     1      41.438  -7.911   6.495  1.00  0.00     0.050 C 
HETATM   21  C   UNL     1      40.672  -9.785   4.947  1.00  0.00    -0.012 C 
HETATM   22  S   UNL     1      40.567 -11.486   4.859  1.00  0.00    -0.076 SA
HETATM   23  C   UNL     1      40.097  -8.955   3.841  1.00  0.00     0.057 C 
BRANCH  18  24
HETATM   24  C   UNL     1      42.245 -10.453   8.321  1.00  0.00     0.296 C 
HETATM   25  O   UNL     1      43.333 -10.931   8.633  1.00  0.00    -0.259 OA
BRANCH  24  26
HETATM   26  O   UNL     1      41.375  -9.915   9.221  1.00  0.00    -0.322 OA
HETATM   27  C   UNL     1      40.341 -10.792   9.673  1.00  0.00     0.213 C 
ENDBRANCH  24  26
ENDBRANCH  18  24
ENDBRANCH  14  17
ENDBRANCH  12  13
ENDBRANCH   1  12
BRANCH   3  28
HETATM   28  C   UNL     1      43.612 -17.778   3.905  1.00  0.00     0.009 A 
HETATM   29  C   UNL     1      44.419 -18.361   4.913  1.00  0.00     0.076 A 
HETATM   30  C   UNL     1      44.828 -19.694   4.812  1.00  0.00     0.040 A 
HETATM   31  C   UNL     1      44.445 -20.463   3.716  1.00  0.00     0.039 A 
HETATM   32  C   UNL     1      43.652 -19.915   2.715  1.00  0.00     0.069 A 
HETATM   33  C   UNL     1      43.227 -18.590   2.824  1.00  0.00     0.048 A 
BRANCH  29  34
HETATM   34  O   UNL     1      44.703 -17.568   5.997  1.00  0.00    -0.355 OA
HETATM   35  C   UNL     1      44.850 -18.234   7.252  1.00  0.00     0.210 C 
ENDBRANCH  29  34
BRANCH  32  36
HETATM   36  O   UNL     1      43.323 -20.775   1.705  1.00  0.00    -0.356 OA
HETATM   37  C   UNL     1      44.109 -21.954   1.585  1.00  0.00     0.210 C 
ENDBRANCH  32  36
ENDBRANCH   3  28
BRANCH   5  38
HETATM   38  O   UNL     1      40.256 -17.072   2.907  1.00  0.00    -0.389 OA
HETATM   39  H   UNL     1      39.316 -17.058   2.644  1.00  0.00     0.210 HD
ENDBRANCH   5  38
TORSDOF 9
ENDMDL
MODEL 5
REMARK VINA RESULT:      -7.7      3.312      8.558
REMARK  9 active torsions:
REMARK  status: ('A' for Active; 'I' for Inactive)
REMARK    1  A    between atoms: C_3  and  C_4 
REMARK    2  A    between atoms: C_4  and  O_5 
REMARK    3  A    between atoms: C_8  and  N_9 
REMARK       I    between atoms: N_9  and  C_10 
REMARK    4  A    between atoms: C_10  and  C_11 
REMARK    5  A    between atoms: C_11  and  N_12 
REMARK    6  A    between atoms: C_14  and  C_15 
REMARK    7  A    between atoms: C_16  and  O_17 
REMARK    8  A    between atoms: C_21  and  O_22 
REMARK    9  A    between atoms: C_26  and  O_27 
ROOT
HETATM    1  N   UNL     1      41.646 -13.812   4.937  1.00  0.00    -0.054 N 
HETATM    2  H   UNL     1      41.759 -13.943   5.951  1.00  0.00     0.281 HD
HETATM    3  C   UNL     1      42.664 -14.816   4.375  1.00  0.00     0.231 C 
HETATM    4  C   UNL     1      42.260 -15.296   2.950  1.00  0.00     0.055 C 
HETATM    5  C   UNL     1      40.764 -15.558   2.687  1.00  0.00     0.065 C 
HETATM    6  C   UNL     1      39.922 -14.404   3.222  1.00  0.00     0.066 C 
HETATM    7  C   UNL     1      40.208 -14.150   4.691  1.00  0.00     0.239 C 
HETATM    8  C   UNL     1      43.129 -16.448   2.418  1.00  0.00     0.010 C 
HETATM    9  C   UNL     1      42.893 -16.654   0.920  1.00  0.00     0.001 C 
HETATM   10  C   UNL     1      41.417 -16.851   0.584  1.00  0.00     0.003 C 
HETATM   11  C   UNL     1      40.532 -15.747   1.173  1.00  0.00     0.038 C 
ENDROOT
BRANCH   1  12
HETATM   12  C   UNL     1      42.034 -12.335   4.784  1.00  0.00     0.338 C 
BRANCH  12  13
HETATM   13  C   UNL     1      41.729 -11.424   5.969  1.00  0.00     0.248 C 
HETATM   14  N   UNL     1      41.848 -12.043   7.205  1.00  0.00    -0.319 N 
HETATM   15  H   UNL     1      41.626 -13.026   7.295  1.00  0.00     0.169 HD
HETATM   16  O   UNL     1      41.330 -10.275   5.787  1.00  0.00    -0.271 OA
BRANCH  14  17
HETATM   17  C   UNL     1      41.686 -11.299   8.356  1.00  0.00     0.094 C 
HETATM   18  C   UNL     1      40.575 -10.921   9.087  1.00  0.00     0.080 C 
HETATM   19  C   UNL     1      41.004 -10.271  10.325  1.00  0.00    -0.030 C 
HETATM   20  C   UNL     1      40.080  -9.781  11.402  1.00  0.00     0.050 C 
HETATM   21  C   UNL     1      42.387 -10.127  10.377  1.00  0.00    -0.012 C 
HETATM   22  S   UNL     1      43.147 -10.702   8.961  1.00  0.00    -0.076 SA
HETATM   23  C   UNL     1      43.219  -9.520  11.463  1.00  0.00     0.057 C 
BRANCH  18  24
HETATM   24  C   UNL     1      39.201 -11.105   8.588  1.00  0.00     0.296 C 
HETATM   25  O   UNL     1      38.796 -12.159   8.105  1.00  0.00    -0.259 OA
BRANCH  24  26
HETATM   26  O   UNL     1      38.454  -9.966   8.641  1.00  0.00    -0.322 OA
HETATM   27  C   UNL     1      38.886  -8.910   7.780  1.00  0.00     0.213 C 
ENDBRANCH  24  26
ENDBRANCH  18  24
ENDBRANCH  14  17
ENDBRANCH  12  13
ENDBRANCH   1  12
BRANCH   3  28
HETATM   28  C   UNL     1      43.070 -15.809   5.467  1.00  0.00     0.009 A 
HETATM   29  C   UNL     1      43.726 -15.337   6.630  1.00  0.00     0.076 A 
HETATM   30  C   UNL     1      44.056 -16.216   7.666  1.00  0.00     0.040 A 
HETATM   31  C   UNL     1      43.740 -17.569   7.563  1.00  0.00     0.039 A 
HETATM   32  C   UNL     1      43.096 -18.057   6.433  1.00  0.00     0.069 A 
HETATM   33  C   UNL     1      42.749 -17.177   5.406  1.00  0.00     0.048 A 
BRANCH  29  34
HETATM   34  O   UNL     1      43.946 -13.983   6.696  1.00  0.00    -0.355 OA
HETATM   35  C   UNL     1      45.179 -13.565   7.282  1.00  0.00     0.210 C 
ENDBRANCH  29  34
BRANCH  32  36
HETATM   36  O   UNL     1      42.819 -19.395   6.459  1.00  0.00    -0.356 OA
HETATM   37  C   UNL     1      43.927 -20.275   6.610  1.00  0.00     0.210 C 
ENDBRANCH  32  36
ENDBRANCH   3  28
BRANCH   5  38
HETATM   38  O   UNL     1      40.326 -16.727   3.373  1.00  0.00    -0.389 OA
HETATM   39  H   UNL     1      41.088 -17.304   3.570  1.00  0.00     0.210 HD
ENDBRANCH   5  38
TORSDOF 9
ENDMDL
MODEL 6
REMARK VINA RESULT:      -7.7      3.145      5.909
REMARK  9 active torsions:
REMARK  status: ('A' for Active; 'I' for Inactive)
REMARK    1  A    between atoms: C_3  and  C_4 
REMARK    2  A    between atoms: C_4  and  O_5 
REMARK    3  A    between atoms: C_8  and  N_9 
REMARK       I    between atoms: N_9  and  C_10 
REMARK    4  A    between atoms: C_10  and  C_11 
REMARK    5  A    between atoms: C_11  and  N_12 
REMARK    6  A    between atoms: C_14  and  C_15 
REMARK    7  A    between atoms: C_16  and  O_17 
REMARK    8  A    between atoms: C_21  and  O_22 
REMARK    9  A    between atoms: C_26  and  O_27 
ROOT
HETATM    1  N   UNL     1      40.367 -14.162   0.611  1.00  0.00    -0.054 N 
HETATM    2  H   UNL     1      40.704 -13.306   1.071  1.00  0.00     0.281 HD
HETATM    3  C   UNL     1      39.298 -13.606  -0.343  1.00  0.00     0.231 C 
HETATM    4  C   UNL     1      39.104 -14.532  -1.579  1.00  0.00     0.055 C 
HETATM    5  C   UNL     1      40.367 -15.166  -2.197  1.00  0.00     0.065 C 
HETATM    6  C   UNL     1      41.252 -15.756  -1.103  1.00  0.00     0.066 C 
HETATM    7  C   UNL     1      41.591 -14.717  -0.050  1.00  0.00     0.239 C 
HETATM    8  C   UNL     1      38.196 -13.930  -2.665  1.00  0.00     0.010 C 
HETATM    9  C   UNL     1      37.795 -14.998  -3.686  1.00  0.00     0.001 C 
HETATM   10  C   UNL     1      39.003 -15.713  -4.285  1.00  0.00     0.003 C 
HETATM   11  C   UNL     1      39.954 -16.253  -3.212  1.00  0.00     0.038 C 
ENDROOT
BRANCH   1  12
HETATM   12  C   UNL     1      39.824 -14.950   1.810  1.00  0.00     0.338 C 
BRANCH  12  13
HETATM   13  C   UNL     1      40.855 -15.475   2.804  1.00  0.00     0.248 C 
HETATM   14  N   UNL     1      40.629 -16.778   3.221  1.00  0.00    -0.319 N 
HETATM   15  H   UNL     1      39.680 -17.120   3.299  1.00  0.00     0.169 HD
HETATM   16  O   UNL     1      41.739 -14.736   3.235  1.00  0.00    -0.271 OA
BRANCH  14  17
HETATM   17  C   UNL     1      41.544 -17.396   4.049  1.00  0.00     0.094 C 
HETATM   18  C   UNL     1      42.620 -18.229   3.812  1.00  0.00     0.080 C 
HETATM   19  C   UNL     1      43.349 -18.454   5.060  1.00  0.00    -0.030 C 
HETATM   20  C   UNL     1      44.611 -19.257   5.185  1.00  0.00     0.050 C 
HETATM   21  C   UNL     1      42.709 -17.857   6.142  1.00  0.00    -0.012 C 
HETATM   22  S   UNL     1      41.251 -17.096   5.687  1.00  0.00    -0.076 SA
HETATM   23  C   UNL     1      43.124 -17.850   7.580  1.00  0.00     0.057 C 
BRANCH  18  24
HETATM   24  C   UNL     1      42.881 -18.826   2.490  1.00  0.00     0.296 C 
HETATM   25  O   UNL     1      43.063 -20.029   2.319  1.00  0.00    -0.259 OA
BRANCH  24  26
HETATM   26  O   UNL     1      42.981 -17.902   1.493  1.00  0.00    -0.322 OA
HETATM   27  C   UNL     1      44.233 -17.217   1.417  1.00  0.00     0.213 C 
ENDBRANCH  24  26
ENDBRANCH  18  24
ENDBRANCH  14  17
ENDBRANCH  12  13
ENDBRANCH   1  12
BRANCH   3  28
HETATM   28  C   UNL     1      39.479 -12.093  -0.499  1.00  0.00     0.009 A 
HETATM   29  C   UNL     1      38.463 -11.220  -0.039  1.00  0.00     0.076 A 
HETATM   30  C   UNL     1      38.630  -9.834  -0.119  1.00  0.00     0.040 A 
HETATM   31  C   UNL     1      39.800  -9.298  -0.653  1.00  0.00     0.039 A 
HETATM   32  C   UNL     1      40.812 -10.134  -1.110  1.00  0.00     0.069 A 
HETATM   33  C   UNL     1      40.654 -11.518  -1.013  1.00  0.00     0.048 A 
BRANCH  29  34
HETATM   34  O   UNL     1      37.368 -11.812   0.537  1.00  0.00    -0.355 OA
HETATM   35  C   UNL     1      36.340 -10.935   1.002  1.00  0.00     0.210 C 
ENDBRANCH  29  34
BRANCH  32  36
HETATM   36  O   UNL     1      41.919  -9.492  -1.589  1.00  0.00    -0.356 OA
HETATM   37  C   UNL     1      42.786 -10.250  -2.425  1.00  0.00     0.210 C 
ENDBRANCH  32  36
ENDBRANCH   3  28
BRANCH   5  38
HETATM   38  O   UNL     1      41.153 -14.183  -2.864  1.00  0.00    -0.389 OA
HETATM   39  H   UNL     1      41.964 -14.592  -3.223  1.00  0.00     0.210 HD
ENDBRANCH   5  38
TORSDOF 9
ENDMDL
MODEL 7
REMARK VINA RESULT:      -7.6      2.559      4.003
REMARK  9 active torsions:
REMARK  status: ('A' for Active; 'I' for Inactive)
REMARK    1  A    between atoms: C_3  and  C_4 
REMARK    2  A    between atoms: C_4  and  O_5 
REMARK    3  A    between atoms: C_8  and  N_9 
REMARK       I    between atoms: N_9  and  C_10 
REMARK    4  A    between atoms: C_10  and  C_11 
REMARK    5  A    between atoms: C_11  and  N_12 
REMARK    6  A    between atoms: C_14  and  C_15 
REMARK    7  A    between atoms: C_16  and  O_17 
REMARK    8  A    between atoms: C_21  and  O_22 
REMARK    9  A    between atoms: C_26  and  O_27 
ROOT
HETATM    1  N   UNL     1      40.471 -13.916   1.385  1.00  0.00    -0.054 N 
HETATM    2  H   UNL     1      41.170 -14.488   0.893  1.00  0.00     0.281 HD
HETATM    3  C   UNL     1      40.535 -12.597   0.600  1.00  0.00     0.231 C 
HETATM    4  C   UNL     1      39.188 -11.820   0.684  1.00  0.00     0.055 C 
HETATM    5  C   UNL     1      37.888 -12.645   0.610  1.00  0.00     0.065 C 
HETATM    6  C   UNL     1      37.973 -13.855   1.536  1.00  0.00     0.066 C 
HETATM    7  C   UNL     1      39.201 -14.693   1.230  1.00  0.00     0.239 C 
HETATM    8  C   UNL     1      39.123 -10.594  -0.243  1.00  0.00     0.010 C 
HETATM    9  C   UNL     1      37.926  -9.710   0.115  1.00  0.00     0.001 C 
HETATM   10  C   UNL     1      36.612 -10.486   0.127  1.00  0.00     0.003 C 
HETATM   11  C   UNL     1      36.688 -11.751   0.989  1.00  0.00     0.038 C 
ENDROOT
BRANCH   1  12
HETATM   12  C   UNL     1      41.070 -13.864   2.797  1.00  0.00     0.338 C 
BRANCH  12  13
HETATM   13  C   UNL     1      42.123 -14.916   3.129  1.00  0.00     0.248 C 
HETATM   14  N   UNL     1      41.601 -16.161   3.447  1.00  0.00    -0.319 N 
HETATM   15  H   UNL     1      40.707 -16.223   3.916  1.00  0.00     0.169 HD
HETATM   16  O   UNL     1      43.314 -14.612   3.184  1.00  0.00    -0.271 OA
BRANCH  14  17
HETATM   17  C   UNL     1      42.457 -17.219   3.677  1.00  0.00     0.094 C 
HETATM   18  C   UNL     1      43.081 -17.697   4.814  1.00  0.00     0.080 C 
HETATM   19  C   UNL     1      43.750 -18.961   4.508  1.00  0.00    -0.030 C 
HETATM   20  C   UNL     1      44.482 -19.810   5.508  1.00  0.00     0.050 C 
HETATM   21  C   UNL     1      43.659 -19.276   3.156  1.00  0.00    -0.012 C 
HETATM   22  S   UNL     1      42.843 -18.068   2.268  1.00  0.00    -0.076 SA
HETATM   23  C   UNL     1      44.204 -20.472   2.440  1.00  0.00     0.057 C 
BRANCH  18  24
HETATM   24  C   UNL     1      43.094 -16.948   6.083  1.00  0.00     0.296 C 
HETATM   25  O   UNL     1      42.081 -16.722   6.741  1.00  0.00    -0.259 OA
BRANCH  24  26
HETATM   26  O   UNL     1      44.325 -16.463   6.407  1.00  0.00    -0.322 OA
HETATM   27  C   UNL     1      44.345 -15.118   6.890  1.00  0.00     0.213 C 
ENDBRANCH  24  26
ENDBRANCH  18  24
ENDBRANCH  14  17
ENDBRANCH  12  13
ENDBRANCH   1  12
BRANCH   3  28
HETATM   28  C   UNL     1      41.243 -12.823  -0.739  1.00  0.00     0.009 A 
HETATM   29  C   UNL     1      42.416 -12.088  -1.040  1.00  0.00     0.076 A 
HETATM   30  C   UNL     1      43.112 -12.319  -2.230  1.00  0.00     0.040 A 
HETATM   31  C   UNL     1      42.657 -13.277  -3.134  1.00  0.00     0.039 A 
HETATM   32  C   UNL     1      41.510 -14.012  -2.861  1.00  0.00     0.069 A 
HETATM   33  C   UNL     1      40.825 -13.797  -1.663  1.00  0.00     0.048 A 
BRANCH  29  34
HETATM   34  O   UNL     1      42.846 -11.210  -0.077  1.00  0.00    -0.355 OA
HETATM   35  C   UNL     1      43.214  -9.904  -0.523  1.00  0.00     0.210 C 
ENDBRANCH  29  34
BRANCH  32  36
HETATM   36  O   UNL     1      41.178 -14.938  -3.810  1.00  0.00    -0.356 OA
HETATM   37  C   UNL     1      40.077 -15.790  -3.515  1.00  0.00     0.210 C 
ENDBRANCH  32  36
ENDBRANCH   3  28
BRANCH   5  38
HETATM   38  O   UNL     1      37.687 -13.158  -0.704  1.00  0.00    -0.389 OA
HETATM   39  H   UNL     1      37.289 -12.472  -1.273  1.00  0.00     0.210 HD
ENDBRANCH   5  38
TORSDOF 9
ENDMDL
MODEL 8
REMARK VINA RESULT:      -7.5      3.064      4.904
REMARK  9 active torsions:
REMARK  status: ('A' for Active; 'I' for Inactive)
REMARK    1  A    between atoms: C_3  and  C_4 
REMARK    2  A    between atoms: C_4  and  O_5 
REMARK    3  A    between atoms: C_8  and  N_9 
REMARK       I    between atoms: N_9  and  C_10 
REMARK    4  A    between atoms: C_10  and  C_11 
REMARK    5  A    between atoms: C_11  and  N_12 
REMARK    6  A    between atoms: C_14  and  C_15 
REMARK    7  A    between atoms: C_16  and  O_17 
REMARK    8  A    between atoms: C_21  and  O_22 
REMARK    9  A    between atoms: C_26  and  O_27 
ROOT
HETATM    1  N   UNL     1      40.576 -14.287  -0.728  1.00  0.00    -0.054 N 
HETATM    2  H   UNL     1      39.604 -14.625  -0.724  1.00  0.00     0.281 HD
HETATM    3  C   UNL     1      40.615 -13.462  -2.025  1.00  0.00     0.231 C 
HETATM    4  C   UNL     1      41.696 -12.343  -1.952  1.00  0.00     0.055 C 
HETATM    5  C   UNL     1      41.854 -11.596  -0.613  1.00  0.00     0.065 C 
HETATM    6  C   UNL     1      41.900 -12.587   0.546  1.00  0.00     0.066 C 
HETATM    7  C   UNL     1      40.684 -13.496   0.538  1.00  0.00     0.239 C 
HETATM    8  C   UNL     1      41.648 -11.361  -3.135  1.00  0.00     0.010 C 
HETATM    9  C   UNL     1      42.909 -10.496  -3.169  1.00  0.00     0.001 C 
HETATM   10  C   UNL     1      43.161  -9.780  -1.845  1.00  0.00     0.003 C 
HETATM   11  C   UNL     1      43.138 -10.739  -0.650  1.00  0.00     0.038 C 
ENDROOT
BRANCH   1  12
HETATM   12  C   UNL     1      41.351 -15.611  -0.774  1.00  0.00     0.338 C 
BRANCH  12  13
HETATM   13  C   UNL     1      41.629 -16.283   0.566  1.00  0.00     0.248 C 
HETATM   14  N   UNL     1      42.965 -16.277   0.938  1.00  0.00    -0.319 N 
HETATM   15  H   UNL     1      43.682 -16.327   0.226  1.00  0.00     0.169 HD
HETATM   16  O   UNL     1      40.725 -16.847   1.181  1.00  0.00    -0.271 OA
BRANCH  14  17
HETATM   17  C   UNL     1      43.330 -16.775   2.172  1.00  0.00     0.094 C 
HETATM   18  C   UNL     1      43.347 -16.231   3.442  1.00  0.00     0.080 C 
HETATM   19  C   UNL     1      43.672 -17.274   4.416  1.00  0.00    -0.030 C 
HETATM   20  C   UNL     1      43.722 -17.074   5.903  1.00  0.00     0.050 C 
HETATM   21  C   UNL     1      43.969 -18.482   3.793  1.00  0.00    -0.012 C 
HETATM   22  S   UNL     1      43.912 -18.360   2.092  1.00  0.00    -0.076 SA
HETATM   23  C   UNL     1      44.347 -19.786   4.424  1.00  0.00     0.057 C 
BRANCH  18  24
HETATM   24  C   UNL     1      43.139 -14.793   3.689  1.00  0.00     0.296 C 
HETATM   25  O   UNL     1      43.852 -13.918   3.206  1.00  0.00    -0.259 OA
BRANCH  24  26
HETATM   26  O   UNL     1      42.129 -14.540   4.569  1.00  0.00    -0.322 OA
HETATM   27  C   UNL     1      40.812 -14.806   4.083  1.00  0.00     0.213 C 
ENDBRANCH  24  26
ENDBRANCH  18  24
ENDBRANCH  14  17
ENDBRANCH  12  13
ENDBRANCH   1  12
BRANCH   3  28
HETATM   28  C   UNL     1      39.189 -13.166  -2.495  1.00  0.00     0.009 A 
HETATM   29  C   UNL     1      38.611 -13.964  -3.512  1.00  0.00     0.076 A 
HETATM   30  C   UNL     1      37.290 -13.749  -3.918  1.00  0.00     0.040 A 
HETATM   31  C   UNL     1      36.529 -12.745  -3.324  1.00  0.00     0.039 A 
HETATM   32  C   UNL     1      37.073 -11.949  -2.323  1.00  0.00     0.069 A 
HETATM   33  C   UNL     1      38.385 -12.175  -1.903  1.00  0.00     0.048 A 
BRANCH  29  34
HETATM   34  O   UNL     1      39.392 -14.979  -4.006  1.00  0.00    -0.355 OA
HETATM   35  C   UNL     1      38.762 -16.251  -4.160  1.00  0.00     0.210 C 
ENDBRANCH  29  34
BRANCH  32  36
HETATM   36  O   UNL     1      36.222 -11.015  -1.802  1.00  0.00    -0.356 OA
HETATM   37  C   UNL     1      36.086 -10.994  -0.386  1.00  0.00     0.210 C 
ENDBRANCH  32  36
ENDBRANCH   3  28
BRANCH   5  38
HETATM   38  O   UNL     1      40.736 -10.746  -0.371  1.00  0.00    -0.389 OA
HETATM   39  H   UNL     1      40.255 -10.582  -1.204  1.00  0.00     0.210 HD
ENDBRANCH   5  38
TORSDOF 9
ENDMDL
MODEL 9
REMARK VINA RESULT:      -7.4      3.863      7.709
REMARK  9 active torsions:
REMARK  status: ('A' for Active; 'I' for Inactive)
REMARK    1  A    between atoms: C_3  and  C_4 
REMARK    2  A    between atoms: C_4  and  O_5 
REMARK    3  A    between atoms: C_8  and  N_9 
REMARK       I    between atoms: N_9  and  C_10 
REMARK    4  A    between atoms: C_10  and  C_11 
REMARK    5  A    between atoms: C_11  and  N_12 
REMARK    6  A    between atoms: C_14  and  C_15 
REMARK    7  A    between atoms: C_16  and  O_17 
REMARK    8  A    between atoms: C_21  and  O_22 
REMARK    9  A    between atoms: C_26  and  O_27 
ROOT
HETATM    1  N   UNL     1      40.888 -12.747   4.641  1.00  0.00    -0.054 N 
HETATM    2  H   UNL     1      40.762 -11.904   4.064  1.00  0.00     0.281 HD
HETATM    3  C   UNL     1      40.696 -13.867   3.607  1.00  0.00     0.231 C 
HETATM    4  C   UNL     1      41.453 -15.161   4.027  1.00  0.00     0.055 C 
HETATM    5  C   UNL     1      42.848 -14.993   4.663  1.00  0.00     0.065 C 
HETATM    6  C   UNL     1      42.813 -13.911   5.737  1.00  0.00     0.066 C 
HETATM    7  C   UNL     1      42.276 -12.604   5.182  1.00  0.00     0.239 C 
HETATM    8  C   UNL     1      41.464 -16.250   2.940  1.00  0.00     0.010 C 
HETATM    9  C   UNL     1      41.935 -17.585   3.519  1.00  0.00     0.001 C 
HETATM   10  C   UNL     1      43.284 -17.472   4.225  1.00  0.00     0.003 C 
HETATM   11  C   UNL     1      43.307 -16.341   5.259  1.00  0.00     0.038 C 
ENDROOT
BRANCH   1  12
HETATM   12  C   UNL     1      39.743 -12.588   5.651  1.00  0.00     0.338 C 
BRANCH  12  13
HETATM   13  C   UNL     1      39.832 -11.397   6.599  1.00  0.00     0.248 C 
HETATM   14  N   UNL     1      39.851 -11.742   7.943  1.00  0.00    -0.319 N 
HETATM   15  H   UNL     1      39.344 -12.559   8.256  1.00  0.00     0.169 HD
HETATM   16  O   UNL     1      39.795 -10.248   6.163  1.00  0.00    -0.271 OA
BRANCH  14  17
HETATM   17  C   UNL     1      40.020 -10.758   8.895  1.00  0.00     0.094 C 
HETATM   18  C   UNL     1      41.136 -10.218   9.507  1.00  0.00     0.080 C 
HETATM   19  C   UNL     1      40.738  -9.073  10.326  1.00  0.00    -0.030 C 
HETATM   20  C   UNL     1      41.685  -8.195  11.092  1.00  0.00     0.050 C 
HETATM   21  C   UNL     1      39.357  -8.908  10.340  1.00  0.00    -0.012 C 
HETATM   22  S   UNL     1      38.555 -10.120   9.446  1.00  0.00    -0.076 SA
HETATM   23  C   UNL     1      38.552  -7.864  11.050  1.00  0.00     0.057 C 
BRANCH  18  24
HETATM   24  C   UNL     1      42.477 -10.814   9.372  1.00  0.00     0.296 C 
HETATM   25  O   UNL     1      43.074 -10.892   8.301  1.00  0.00    -0.259 OA
BRANCH  24  26
HETATM   26  O   UNL     1      42.950 -11.342  10.536  1.00  0.00    -0.322 OA
HETATM   27  C   UNL     1      44.164 -12.087  10.421  1.00  0.00     0.213 C 
ENDBRANCH  24  26
ENDBRANCH  18  24
ENDBRANCH  14  17
ENDBRANCH  12  13
ENDBRANCH   1  12
BRANCH   3  28
HETATM   28  C   UNL     1      40.817 -13.295   2.193  1.00  0.00     0.009 A 
HETATM   29  C   UNL     1      39.731 -13.425   1.293  1.00  0.00     0.076 A 
HETATM   30  C   UNL     1      39.797 -12.861   0.015  1.00  0.00     0.040 A 
HETATM   31  C   UNL     1      40.934 -12.163  -0.385  1.00  0.00     0.039 A 
HETATM   32  C   UNL     1      42.012 -12.020   0.480  1.00  0.00     0.069 A 
HETATM   33  C   UNL     1      41.940 -12.566   1.763  1.00  0.00     0.048 A 
BRANCH  29  34
HETATM   34  O   UNL     1      38.617 -14.065   1.775  1.00  0.00    -0.355 OA
HETATM   35  C   UNL     1      37.512 -14.185   0.877  1.00  0.00     0.210 C 
ENDBRANCH  29  34
BRANCH  32  36
HETATM   36  O   UNL     1      43.059 -11.295  -0.018  1.00  0.00    -0.356 OA
HETATM   37  C   UNL     1      43.033 -11.008  -1.411  1.00  0.00     0.210 C 
ENDBRANCH  32  36
ENDBRANCH   3  28
BRANCH   5  38
HETATM   38  O   UNL     1      43.799 -14.567   3.693  1.00  0.00    -0.389 OA
HETATM   39  H   UNL     1      44.205 -13.724   3.971  1.00  0.00     0.210 HD
ENDBRANCH   5  38
TORSDOF 9
ENDMDL
MODEL 10
REMARK VINA RESULT:      -7.3      2.910      4.534
REMARK  9 active torsions:
REMARK  status: ('A' for Active; 'I' for Inactive)
REMARK    1  A    between atoms: C_3  and  C_4 
REMARK    2  A    between atoms: C_4  and  O_5 
REMARK    3  A    between atoms: C_8  and  N_9 
REMARK       I    between atoms: N_9  and  C_10 
REMARK    4  A    between atoms: C_10  and  C_11 
REMARK    5  A    between atoms: C_11  and  N_12 
REMARK    6  A    between atoms: C_14  and  C_15 
REMARK    7  A    between atoms: C_16  and  O_17 
REMARK    8  A    between atoms: C_21  and  O_22 
REMARK    9  A    between atoms: C_26  and  O_27 
ROOT
HETATM    1  N   UNL     1      40.724 -13.375   1.337  1.00  0.00    -0.054 N 
HETATM    2  H   UNL     1      41.337 -14.040   0.846  1.00  0.00     0.281 HD
HETATM    3  C   UNL     1      40.662 -12.209   0.337  1.00  0.00     0.231 C 
HETATM    4  C   UNL     1      39.345 -11.395   0.497  1.00  0.00     0.055 C 
HETATM    5  C   UNL     1      38.050 -12.186   0.768  1.00  0.00     0.065 C 
HETATM    6  C   UNL     1      38.281 -13.224   1.862  1.00  0.00     0.066 C 
HETATM    7  C   UNL     1      39.446 -14.134   1.517  1.00  0.00     0.239 C 
HETATM    8  C   UNL     1      39.134 -10.341  -0.604  1.00  0.00     0.010 C 
HETATM    9  C   UNL     1      38.008  -9.378  -0.220  1.00  0.00     0.001 C 
HETATM   10  C   UNL     1      36.712 -10.106   0.128  1.00  0.00     0.003 C 
HETATM   11  C   UNL     1      36.924 -11.209   1.171  1.00  0.00     0.038 C 
ENDROOT
BRANCH   1  12
HETATM   12  C   UNL     1      41.539 -13.102   2.608  1.00  0.00     0.338 C 
BRANCH  12  13
HETATM   13  C   UNL     1      42.359 -14.266   3.155  1.00  0.00     0.248 C 
HETATM   14  N   UNL     1      41.601 -15.362   3.540  1.00  0.00    -0.319 N 
HETATM   15  H   UNL     1      40.672 -15.220   3.915  1.00  0.00     0.169 HD
HETATM   16  O   UNL     1      43.574 -14.156   3.305  1.00  0.00    -0.271 OA
BRANCH  14  17
HETATM   17  C   UNL     1      42.235 -16.511   3.966  1.00  0.00     0.094 C 
HETATM   18  C   UNL     1      42.955 -17.491   3.309  1.00  0.00     0.080 C 
HETATM   19  C   UNL     1      43.549 -18.401   4.288  1.00  0.00    -0.030 C 
HETATM   20  C   UNL     1      44.450 -19.554   3.954  1.00  0.00     0.050 C 
HETATM   21  C   UNL     1      43.149 -18.091   5.585  1.00  0.00    -0.012 C 
HETATM   22  S   UNL     1      42.053 -16.783   5.624  1.00  0.00    -0.076 SA
HETATM   23  C   UNL     1      43.529 -18.770   6.863  1.00  0.00     0.057 C 
BRANCH  18  24
HETATM   24  C   UNL     1      43.000 -17.586   1.839  1.00  0.00     0.296 C 
HETATM   25  O   UNL     1      44.046 -17.569   1.195  1.00  0.00    -0.259 OA
BRANCH  24  26
HETATM   26  O   UNL     1      41.764 -17.612   1.264  1.00  0.00    -0.322 OA
HETATM   27  C   UNL     1      41.569 -16.687   0.193  1.00  0.00     0.213 C 
ENDBRANCH  24  26
ENDBRANCH  18  24
ENDBRANCH  14  17
ENDBRANCH  12  13
ENDBRANCH   1  12
BRANCH   3  28
HETATM   28  C   UNL     1      41.150 -12.677  -1.037  1.00  0.00     0.009 A 
HETATM   29  C   UNL     1      42.416 -12.253  -1.508  1.00  0.00     0.076 A 
HETATM   30  C   UNL     1      42.907 -12.712  -2.734  1.00  0.00     0.040 A 
HETATM   31  C   UNL     1      42.154 -13.595  -3.505  1.00  0.00     0.039 A 
HETATM   32  C   UNL     1      40.909 -14.027  -3.063  1.00  0.00     0.069 A 
HETATM   33  C   UNL     1      40.426 -13.584  -1.830  1.00  0.00     0.048 A 
BRANCH  29  34
HETATM   34  O   UNL     1      43.135 -11.438  -0.669  1.00  0.00    -0.355 OA
HETATM   35  C   UNL     1      43.536 -10.173  -1.197  1.00  0.00     0.210 C 
ENDBRANCH  29  34
BRANCH  32  36
HETATM   36  O   UNL     1      40.277 -14.909  -3.894  1.00  0.00    -0.356 OA
HETATM   37  C   UNL     1      38.901 -15.161  -3.632  1.00  0.00     0.210 C 
ENDBRANCH  32  36
ENDBRANCH   3  28
BRANCH   5  38
HETATM   38  O   UNL     1      37.644 -12.907  -0.391  1.00  0.00    -0.389 OA
HETATM   39  H   UNL     1      37.021 -12.371  -0.918  1.00  0.00     0.210 HD
ENDBRANCH   5  38
TORSDOF 9
ENDMDL
