MODEL 1
REMARK VINA RESULT:      -9.6      0.000      0.000
REMARK  4 active torsions:
REMARK  status: ('A' for Active; 'I' for Inactive)
REMARK    1  A    between atoms: C_2  and  C_5 
REMARK    2  A    between atoms: C_8  and  C_11 
REMARK    3  A    between atoms: C_17  and  C_18 
REMARK    4  A    between atoms: C_24  and  C_30 
ROOT
HETATM    1  C   UNL     1      42.548 -14.645   3.429  1.00  0.00     0.091 A 
HETATM    2  N   UNL     1      43.127 -15.377   2.482  1.00  0.00    -0.345 N 
HETATM    3  H   UNL     1      43.386 -14.971   1.584  1.00  0.00     0.167 HD
HETATM    4  C   UNL     1      43.378 -16.709   2.693  1.00  0.00     0.049 A 
HETATM    5  C   UNL     1      44.009 -17.464   1.704  1.00  0.00     0.031 A 
HETATM    6  C   UNL     1      44.316 -18.817   1.927  1.00  0.00     0.014 A 
HETATM    7  C   UNL     1      43.999 -19.443   3.143  1.00  0.00    -0.022 A 
HETATM    8  C   UNL     1      43.349 -18.697   4.130  1.00  0.00     0.031 A 
HETATM    9  C   UNL     1      43.048 -17.352   3.888  1.00  0.00     0.059 A 
HETATM   10  C   UNL     1      42.377 -16.544   4.897  1.00  0.00     0.259 A 
HETATM   11  O   UNL     1      41.994 -16.905   5.988  1.00  0.00    -0.267 OA
HETATM   12  N   UNL     1      42.170 -15.174   4.578  1.00  0.00    -0.312 N 
HETATM   13  H   UNL     1      41.694 -14.662   5.309  1.00  0.00     0.170 HD
ENDROOT
BRANCH   1  14
HETATM   14  C   UNL     1      42.335 -13.184   3.174  1.00  0.00     0.089 C 
HETATM   15  C   UNL     1      41.002 -12.875   2.476  1.00  0.00     0.057 C 
HETATM   16  C   UNL     1      40.755 -11.394   2.798  1.00  0.00     0.242 C 
HETATM   17  N   UNL     1      41.353 -11.205   4.164  1.00  0.00    -0.074 N 
HETATM   18  H   UNL     1      41.848 -10.296   4.208  1.00  0.00     0.277 HD
HETATM   19  H   UNL     1      40.606 -11.116   4.875  1.00  0.00     0.277 HD
HETATM   20  C   UNL     1      42.271 -12.354   4.462  1.00  0.00     0.245 C 
BRANCH  15  21
HETATM   21  C   UNL     1      41.014 -13.169   0.996  1.00  0.00    -0.051 A 
HETATM   22  C   UNL     1      40.126 -14.088   0.412  1.00  0.00     0.008 A 
HETATM   23  C   UNL     1      40.190 -14.378  -0.955  1.00  0.00     0.017 A 
HETATM   24  C   UNL     1      41.138 -13.755  -1.774  1.00  0.00     0.047 A 
HETATM   25  C   UNL     1      42.010 -12.820  -1.199  1.00  0.00     0.017 A 
HETATM   26  C   UNL     1      41.950 -12.530   0.169  1.00  0.00     0.008 A 
BRANCH  24  27
HETATM   27  C   UNL     1      41.233 -14.075  -3.252  1.00  0.00     0.417 C 
HETATM   28  F   UNL     1      40.019 -14.164  -3.856  1.00  0.00    -0.166 F 
HETATM   29  F   UNL     1      41.866 -15.254  -3.484  1.00  0.00    -0.166 F 
HETATM   30  F   UNL     1      41.927 -13.122  -3.929  1.00  0.00    -0.166 F 
ENDBRANCH  24  27
ENDBRANCH  15  21
ENDBRANCH   1  14
BRANCH   7  31
HETATM   31  C   UNL     1      44.353 -20.828   3.398  1.00  0.00     0.010 A 
HETATM   32  C   UNL     1      44.351 -21.952   2.538  1.00  0.00     0.152 A 
HETATM   33  N   UNL     1      44.755 -23.066   3.147  1.00  0.00    -0.187 NA
HETATM   34  N   UNL     1      45.021 -22.671   4.400  1.00  0.00    -0.289 N 
HETATM   35  H   UNL     1      45.355 -23.364   5.065  1.00  0.00     0.188 HD
HETATM   36  C   UNL     1      44.795 -21.337   4.601  1.00  0.00     0.123 A 
ENDBRANCH   7  31
TORSDOF 4
ENDMDL
MODEL 2
REMARK VINA RESULT:      -9.3      6.240      8.131
REMARK  4 active torsions:
REMARK  status: ('A' for Active; 'I' for Inactive)
REMARK    1  A    between atoms: C_2  and  C_5 
REMARK    2  A    between atoms: C_8  and  C_11 
REMARK    3  A    between atoms: C_17  and  C_18 
REMARK    4  A    between atoms: C_24  and  C_30 
ROOT
HETATM    1  C   UNL     1      41.020 -12.836   5.804  1.00  0.00     0.091 A 
HETATM    2  N   UNL     1      40.726 -14.060   6.230  1.00  0.00    -0.345 N 
HETATM    3  H   UNL     1      39.958 -14.224   6.880  1.00  0.00     0.167 HD
HETATM    4  C   UNL     1      41.464 -15.137   5.807  1.00  0.00     0.049 A 
HETATM    5  C   UNL     1      41.133 -16.421   6.239  1.00  0.00     0.031 A 
HETATM    6  C   UNL     1      41.851 -17.537   5.775  1.00  0.00     0.014 A 
HETATM    7  C   UNL     1      42.914 -17.391   4.870  1.00  0.00    -0.022 A 
HETATM    8  C   UNL     1      43.263 -16.105   4.450  1.00  0.00     0.031 A 
HETATM    9  C   UNL     1      42.539 -15.006   4.926  1.00  0.00     0.059 A 
HETATM   10  C   UNL     1      42.872 -13.652   4.503  1.00  0.00     0.259 A 
HETATM   11  O   UNL     1      43.769 -13.317   3.760  1.00  0.00    -0.267 OA
HETATM   12  N   UNL     1      42.039 -12.611   4.996  1.00  0.00    -0.312 N 
HETATM   13  H   UNL     1      42.319 -11.692   4.678  1.00  0.00     0.170 HD
ENDROOT
BRANCH   1  14
HETATM   14  C   UNL     1      40.158 -11.695   6.254  1.00  0.00     0.089 C 
HETATM   15  C   UNL     1      40.957 -10.513   6.820  1.00  0.00     0.057 C 
HETATM   16  C   UNL     1      39.990  -9.326   6.703  1.00  0.00     0.242 C 
HETATM   17  N   UNL     1      39.187  -9.622   5.468  1.00  0.00    -0.074 N 
HETATM   18  H   UNL     1      38.194  -9.373   5.626  1.00  0.00     0.277 HD
HETATM   19  H   UNL     1      39.478  -9.001   4.692  1.00  0.00     0.277 HD
HETATM   20  C   UNL     1      39.347 -11.071   5.111  1.00  0.00     0.245 C 
BRANCH  15  21
HETATM   21  C   UNL     1      41.455 -10.740   8.228  1.00  0.00    -0.051 A 
HETATM   22  C   UNL     1      40.589 -10.737   9.334  1.00  0.00     0.008 A 
HETATM   23  C   UNL     1      41.084 -10.902  10.631  1.00  0.00     0.017 A 
HETATM   24  C   UNL     1      42.453 -11.079  10.858  1.00  0.00     0.047 A 
HETATM   25  C   UNL     1      43.316 -11.107   9.754  1.00  0.00     0.017 A 
HETATM   26  C   UNL     1      42.825 -10.939   8.455  1.00  0.00     0.008 A 
BRANCH  24  27
HETATM   27  C   UNL     1      43.005 -11.239  12.260  1.00  0.00     0.417 C 
HETATM   28  F   UNL     1      42.041 -11.206  13.217  1.00  0.00    -0.166 F 
HETATM   29  F   UNL     1      43.895 -10.264  12.577  1.00  0.00    -0.166 F 
HETATM   30  F   UNL     1      43.655 -12.422  12.412  1.00  0.00    -0.166 F 
ENDBRANCH  24  27
ENDBRANCH  15  21
ENDBRANCH   1  14
BRANCH   7  31
HETATM   31  C   UNL     1      43.632 -18.541   4.352  1.00  0.00     0.010 A 
HETATM   32  C   UNL     1      43.623 -19.128   3.064  1.00  0.00     0.152 A 
HETATM   33  N   UNL     1      44.435 -20.181   2.972  1.00  0.00    -0.187 NA
HETATM   34  N   UNL     1      44.973 -20.280   4.196  1.00  0.00    -0.289 N 
HETATM   35  H   UNL     1      45.642 -21.026   4.370  1.00  0.00     0.188 HD
HETATM   36  C   UNL     1      44.523 -19.320   5.060  1.00  0.00     0.123 A 
ENDBRANCH   7  31
TORSDOF 4
ENDMDL
MODEL 3
REMARK VINA RESULT:      -9.2      4.050      7.963
REMARK  4 active torsions:
REMARK  status: ('A' for Active; 'I' for Inactive)
REMARK    1  A    between atoms: C_2  and  C_5 
REMARK    2  A    between atoms: C_8  and  C_11 
REMARK    3  A    between atoms: C_17  and  C_18 
REMARK    4  A    between atoms: C_24  and  C_30 
ROOT
HETATM    1  C   UNL     1      41.305 -15.206   3.577  1.00  0.00     0.091 A 
HETATM    2  N   UNL     1      42.000 -14.349   2.835  1.00  0.00    -0.345 N 
HETATM    3  H   UNL     1      42.916 -14.016   3.130  1.00  0.00     0.167 HD
HETATM    4  C   UNL     1      41.486 -13.883   1.651  1.00  0.00     0.049 A 
HETATM    5  C   UNL     1      42.233 -13.004   0.866  1.00  0.00     0.031 A 
HETATM    6  C   UNL     1      41.738 -12.558  -0.372  1.00  0.00     0.014 A 
HETATM    7  C   UNL     1      40.489 -12.982  -0.850  1.00  0.00    -0.022 A 
HETATM    8  C   UNL     1      39.728 -13.846  -0.058  1.00  0.00     0.031 A 
HETATM    9  C   UNL     1      40.235 -14.276   1.173  1.00  0.00     0.059 A 
HETATM   10  C   UNL     1      39.471 -15.183   2.020  1.00  0.00     0.259 A 
HETATM   11  O   UNL     1      38.366 -15.631   1.803  1.00  0.00    -0.267 OA
HETATM   12  N   UNL     1      40.098 -15.607   3.222  1.00  0.00    -0.312 N 
HETATM   13  H   UNL     1      39.522 -16.229   3.775  1.00  0.00     0.170 HD
ENDROOT
BRANCH   1  14
HETATM   14  C   UNL     1      41.924 -15.725   4.839  1.00  0.00     0.089 C 
HETATM   15  C   UNL     1      43.390 -16.148   4.669  1.00  0.00     0.057 C 
HETATM   16  C   UNL     1      43.948 -16.118   6.100  1.00  0.00     0.242 C 
HETATM   17  N   UNL     1      43.194 -15.004   6.770  1.00  0.00    -0.074 N 
HETATM   18  H   UNL     1      42.947 -15.280   7.737  1.00  0.00     0.277 HD
HETATM   19  H   UNL     1      43.805 -14.179   6.895  1.00  0.00     0.277 HD
HETATM   20  C   UNL     1      41.976 -14.676   5.956  1.00  0.00     0.245 C 
BRANCH  15  21
HETATM   21  C   UNL     1      43.558 -17.487   3.992  1.00  0.00    -0.051 A 
HETATM   22  C   UNL     1      43.268 -17.675   2.631  1.00  0.00     0.008 A 
HETATM   23  C   UNL     1      43.386 -18.937   2.040  1.00  0.00     0.017 A 
HETATM   24  C   UNL     1      43.801 -20.042   2.792  1.00  0.00     0.047 A 
HETATM   25  C   UNL     1      44.115 -19.853   4.145  1.00  0.00     0.017 A 
HETATM   26  C   UNL     1      43.994 -18.592   4.739  1.00  0.00     0.008 A 
BRANCH  24  27
HETATM   27  C   UNL     1      43.913 -21.420   2.170  1.00  0.00     0.417 C 
HETATM   28  F   UNL     1      42.793 -21.792   1.496  1.00  0.00    -0.166 F 
HETATM   29  F   UNL     1      44.144 -22.385   3.096  1.00  0.00    -0.166 F 
HETATM   30  F   UNL     1      44.936 -21.486   1.277  1.00  0.00    -0.166 F 
ENDBRANCH  24  27
ENDBRANCH  15  21
ENDBRANCH   1  14
BRANCH   7  31
HETATM   31  C   UNL     1      39.990 -12.561  -2.147  1.00  0.00     0.010 A 
HETATM   32  C   UNL     1      40.305 -11.425  -2.930  1.00  0.00     0.152 A 
HETATM   33  N   UNL     1      39.637 -11.393  -4.083  1.00  0.00    -0.187 NA
HETATM   34  N   UNL     1      38.890 -12.506  -4.053  1.00  0.00    -0.289 N 
HETATM   35  H   UNL     1      38.284 -12.702  -4.846  1.00  0.00     0.188 HD
HETATM   36  C   UNL     1      39.066 -13.240  -2.912  1.00  0.00     0.123 A 
ENDBRANCH   7  31
TORSDOF 4
ENDMDL
MODEL 4
REMARK VINA RESULT:      -9.2      4.056      8.178
REMARK  4 active torsions:
REMARK  status: ('A' for Active; 'I' for Inactive)
REMARK    1  A    between atoms: C_2  and  C_5 
REMARK    2  A    between atoms: C_8  and  C_11 
REMARK    3  A    between atoms: C_17  and  C_18 
REMARK    4  A    between atoms: C_24  and  C_30 
ROOT
HETATM    1  C   UNL     1      41.587 -15.229   3.801  1.00  0.00     0.091 A 
HETATM    2  N   UNL     1      40.354 -15.481   3.373  1.00  0.00    -0.345 N 
HETATM    3  H   UNL     1      39.763 -16.169   3.837  1.00  0.00     0.167 HD
HETATM    4  C   UNL     1      39.852 -14.820   2.280  1.00  0.00     0.049 A 
HETATM    5  C   UNL     1      38.548 -15.070   1.853  1.00  0.00     0.031 A 
HETATM    6  C   UNL     1      38.005 -14.364   0.766  1.00  0.00     0.014 A 
HETATM    7  C   UNL     1      38.755 -13.394   0.084  1.00  0.00    -0.022 A 
HETATM    8  C   UNL     1      40.069 -13.153   0.495  1.00  0.00     0.031 A 
HETATM    9  C   UNL     1      40.593 -13.868   1.577  1.00  0.00     0.059 A 
HETATM   10  C   UNL     1      41.956 -13.637   2.035  1.00  0.00     0.259 A 
HETATM   11  O   UNL     1      42.768 -12.873   1.562  1.00  0.00    -0.267 OA
HETATM   12  N   UNL     1      42.374 -14.371   3.179  1.00  0.00    -0.312 N 
HETATM   13  H   UNL     1      43.329 -14.178   3.450  1.00  0.00     0.170 HD
ENDROOT
BRANCH   1  14
HETATM   14  C   UNL     1      42.078 -15.940   5.026  1.00  0.00     0.089 C 
HETATM   15  C   UNL     1      43.504 -16.491   4.881  1.00  0.00     0.057 C 
HETATM   16  C   UNL     1      43.977 -16.669   6.331  1.00  0.00     0.242 C 
HETATM   17  N   UNL     1      43.297 -15.560   7.083  1.00  0.00    -0.074 N 
HETATM   18  H   UNL     1      42.968 -15.909   8.001  1.00  0.00     0.277 HD
HETATM   19  H   UNL     1      43.978 -14.820   7.327  1.00  0.00     0.277 HD
HETATM   20  C   UNL     1      42.166 -15.024   6.253  1.00  0.00     0.245 C 
BRANCH  15  21
HETATM   21  C   UNL     1      43.579 -17.762   4.069  1.00  0.00    -0.051 A 
HETATM   22  C   UNL     1      42.921 -17.898   2.835  1.00  0.00     0.008 A 
HETATM   23  C   UNL     1      42.968 -19.103   2.127  1.00  0.00     0.017 A 
HETATM   24  C   UNL     1      43.677 -20.200   2.629  1.00  0.00     0.047 A 
HETATM   25  C   UNL     1      44.355 -20.059   3.848  1.00  0.00     0.017 A 
HETATM   26  C   UNL     1      44.306 -18.857   4.560  1.00  0.00     0.008 A 
BRANCH  24  27
HETATM   27  C   UNL     1      43.719 -21.518   1.882  1.00  0.00     0.417 C 
HETATM   28  F   UNL     1      44.184 -22.545   2.642  1.00  0.00    -0.166 F 
HETATM   29  F   UNL     1      44.515 -21.462   0.783  1.00  0.00    -0.166 F 
HETATM   30  F   UNL     1      42.486 -21.891   1.450  1.00  0.00    -0.166 F 
ENDBRANCH  24  27
ENDBRANCH  15  21
ENDBRANCH   1  14
BRANCH   7  31
HETATM   31  C   UNL     1      38.188 -12.629  -1.012  1.00  0.00     0.010 A 
HETATM   32  C   UNL     1      38.533 -12.591  -2.384  1.00  0.00     0.152 A 
HETATM   33  N   UNL     1      37.763 -11.761  -3.086  1.00  0.00    -0.187 NA
HETATM   34  N   UNL     1      36.917 -11.259  -2.176  1.00  0.00    -0.289 N 
HETATM   35  H   UNL     1      36.218 -10.588  -2.485  1.00  0.00     0.188 HD
HETATM   36  C   UNL     1      37.131 -11.748  -0.917  1.00  0.00     0.123 A 
ENDBRANCH   7  31
TORSDOF 4
ENDMDL
MODEL 5
REMARK VINA RESULT:      -9.2      1.478      1.972
REMARK  4 active torsions:
REMARK  status: ('A' for Active; 'I' for Inactive)
REMARK    1  A    between atoms: C_2  and  C_5 
REMARK    2  A    between atoms: C_8  and  C_11 
REMARK    3  A    between atoms: C_17  and  C_18 
REMARK    4  A    between atoms: C_24  and  C_30 
ROOT
HETATM    1  C   UNL     1      41.821 -14.529   3.334  1.00  0.00     0.091 A 
HETATM    2  N   UNL     1      42.570 -15.100   2.397  1.00  0.00    -0.345 N 
HETATM    3  H   UNL     1      42.913 -14.569   1.597  1.00  0.00     0.167 HD
HETATM    4  C   UNL     1      42.890 -16.432   2.481  1.00  0.00     0.049 A 
HETATM    5  C   UNL     1      43.698 -17.017   1.507  1.00  0.00     0.031 A 
HETATM    6  C   UNL     1      44.073 -18.368   1.608  1.00  0.00     0.014 A 
HETATM    7  C   UNL     1      43.648 -19.160   2.685  1.00  0.00    -0.022 A 
HETATM    8  C   UNL     1      42.821 -18.584   3.654  1.00  0.00     0.031 A 
HETATM    9  C   UNL     1      42.456 -17.239   3.534  1.00  0.00     0.059 A 
HETATM   10  C   UNL     1      41.601 -16.606   4.530  1.00  0.00     0.259 A 
HETATM   11  O   UNL     1      41.107 -17.124   5.507  1.00  0.00    -0.267 OA
HETATM   12  N   UNL     1      41.336 -15.221   4.349  1.00  0.00    -0.312 N 
HETATM   13  H   UNL     1      40.733 -14.833   5.063  1.00  0.00     0.170 HD
ENDROOT
BRANCH   1  14
HETATM   14  C   UNL     1      41.535 -13.061   3.227  1.00  0.00     0.089 C 
HETATM   15  C   UNL     1      40.047 -12.743   3.020  1.00  0.00     0.057 C 
HETATM   16  C   UNL     1      39.919 -11.281   3.470  1.00  0.00     0.242 C 
HETATM   17  N   UNL     1      40.933 -11.139   4.570  1.00  0.00    -0.074 N 
HETATM   18  H   UNL     1      41.415 -10.226   4.488  1.00  0.00     0.277 HD
HETATM   19  H   UNL     1      40.462 -11.090   5.490  1.00  0.00     0.277 HD
HETATM   20  C   UNL     1      41.898 -12.286   4.500  1.00  0.00     0.245 C 
BRANCH  15  21
HETATM   21  C   UNL     1      39.571 -12.977   1.607  1.00  0.00    -0.051 A 
HETATM   22  C   UNL     1      40.164 -12.338   0.505  1.00  0.00     0.008 A 
HETATM   23  C   UNL     1      39.671 -12.536  -0.788  1.00  0.00     0.017 A 
HETATM   24  C   UNL     1      38.578 -13.379  -1.016  1.00  0.00     0.047 A 
HETATM   25  C   UNL     1      38.000 -14.037   0.078  1.00  0.00     0.017 A 
HETATM   26  C   UNL     1      38.488 -13.839   1.374  1.00  0.00     0.008 A 
BRANCH  24  27
HETATM   27  C   UNL     1      38.021 -13.586  -2.410  1.00  0.00     0.417 C 
HETATM   28  F   UNL     1      37.496 -14.826  -2.595  1.00  0.00    -0.166 F 
HETATM   29  F   UNL     1      38.966 -13.422  -3.372  1.00  0.00    -0.166 F 
HETATM   30  F   UNL     1      37.025 -12.705  -2.690  1.00  0.00    -0.166 F 
ENDBRANCH  24  27
ENDBRANCH  15  21
ENDBRANCH   1  14
BRANCH   7  31
HETATM   31  C   UNL     1      44.066 -20.544   2.821  1.00  0.00     0.010 A 
HETATM   32  C   UNL     1      44.097 -21.593   1.873  1.00  0.00     0.152 A 
HETATM   33  N   UNL     1      44.562 -22.734   2.382  1.00  0.00    -0.187 NA
HETATM   34  N   UNL     1      44.834 -22.429   3.659  1.00  0.00    -0.289 N 
HETATM   35  H   UNL     1      45.210 -23.158   4.259  1.00  0.00     0.188 HD
HETATM   36  C   UNL     1      44.554 -21.127   3.972  1.00  0.00     0.123 A 
ENDBRANCH   7  31
TORSDOF 4
ENDMDL
MODEL 6
REMARK VINA RESULT:      -9.2      4.057      8.208
REMARK  4 active torsions:
REMARK  status: ('A' for Active; 'I' for Inactive)
REMARK    1  A    between atoms: C_2  and  C_5 
REMARK    2  A    between atoms: C_8  and  C_11 
REMARK    3  A    between atoms: C_17  and  C_18 
REMARK    4  A    between atoms: C_24  and  C_30 
ROOT
HETATM    1  C   UNL     1      42.060 -15.983   4.527  1.00  0.00     0.091 A 
HETATM    2  N   UNL     1      40.883 -16.187   3.945  1.00  0.00    -0.345 N 
HETATM    3  H   UNL     1      40.262 -16.934   4.253  1.00  0.00     0.167 HD
HETATM    4  C   UNL     1      40.481 -15.394   2.898  1.00  0.00     0.049 A 
HETATM    5  C   UNL     1      39.232 -15.599   2.310  1.00  0.00     0.031 A 
HETATM    6  C   UNL     1      38.789 -14.763   1.271  1.00  0.00     0.014 A 
HETATM    7  C   UNL     1      39.584 -13.707   0.799  1.00  0.00    -0.022 A 
HETATM    8  C   UNL     1      40.843 -13.511   1.371  1.00  0.00     0.031 A 
HETATM    9  C   UNL     1      41.269 -14.355   2.402  1.00  0.00     0.059 A 
HETATM   10  C   UNL     1      42.574 -14.174   3.025  1.00  0.00     0.259 A 
HETATM   11  O   UNL     1      43.413 -13.349   2.740  1.00  0.00    -0.267 OA
HETATM   12  N   UNL     1      42.888 -15.046   4.103  1.00  0.00    -0.312 N 
HETATM   13  H   UNL     1      43.807 -14.881   4.494  1.00  0.00     0.170 HD
ENDROOT
BRANCH   1  14
HETATM   14  C   UNL     1      42.439 -16.841   5.696  1.00  0.00     0.089 C 
HETATM   15  C   UNL     1      43.879 -17.369   5.624  1.00  0.00     0.057 C 
HETATM   16  C   UNL     1      44.211 -17.726   7.080  1.00  0.00     0.242 C 
HETATM   17  N   UNL     1      43.447 -16.721   7.893  1.00  0.00    -0.074 N 
HETATM   18  H   UNL     1      43.035 -17.182   8.724  1.00  0.00     0.277 HD
HETATM   19  H   UNL     1      44.091 -16.017   8.294  1.00  0.00     0.277 HD
HETATM   20  C   UNL     1      42.396 -16.086   7.030  1.00  0.00     0.245 C 
BRANCH  15  21
HETATM   21  C   UNL     1      44.049 -18.528   4.671  1.00  0.00    -0.051 A 
HETATM   22  C   UNL     1      43.596 -18.473   3.342  1.00  0.00     0.008 A 
HETATM   23  C   UNL     1      43.724 -19.579   2.496  1.00  0.00     0.017 A 
HETATM   24  C   UNL     1      44.310 -20.765   2.951  1.00  0.00     0.047 A 
HETATM   25  C   UNL     1      44.785 -20.814   4.269  1.00  0.00     0.017 A 
HETATM   26  C   UNL     1      44.656 -19.711   5.120  1.00  0.00     0.008 A 
BRANCH  24  27
HETATM   27  C   UNL     1      44.436 -21.977   2.051  1.00  0.00     0.417 C 
HETATM   28  F   UNL     1      45.445 -21.866   1.147  1.00  0.00    -0.166 F 
HETATM   29  F   UNL     1      43.304 -22.209   1.338  1.00  0.00    -0.166 F 
HETATM   30  F   UNL     1      44.685 -23.108   2.763  1.00  0.00    -0.166 F 
ENDBRANCH  24  27
ENDBRANCH  15  21
ENDBRANCH   1  14
BRANCH   7  31
HETATM   31  C   UNL     1      39.115 -12.812  -0.244  1.00  0.00     0.010 A 
HETATM   32  C   UNL     1      39.766 -11.738  -0.896  1.00  0.00     0.152 A 
HETATM   33  N   UNL     1      39.000 -11.155  -1.818  1.00  0.00    -0.187 NA
HETATM   34  N   UNL     1      37.853 -11.847  -1.768  1.00  0.00    -0.289 N 
HETATM   35  H   UNL     1      37.101 -11.580  -2.398  1.00  0.00     0.188 HD
HETATM   36  C   UNL     1      37.872 -12.852  -0.840  1.00  0.00     0.123 A 
ENDBRANCH   7  31
TORSDOF 4
ENDMDL
MODEL 7
REMARK VINA RESULT:      -9.0      4.051      8.232
REMARK  4 active torsions:
REMARK  status: ('A' for Active; 'I' for Inactive)
REMARK    1  A    between atoms: C_2  and  C_5 
REMARK    2  A    between atoms: C_8  and  C_11 
REMARK    3  A    between atoms: C_17  and  C_18 
REMARK    4  A    between atoms: C_24  and  C_30 
ROOT
HETATM    1  C   UNL     1      41.784 -15.368   2.862  1.00  0.00     0.091 A 
HETATM    2  N   UNL     1      41.986 -14.062   2.717  1.00  0.00    -0.345 N 
HETATM    3  H   UNL     1      42.149 -13.459   3.522  1.00  0.00     0.167 HD
HETATM    4  C   UNL     1      41.965 -13.492   1.468  1.00  0.00     0.049 A 
HETATM    5  C   UNL     1      42.203 -12.126   1.322  1.00  0.00     0.031 A 
HETATM    6  C   UNL     1      42.233 -11.540   0.045  1.00  0.00     0.014 A 
HETATM    7  C   UNL     1      42.026 -12.307  -1.111  1.00  0.00    -0.022 A 
HETATM    8  C   UNL     1      41.768 -13.674  -0.969  1.00  0.00     0.031 A 
HETATM    9  C   UNL     1      41.738 -14.238   0.310  1.00  0.00     0.059 A 
HETATM   10  C   UNL     1      41.478 -15.660   0.494  1.00  0.00     0.259 A 
HETATM   11  O   UNL     1      41.244 -16.479  -0.368  1.00  0.00    -0.267 OA
HETATM   12  N   UNL     1      41.528 -16.147   1.828  1.00  0.00    -0.312 N 
HETATM   13  H   UNL     1      41.333 -17.138   1.899  1.00  0.00     0.170 HD
ENDROOT
BRANCH   1  14
HETATM   14  C   UNL     1      41.863 -15.955   4.239  1.00  0.00     0.089 C 
HETATM   15  C   UNL     1      43.259 -16.482   4.599  1.00  0.00     0.057 C 
HETATM   16  C   UNL     1      43.253 -16.519   6.134  1.00  0.00     0.242 C 
HETATM   17  N   UNL     1      42.375 -15.366   6.530  1.00  0.00    -0.074 N 
HETATM   18  H   UNL     1      41.773 -15.640   7.327  1.00  0.00     0.277 HD
HETATM   19  H   UNL     1      42.947 -14.590   6.907  1.00  0.00     0.277 HD
HETATM   20  C   UNL     1      41.564 -14.933   5.343  1.00  0.00     0.245 C 
BRANCH  15  21
HETATM   21  C   UNL     1      43.581 -17.817   3.971  1.00  0.00    -0.051 A 
HETATM   22  C   UNL     1      43.694 -17.978   2.580  1.00  0.00     0.008 A 
HETATM   23  C   UNL     1      43.945 -19.236   2.023  1.00  0.00     0.017 A 
HETATM   24  C   UNL     1      44.095 -20.363   2.839  1.00  0.00     0.047 A 
HETATM   25  C   UNL     1      44.007 -20.200   4.228  1.00  0.00     0.017 A 
HETATM   26  C   UNL     1      43.752 -18.944   4.788  1.00  0.00     0.008 A 
BRANCH  24  27
HETATM   27  C   UNL     1      44.347 -21.735   2.247  1.00  0.00     0.417 C 
HETATM   28  F   UNL     1      44.465 -22.707   3.189  1.00  0.00    -0.166 F 
HETATM   29  F   UNL     1      45.485 -21.776   1.507  1.00  0.00    -0.166 F 
HETATM   30  F   UNL     1      43.336 -22.121   1.425  1.00  0.00    -0.166 F 
ENDBRANCH  24  27
ENDBRANCH  15  21
ENDBRANCH   1  14
BRANCH   7  31
HETATM   31  C   UNL     1      42.099 -11.719  -2.436  1.00  0.00     0.010 A 
HETATM   32  C   UNL     1      42.386 -10.393  -2.840  1.00  0.00     0.152 A 
HETATM   33  N   UNL     1      42.369 -10.243  -4.164  1.00  0.00    -0.187 NA
HETATM   34  N   UNL     1      42.073 -11.467  -4.623  1.00  0.00    -0.289 N 
HETATM   35  H   UNL     1      42.006 -11.602  -5.628  1.00  0.00     0.188 HD
HETATM   36  C   UNL     1      41.901 -12.387  -3.625  1.00  0.00     0.123 A 
ENDBRANCH   7  31
TORSDOF 4
ENDMDL
MODEL 8
REMARK VINA RESULT:      -9.0      2.220      2.824
REMARK  4 active torsions:
REMARK  status: ('A' for Active; 'I' for Inactive)
REMARK    1  A    between atoms: C_2  and  C_5 
REMARK    2  A    between atoms: C_8  and  C_11 
REMARK    3  A    between atoms: C_17  and  C_18 
REMARK    4  A    between atoms: C_24  and  C_30 
ROOT
HETATM    1  C   UNL     1      42.644 -14.876   4.186  1.00  0.00     0.091 A 
HETATM    2  N   UNL     1      42.830 -15.770   5.152  1.00  0.00    -0.345 N 
HETATM    3  H   UNL     1      42.667 -15.534   6.130  1.00  0.00     0.167 HD
HETATM    4  C   UNL     1      43.261 -17.037   4.849  1.00  0.00     0.049 A 
HETATM    5  C   UNL     1      43.430 -17.977   5.866  1.00  0.00     0.031 A 
HETATM    6  C   UNL     1      43.824 -19.292   5.563  1.00  0.00     0.014 A 
HETATM    7  C   UNL     1      44.057 -19.693   4.239  1.00  0.00    -0.022 A 
HETATM    8  C   UNL     1      43.909 -18.750   3.219  1.00  0.00     0.031 A 
HETATM    9  C   UNL     1      43.520 -17.445   3.539  1.00  0.00     0.059 A 
HETATM   10  C   UNL     1      43.350 -16.439   2.499  1.00  0.00     0.259 A 
HETATM   11  O   UNL     1      43.534 -16.577   1.310  1.00  0.00    -0.267 OA
HETATM   12  N   UNL     1      42.895 -15.161   2.922  1.00  0.00    -0.312 N 
HETATM   13  H   UNL     1      42.801 -14.499   2.162  1.00  0.00     0.170 HD
ENDROOT
BRANCH   1  14
HETATM   14  C   UNL     1      42.127 -13.519   4.558  1.00  0.00     0.089 C 
HETATM   15  C   UNL     1      40.595 -13.451   4.637  1.00  0.00     0.057 C 
HETATM   16  C   UNL     1      40.327 -12.219   5.514  1.00  0.00     0.242 C 
HETATM   17  N   UNL     1      41.482 -12.190   6.475  1.00  0.00    -0.074 N 
HETATM   18  H   UNL     1      41.800 -11.214   6.612  1.00  0.00     0.277 HD
HETATM   19  H   UNL     1      41.174 -12.485   7.418  1.00  0.00     0.277 HD
HETATM   20  C   UNL     1      42.583 -13.065   5.950  1.00  0.00     0.245 C 
BRANCH  15  21
HETATM   21  C   UNL     1      39.923 -13.378   3.286  1.00  0.00    -0.051 A 
HETATM   22  C   UNL     1      39.289 -14.490   2.708  1.00  0.00     0.008 A 
HETATM   23  C   UNL     1      38.717 -14.408   1.435  1.00  0.00     0.017 A 
HETATM   24  C   UNL     1      38.759 -13.212   0.709  1.00  0.00     0.047 A 
HETATM   25  C   UNL     1      39.369 -12.094   1.293  1.00  0.00     0.017 A 
HETATM   26  C   UNL     1      39.946 -12.174   2.565  1.00  0.00     0.008 A 
BRANCH  24  27
HETATM   27  C   UNL     1      38.161 -13.114  -0.681  1.00  0.00     0.417 C 
HETATM   28  F   UNL     1      37.873 -14.327  -1.222  1.00  0.00    -0.166 F 
HETATM   29  F   UNL     1      38.991 -12.489  -1.555  1.00  0.00    -0.166 F 
HETATM   30  F   UNL     1      36.998 -12.411  -0.679  1.00  0.00    -0.166 F 
ENDBRANCH  24  27
ENDBRANCH  15  21
ENDBRANCH   1  14
BRANCH   7  31
HETATM   31  C   UNL     1      44.421 -21.061   3.914  1.00  0.00     0.010 A 
HETATM   32  C   UNL     1      44.457 -21.732   2.669  1.00  0.00     0.152 A 
HETATM   33  N   UNL     1      44.860 -22.998   2.778  1.00  0.00    -0.187 NA
HETATM   34  N   UNL     1      45.086 -23.152   4.090  1.00  0.00    -0.289 N 
HETATM   35  H   UNL     1      45.411 -24.057   4.420  1.00  0.00     0.188 HD
HETATM   36  C   UNL     1      44.838 -22.018   4.814  1.00  0.00     0.123 A 
ENDBRANCH   7  31
TORSDOF 4
ENDMDL
MODEL 9
REMARK VINA RESULT:      -8.9      4.677      8.124
REMARK  4 active torsions:
REMARK  status: ('A' for Active; 'I' for Inactive)
REMARK    1  A    between atoms: C_2  and  C_5 
REMARK    2  A    between atoms: C_8  and  C_11 
REMARK    3  A    between atoms: C_17  and  C_18 
REMARK    4  A    between atoms: C_24  and  C_30 
ROOT
HETATM    1  C   UNL     1      42.340 -14.601   3.509  1.00  0.00     0.091 A 
HETATM    2  N   UNL     1      43.394 -14.856   4.278  1.00  0.00    -0.345 N 
HETATM    3  H   UNL     1      44.076 -15.569   4.023  1.00  0.00     0.167 HD
HETATM    4  C   UNL     1      43.581 -14.165   5.449  1.00  0.00     0.049 A 
HETATM    5  C   UNL     1      44.703 -14.420   6.237  1.00  0.00     0.031 A 
HETATM    6  C   UNL     1      44.930 -13.684   7.413  1.00  0.00     0.014 A 
HETATM    7  C   UNL     1      44.041 -12.680   7.824  1.00  0.00    -0.022 A 
HETATM    8  C   UNL     1      42.905 -12.434   7.049  1.00  0.00     0.031 A 
HETATM    9  C   UNL     1      42.693 -13.178   5.884  1.00  0.00     0.059 A 
HETATM   10  C   UNL     1      41.523 -12.943   5.049  1.00  0.00     0.259 A 
HETATM   11  O   UNL     1      40.628 -12.151   5.249  1.00  0.00    -0.267 OA
HETATM   12  N   UNL     1      41.430 -13.711   3.856  1.00  0.00    -0.312 N 
HETATM   13  H   UNL     1      40.596 -13.513   3.319  1.00  0.00     0.170 HD
ENDROOT
BRANCH   1  14
HETATM   14  C   UNL     1      42.201 -15.347   2.216  1.00  0.00     0.089 C 
HETATM   15  C   UNL     1      41.456 -16.682   2.359  1.00  0.00     0.057 C 
HETATM   16  C   UNL     1      40.969 -16.984   0.934  1.00  0.00     0.242 C 
HETATM   17  N   UNL     1      40.701 -15.631   0.338  1.00  0.00    -0.074 N 
HETATM   18  H   UNL     1      41.024 -15.610  -0.645  1.00  0.00     0.277 HD
HETATM   19  H   UNL     1      39.682 -15.464   0.268  1.00  0.00     0.277 HD
HETATM   20  C   UNL     1      41.380 -14.582   1.171  1.00  0.00     0.245 C 
BRANCH  15  21
HETATM   21  C   UNL     1      42.303 -17.785   2.947  1.00  0.00    -0.051 A 
HETATM   22  C   UNL     1      42.310 -18.066   4.323  1.00  0.00     0.008 A 
HETATM   23  C   UNL     1      43.140 -19.062   4.847  1.00  0.00     0.017 A 
HETATM   24  C   UNL     1      43.979 -19.806   4.011  1.00  0.00     0.047 A 
HETATM   25  C   UNL     1      43.956 -19.545   2.634  1.00  0.00     0.017 A 
HETATM   26  C   UNL     1      43.129 -18.547   2.107  1.00  0.00     0.008 A 
BRANCH  24  27
HETATM   27  C   UNL     1      44.899 -20.875   4.567  1.00  0.00     0.417 C 
HETATM   28  F   UNL     1      46.206 -20.502   4.572  1.00  0.00    -0.166 F 
HETATM   29  F   UNL     1      44.831 -22.032   3.860  1.00  0.00    -0.166 F 
HETATM   30  F   UNL     1      44.586 -21.187   5.852  1.00  0.00    -0.166 F 
ENDBRANCH  24  27
ENDBRANCH  15  21
ENDBRANCH   1  14
BRANCH   7  31
HETATM   31  C   UNL     1      44.291 -11.885   9.014  1.00  0.00     0.010 A 
HETATM   32  C   UNL     1      45.418 -11.838   9.869  1.00  0.00     0.152 A 
HETATM   33  N   UNL     1      45.273 -10.963  10.864  1.00  0.00    -0.187 NA
HETATM   34  N   UNL     1      44.056 -10.440  10.658  1.00  0.00    -0.289 N 
HETATM   35  H   UNL     1      43.719  -9.731  11.304  1.00  0.00     0.188 HD
HETATM   36  C   UNL     1      43.427 -10.961   9.560  1.00  0.00     0.123 A 
ENDBRANCH   7  31
TORSDOF 4
ENDMDL
MODEL 10
REMARK VINA RESULT:      -8.8      4.503      8.402
REMARK  4 active torsions:
REMARK  status: ('A' for Active; 'I' for Inactive)
REMARK    1  A    between atoms: C_2  and  C_5 
REMARK    2  A    between atoms: C_8  and  C_11 
REMARK    3  A    between atoms: C_17  and  C_18 
REMARK    4  A    between atoms: C_24  and  C_30 
ROOT
HETATM    1  C   UNL     1      42.172 -14.407   2.714  1.00  0.00     0.091 A 
HETATM    2  N   UNL     1      41.032 -13.798   3.022  1.00  0.00    -0.345 N 
HETATM    3  H   UNL     1      40.221 -13.848   2.406  1.00  0.00     0.167 HD
HETATM    4  C   UNL     1      40.925 -13.073   4.183  1.00  0.00     0.049 A 
HETATM    5  C   UNL     1      39.717 -12.459   4.512  1.00  0.00     0.031 A 
HETATM    6  C   UNL     1      39.582 -11.754   5.720  1.00  0.00     0.014 A 
HETATM    7  C   UNL     1      40.650 -11.651   6.624  1.00  0.00    -0.022 A 
HETATM    8  C   UNL     1      41.869 -12.247   6.290  1.00  0.00     0.031 A 
HETATM    9  C   UNL     1      41.986 -12.941   5.081  1.00  0.00     0.059 A 
HETATM   10  C   UNL     1      43.240 -13.580   4.705  1.00  0.00     0.259 A 
HETATM   11  O   UNL     1      44.279 -13.576   5.328  1.00  0.00    -0.267 OA
HETATM   12  N   UNL     1      43.239 -14.310   3.485  1.00  0.00    -0.312 N 
HETATM   13  H   UNL     1      44.135 -14.727   3.269  1.00  0.00     0.170 HD
ENDROOT
BRANCH   1  14
HETATM   14  C   UNL     1      42.229 -15.227   1.460  1.00  0.00     0.089 C 
HETATM   15  C   UNL     1      41.502 -16.574   1.580  1.00  0.00     0.057 C 
HETATM   16  C   UNL     1      41.222 -16.970   0.123  1.00  0.00     0.242 C 
HETATM   17  N   UNL     1      41.008 -15.661  -0.584  1.00  0.00    -0.074 N 
HETATM   18  H   UNL     1      41.463 -15.686  -1.514  1.00  0.00     0.277 HD
HETATM   19  H   UNL     1      40.005 -15.530  -0.802  1.00  0.00     0.277 HD
HETATM   20  C   UNL     1      41.543 -14.548   0.269  1.00  0.00     0.245 C 
BRANCH  15  21
HETATM   21  C   UNL     1      42.283 -17.617   2.342  1.00  0.00    -0.051 A 
HETATM   22  C   UNL     1      42.185 -17.750   3.737  1.00  0.00     0.008 A 
HETATM   23  C   UNL     1      42.957 -18.693   4.423  1.00  0.00     0.017 A 
HETATM   24  C   UNL     1      43.843 -19.530   3.735  1.00  0.00     0.047 A 
HETATM   25  C   UNL     1      43.925 -19.416   2.340  1.00  0.00     0.017 A 
HETATM   26  C   UNL     1      43.157 -18.471   1.651  1.00  0.00     0.008 A 
BRANCH  24  27
HETATM   27  C   UNL     1      44.700 -20.542   4.468  1.00  0.00     0.417 C 
HETATM   28  F   UNL     1      46.025 -20.239   4.434  1.00  0.00    -0.166 F 
HETATM   29  F   UNL     1      44.577 -21.791   3.951  1.00  0.00    -0.166 F 
HETATM   30  F   UNL     1      44.362 -20.630   5.781  1.00  0.00    -0.166 F 
ENDBRANCH  24  27
ENDBRANCH  15  21
ENDBRANCH   1  14
BRANCH   7  31
HETATM   31  C   UNL     1      40.505 -10.963   7.895  1.00  0.00     0.010 A 
HETATM   32  C   UNL     1      39.464 -11.007   8.852  1.00  0.00     0.152 A 
HETATM   33  N   UNL     1      39.703 -10.232   9.909  1.00  0.00    -0.187 NA
HETATM   34  N   UNL     1      40.897  -9.684   9.643  1.00  0.00    -0.289 N 
HETATM   35  H   UNL     1      41.296  -9.042  10.324  1.00  0.00     0.188 HD
HETATM   36  C   UNL     1      41.420 -10.090   8.446  1.00  0.00     0.123 A 
ENDBRANCH   7  31
TORSDOF 4
ENDMDL
