MODEL 1
REMARK VINA RESULT:      -8.7      0.000      0.000
REMARK  6 active torsions:
REMARK  status: ('A' for Active; 'I' for Inactive)
REMARK    1  A    between atoms: C_2  and  C_3 
REMARK    2  A    between atoms: C_2  and  C_9 
REMARK    3  A    between atoms: C_9  and  C_10 
REMARK    4  A    between atoms: C_10  and  C_11 
REMARK       I    between atoms: C_11  and  N_12 
REMARK    5  A    between atoms: N_12  and  C_13 
REMARK    6  A    between atoms: C_20  and  C_21 
REMARK       I    between atoms: C_21  and  N_22 
ROOT
HETATM    1  C   UNL     1      41.140 -14.790   4.366  1.00  0.00     0.035 A 
HETATM    2  C   UNL     1      41.544 -15.666   5.383  1.00  0.00     0.046 A 
HETATM    3  C   UNL     1      42.725 -15.394   6.102  1.00  0.00     0.030 A 
HETATM    4  C   UNL     1      43.417 -14.221   5.834  1.00  0.00     0.063 A 
HETATM    5  N   UNL     1      44.493 -14.237   6.677  1.00  0.00    -0.277 N 
HETATM    6  H   UNL     1      45.216 -13.532   6.764  1.00  0.00     0.189 HD
HETATM    7  N   UNL     1      44.582 -15.338   7.444  1.00  0.00    -0.168 NA
HETATM    8  C   UNL     1      43.492 -16.061   7.100  1.00  0.00     0.156 A 
HETATM    9  C   UNL     1      42.997 -13.292   4.879  1.00  0.00     0.034 A 
HETATM   10  C   UNL     1      41.844 -13.605   4.145  1.00  0.00     0.032 A 
ENDROOT
BRANCH   1  11
HETATM   11  N   UNL     1      40.006 -15.162   3.631  1.00  0.00    -0.327 N 
HETATM   12  C   UNL     1      39.863 -15.725   2.398  1.00  0.00     0.222 C 
HETATM   13  O   UNL     1      38.722 -15.802   1.930  1.00  0.00    -0.273 OA
HETATM   14  H   UNL     1      39.113 -15.097   4.110  1.00  0.00     0.169 HD
BRANCH  12  15
HETATM   15  C   UNL     1      41.034 -16.321   1.638  1.00  0.00     0.104 C 
BRANCH  15  16
HETATM   16  C   UNL     1      41.679 -17.583   2.233  1.00  0.00     0.023 C 
BRANCH  16  17
HETATM   17  C   UNL     1      43.232 -17.731   2.137  1.00  0.00    -0.020 C 
HETATM   18  C   UNL     1      43.933 -16.550   2.848  1.00  0.00     0.020 C 
HETATM   19  C   UNL     1      43.618 -17.587   0.637  1.00  0.00     0.020 C 
BRANCH  17  20
HETATM   20  C   UNL     1      43.691 -19.116   2.626  1.00  0.00    -0.050 A 
HETATM   21  C   UNL     1      44.258 -19.319   3.894  1.00  0.00     0.008 A 
HETATM   22  C   UNL     1      44.682 -20.587   4.307  1.00  0.00     0.001 A 
HETATM   23  C   UNL     1      44.546 -21.682   3.461  1.00  0.00     0.000 A 
HETATM   24  C   UNL     1      43.979 -21.512   2.204  1.00  0.00     0.001 A 
HETATM   25  C   UNL     1      43.555 -20.245   1.793  1.00  0.00     0.008 A 
ENDBRANCH  17  20
ENDBRANCH  16  17
ENDBRANCH  15  16
ENDBRANCH  12  15
ENDBRANCH   1  11
BRANCH   8  26
HETATM   26  C   UNL     1      43.219 -17.374   7.699  1.00  0.00     0.270 C 
HETATM   27  N   UNL     1      43.431 -17.432   9.048  1.00  0.00    -0.365 N 
HETATM   28  H   UNL     1      43.769 -16.603   9.523  1.00  0.00     0.159 HD
HETATM   29  H   UNL     1      43.306 -18.304   9.539  1.00  0.00     0.159 HD
HETATM   30  O   UNL     1      42.846 -18.359   7.067  1.00  0.00    -0.266 OA
ENDBRANCH   8  26
TORSDOF 6
ENDMDL
MODEL 2
REMARK VINA RESULT:      -8.6      2.211      5.152
REMARK  6 active torsions:
REMARK  status: ('A' for Active; 'I' for Inactive)
REMARK    1  A    between atoms: C_2  and  C_3 
REMARK    2  A    between atoms: C_2  and  C_9 
REMARK    3  A    between atoms: C_9  and  C_10 
REMARK    4  A    between atoms: C_10  and  C_11 
REMARK       I    between atoms: C_11  and  N_12 
REMARK    5  A    between atoms: N_12  and  C_13 
REMARK    6  A    between atoms: C_20  and  C_21 
REMARK       I    between atoms: C_21  and  N_22 
ROOT
HETATM    1  C   UNL     1      42.641 -14.104   4.955  1.00  0.00     0.035 A 
HETATM    2  C   UNL     1      42.721 -14.621   3.654  1.00  0.00     0.046 A 
HETATM    3  C   UNL     1      41.551 -15.073   3.015  1.00  0.00     0.030 A 
HETATM    4  C   UNL     1      40.333 -14.923   3.665  1.00  0.00     0.063 A 
HETATM    5  N   UNL     1      39.402 -15.441   2.808  1.00  0.00    -0.277 N 
HETATM    6  H   UNL     1      38.399 -15.493   2.948  1.00  0.00     0.189 HD
HETATM    7  N   UNL     1      39.912 -15.949   1.673  1.00  0.00    -0.168 NA
HETATM    8  C   UNL     1      41.240 -15.726   1.787  1.00  0.00     0.156 A 
HETATM    9  C   UNL     1      40.212 -14.343   4.929  1.00  0.00     0.034 A 
HETATM   10  C   UNL     1      41.396 -13.940   5.565  1.00  0.00     0.032 A 
ENDROOT
BRANCH   1  11
HETATM   11  N   UNL     1      43.851 -13.753   5.567  1.00  0.00    -0.327 N 
HETATM   12  C   UNL     1      44.518 -14.274   6.636  1.00  0.00     0.222 C 
HETATM   13  O   UNL     1      45.503 -13.658   7.055  1.00  0.00    -0.273 OA
HETATM   14  H   UNL     1      44.406 -13.041   5.102  1.00  0.00     0.169 HD
BRANCH  12  15
HETATM   15  C   UNL     1      44.138 -15.606   7.256  1.00  0.00     0.104 C 
BRANCH  15  16
HETATM   16  C   UNL     1      44.566 -16.874   6.499  1.00  0.00     0.023 C 
BRANCH  16  17
HETATM   17  C   UNL     1      43.518 -18.022   6.336  1.00  0.00    -0.020 C 
HETATM   18  C   UNL     1      42.082 -17.467   6.470  1.00  0.00     0.020 C 
HETATM   19  C   UNL     1      43.695 -18.984   7.545  1.00  0.00     0.020 C 
BRANCH  17  20
HETATM   20  C   UNL     1      43.762 -18.819   5.042  1.00  0.00    -0.050 A 
HETATM   21  C   UNL     1      43.027 -18.594   3.867  1.00  0.00     0.008 A 
HETATM   22  C   UNL     1      43.258 -19.344   2.709  1.00  0.00     0.001 A 
HETATM   23  C   UNL     1      44.233 -20.336   2.699  1.00  0.00     0.000 A 
HETATM   24  C   UNL     1      44.982 -20.574   3.845  1.00  0.00     0.001 A 
HETATM   25  C   UNL     1      44.750 -19.823   5.001  1.00  0.00     0.008 A 
ENDBRANCH  17  20
ENDBRANCH  16  17
ENDBRANCH  15  16
ENDBRANCH  12  15
ENDBRANCH   1  11
BRANCH   8  26
HETATM   26  C   UNL     1      42.187 -16.160   0.751  1.00  0.00     0.270 C 
HETATM   27  N   UNL     1      41.742 -15.976  -0.529  1.00  0.00    -0.365 N 
HETATM   28  H   UNL     1      40.818 -15.586  -0.671  1.00  0.00     0.159 HD
HETATM   29  H   UNL     1      42.309 -16.280  -1.305  1.00  0.00     0.159 HD
HETATM   30  O   UNL     1      43.283 -16.663   0.980  1.00  0.00    -0.266 OA
ENDBRANCH   8  26
TORSDOF 6
ENDMDL
MODEL 3
REMARK VINA RESULT:      -8.5      2.972      5.749
REMARK  6 active torsions:
REMARK  status: ('A' for Active; 'I' for Inactive)
REMARK    1  A    between atoms: C_2  and  C_3 
REMARK    2  A    between atoms: C_2  and  C_9 
REMARK    3  A    between atoms: C_9  and  C_10 
REMARK    4  A    between atoms: C_10  and  C_11 
REMARK       I    between atoms: C_11  and  N_12 
REMARK    5  A    between atoms: N_12  and  C_13 
REMARK    6  A    between atoms: C_20  and  C_21 
REMARK       I    between atoms: C_21  and  N_22 
ROOT
HETATM    1  C   UNL     1      41.302 -14.303   2.887  1.00  0.00     0.035 A 
HETATM    2  C   UNL     1      41.794 -13.743   1.700  1.00  0.00     0.046 A 
HETATM    3  C   UNL     1      41.065 -13.902   0.506  1.00  0.00     0.030 A 
HETATM    4  C   UNL     1      39.836 -14.545   0.552  1.00  0.00     0.063 A 
HETATM    5  N   UNL     1      39.378 -14.540  -0.736  1.00  0.00    -0.277 N 
HETATM    6  H   UNL     1      38.502 -14.919  -1.078  1.00  0.00     0.189 HD
HETATM    7  N   UNL     1      40.220 -13.982  -1.623  1.00  0.00    -0.168 NA
HETATM    8  C   UNL     1      41.267 -13.581  -0.868  1.00  0.00     0.156 A 
HETATM    9  C   UNL     1      39.284 -15.046   1.733  1.00  0.00     0.034 A 
HETATM   10  C   UNL     1      40.048 -14.916   2.902  1.00  0.00     0.032 A 
ENDROOT
BRANCH   1  11
HETATM   11  N   UNL     1      42.116 -14.184   4.022  1.00  0.00    -0.327 N 
HETATM   12  C   UNL     1      42.603 -15.111   4.895  1.00  0.00     0.222 C 
HETATM   13  O   UNL     1      43.178 -14.700   5.909  1.00  0.00    -0.273 OA
HETATM   14  H   UNL     1      42.508 -13.266   4.207  1.00  0.00     0.169 HD
BRANCH  12  15
HETATM   15  C   UNL     1      42.532 -16.602   4.618  1.00  0.00     0.104 C 
BRANCH  15  16
HETATM   16  C   UNL     1      43.739 -17.237   3.911  1.00  0.00     0.023 C 
BRANCH  16  17
HETATM   17  C   UNL     1      43.482 -18.040   2.595  1.00  0.00    -0.020 C 
HETATM   18  C   UNL     1      44.172 -17.349   1.396  1.00  0.00     0.020 C 
HETATM   19  C   UNL     1      41.959 -17.952   2.290  1.00  0.00     0.020 C 
BRANCH  17  20
HETATM   20  C   UNL     1      43.859 -19.522   2.764  1.00  0.00    -0.050 A 
HETATM   21  C   UNL     1      43.667 -20.471   1.747  1.00  0.00     0.008 A 
HETATM   22  C   UNL     1      44.004 -21.816   1.933  1.00  0.00     0.001 A 
HETATM   23  C   UNL     1      44.543 -22.243   3.142  1.00  0.00     0.000 A 
HETATM   24  C   UNL     1      44.753 -21.323   4.163  1.00  0.00     0.001 A 
HETATM   25  C   UNL     1      44.417 -19.980   3.975  1.00  0.00     0.008 A 
ENDBRANCH  17  20
ENDBRANCH  16  17
ENDBRANCH  15  16
ENDBRANCH  12  15
ENDBRANCH   1  11
BRANCH   8  26
HETATM   26  C   UNL     1      42.444 -12.933  -1.463  1.00  0.00     0.270 C 
HETATM   27  N   UNL     1      42.864 -13.499  -2.635  1.00  0.00    -0.365 N 
HETATM   28  H   UNL     1      42.366 -14.307  -2.990  1.00  0.00     0.159 HD
HETATM   29  H   UNL     1      43.687 -13.145  -3.096  1.00  0.00     0.159 HD
HETATM   30  O   UNL     1      43.032 -11.976  -0.969  1.00  0.00    -0.266 OA
ENDBRANCH   8  26
TORSDOF 6
ENDMDL
MODEL 4
REMARK VINA RESULT:      -8.3      3.587      6.512
REMARK  6 active torsions:
REMARK  status: ('A' for Active; 'I' for Inactive)
REMARK    1  A    between atoms: C_2  and  C_3 
REMARK    2  A    between atoms: C_2  and  C_9 
REMARK    3  A    between atoms: C_9  and  C_10 
REMARK    4  A    between atoms: C_10  and  C_11 
REMARK       I    between atoms: C_11  and  N_12 
REMARK    5  A    between atoms: N_12  and  C_13 
REMARK    6  A    between atoms: C_20  and  C_21 
REMARK       I    between atoms: C_21  and  N_22 
ROOT
HETATM    1  C   UNL     1      41.334 -13.424   1.551  1.00  0.00     0.035 A 
HETATM    2  C   UNL     1      41.535 -13.360   0.165  1.00  0.00     0.046 A 
HETATM    3  C   UNL     1      40.487 -13.721  -0.703  1.00  0.00     0.030 A 
HETATM    4  C   UNL     1      39.255 -14.059  -0.161  1.00  0.00     0.063 A 
HETATM    5  N   UNL     1      38.458 -14.351  -1.233  1.00  0.00    -0.277 N 
HETATM    6  H   UNL     1      37.483 -14.630  -1.217  1.00  0.00     0.189 HD
HETATM    7  N   UNL     1      39.076 -14.269  -2.424  1.00  0.00    -0.168 NA
HETATM    8  C   UNL     1      40.331 -13.878  -2.111  1.00  0.00     0.156 A 
HETATM    9  C   UNL     1      39.002 -14.058   1.212  1.00  0.00     0.034 A 
HETATM   10  C   UNL     1      40.073 -13.738   2.060  1.00  0.00     0.032 A 
ENDROOT
BRANCH   1  11
HETATM   11  N   UNL     1      42.442 -13.136   2.360  1.00  0.00    -0.327 N 
HETATM   12  C   UNL     1      43.339 -13.940   2.998  1.00  0.00     0.222 C 
HETATM   13  O   UNL     1      44.134 -13.407   3.780  1.00  0.00    -0.273 OA
HETATM   14  H   UNL     1      42.709 -12.159   2.433  1.00  0.00     0.169 HD
BRANCH  12  15
HETATM   15  C   UNL     1      43.437 -15.428   2.716  1.00  0.00     0.104 C 
BRANCH  15  16
HETATM   16  C   UNL     1      43.161 -16.379   3.892  1.00  0.00     0.023 C 
BRANCH  16  17
HETATM   17  C   UNL     1      42.244 -17.619   3.635  1.00  0.00    -0.020 C 
HETATM   18  C   UNL     1      41.163 -17.284   2.581  1.00  0.00     0.020 C 
HETATM   19  C   UNL     1      41.458 -17.892   4.949  1.00  0.00     0.020 C 
BRANCH  17  20
HETATM   20  C   UNL     1      43.078 -18.868   3.299  1.00  0.00    -0.050 A 
HETATM   21  C   UNL     1      42.937 -19.566   2.089  1.00  0.00     0.008 A 
HETATM   22  C   UNL     1      43.697 -20.709   1.816  1.00  0.00     0.001 A 
HETATM   23  C   UNL     1      44.617 -21.179   2.747  1.00  0.00     0.000 A 
HETATM   24  C   UNL     1      44.784 -20.502   3.950  1.00  0.00     0.001 A 
HETATM   25  C   UNL     1      44.024 -19.360   4.220  1.00  0.00     0.008 A 
ENDBRANCH  17  20
ENDBRANCH  16  17
ENDBRANCH  15  16
ENDBRANCH  12  15
ENDBRANCH   1  11
BRANCH   8  26
HETATM   26  C   UNL     1      41.361 -13.691  -3.143  1.00  0.00     0.270 C 
HETATM   27  N   UNL     1      42.246 -14.729  -3.247  1.00  0.00    -0.365 N 
HETATM   28  H   UNL     1      42.148 -15.516  -2.616  1.00  0.00     0.159 HD
HETATM   29  H   UNL     1      43.010 -14.672  -3.901  1.00  0.00     0.159 HD
HETATM   30  O   UNL     1      41.455 -12.696  -3.855  1.00  0.00    -0.266 OA
ENDBRANCH   8  26
TORSDOF 6
ENDMDL
MODEL 5
REMARK VINA RESULT:      -8.1      3.949      6.363
REMARK  6 active torsions:
REMARK  status: ('A' for Active; 'I' for Inactive)
REMARK    1  A    between atoms: C_2  and  C_3 
REMARK    2  A    between atoms: C_2  and  C_9 
REMARK    3  A    between atoms: C_9  and  C_10 
REMARK    4  A    between atoms: C_10  and  C_11 
REMARK       I    between atoms: C_11  and  N_12 
REMARK    5  A    between atoms: N_12  and  C_13 
REMARK    6  A    between atoms: C_20  and  C_21 
REMARK       I    between atoms: C_21  and  N_22 
ROOT
HETATM    1  C   UNL     1      41.302 -14.261   1.019  1.00  0.00     0.035 A 
HETATM    2  C   UNL     1      41.774 -13.086   0.417  1.00  0.00     0.046 A 
HETATM    3  C   UNL     1      42.029 -13.072  -0.967  1.00  0.00     0.030 A 
HETATM    4  C   UNL     1      41.732 -14.203  -1.715  1.00  0.00     0.063 A 
HETATM    5  N   UNL     1      42.078 -13.888  -2.999  1.00  0.00    -0.277 N 
HETATM    6  H   UNL     1      41.991 -14.475  -3.821  1.00  0.00     0.189 HD
HETATM    7  N   UNL     1      42.610 -12.662  -3.147  1.00  0.00    -0.168 NA
HETATM    8  C   UNL     1      42.583 -12.145  -1.898  1.00  0.00     0.156 A 
HETATM    9  C   UNL     1      41.189 -15.363  -1.156  1.00  0.00     0.034 A 
HETATM   10  C   UNL     1      40.986 -15.370   0.231  1.00  0.00     0.032 A 
ENDROOT
BRANCH   1  11
HETATM   11  N   UNL     1      41.151 -14.237   2.412  1.00  0.00    -0.327 N 
HETATM   12  C   UNL     1      41.827 -14.868   3.414  1.00  0.00     0.222 C 
HETATM   13  O   UNL     1      41.372 -14.780   4.559  1.00  0.00    -0.273 OA
HETATM   14  H   UNL     1      40.485 -13.569   2.785  1.00  0.00     0.169 HD
BRANCH  12  15
HETATM   15  C   UNL     1      43.141 -15.590   3.175  1.00  0.00     0.104 C 
BRANCH  15  16
HETATM   16  C   UNL     1      43.169 -17.098   3.472  1.00  0.00     0.023 C 
BRANCH  16  17
HETATM   17  C   UNL     1      43.216 -18.086   2.261  1.00  0.00    -0.020 C 
HETATM   18  C   UNL     1      43.992 -17.459   1.081  1.00  0.00     0.020 C 
HETATM   19  C   UNL     1      41.758 -18.253   1.745  1.00  0.00     0.020 C 
BRANCH  17  20
HETATM   20  C   UNL     1      43.740 -19.468   2.690  1.00  0.00    -0.050 A 
HETATM   21  C   UNL     1      43.631 -20.604   1.871  1.00  0.00     0.008 A 
HETATM   22  C   UNL     1      44.102 -21.852   2.292  1.00  0.00     0.001 A 
HETATM   23  C   UNL     1      44.696 -21.992   3.542  1.00  0.00     0.000 A 
HETATM   24  C   UNL     1      44.825 -20.883   4.369  1.00  0.00     0.001 A 
HETATM   25  C   UNL     1      44.355 -19.637   3.947  1.00  0.00     0.008 A 
ENDBRANCH  17  20
ENDBRANCH  16  17
ENDBRANCH  15  16
ENDBRANCH  12  15
ENDBRANCH   1  11
BRANCH   8  26
HETATM   26  C   UNL     1      43.108 -10.804  -1.607  1.00  0.00     0.270 C 
HETATM   27  N   UNL     1      42.554  -9.808  -2.363  1.00  0.00    -0.365 N 
HETATM   28  H   UNL     1      41.862 -10.056  -3.060  1.00  0.00     0.159 HD
HETATM   29  H   UNL     1      42.881  -8.860  -2.260  1.00  0.00     0.159 HD
HETATM   30  O   UNL     1      43.978 -10.566  -0.775  1.00  0.00    -0.266 OA
ENDBRANCH   8  26
TORSDOF 6
ENDMDL
MODEL 6
REMARK VINA RESULT:      -7.9      3.682      6.443
REMARK  6 active torsions:
REMARK  status: ('A' for Active; 'I' for Inactive)
REMARK    1  A    between atoms: C_2  and  C_3 
REMARK    2  A    between atoms: C_2  and  C_9 
REMARK    3  A    between atoms: C_9  and  C_10 
REMARK    4  A    between atoms: C_10  and  C_11 
REMARK       I    between atoms: C_11  and  N_12 
REMARK    5  A    between atoms: N_12  and  C_13 
REMARK    6  A    between atoms: C_20  and  C_21 
REMARK       I    between atoms: C_21  and  N_22 
ROOT
HETATM    1  C   UNL     1      40.689 -13.801   0.682  1.00  0.00     0.035 A 
HETATM    2  C   UNL     1      40.066 -14.512  -0.353  1.00  0.00     0.046 A 
HETATM    3  C   UNL     1      40.596 -14.443  -1.656  1.00  0.00     0.030 A 
HETATM    4  C   UNL     1      41.770 -13.732  -1.864  1.00  0.00     0.063 A 
HETATM    5  N   UNL     1      42.031 -13.850  -3.201  1.00  0.00    -0.277 N 
HETATM    6  H   UNL     1      42.817 -13.463  -3.711  1.00  0.00     0.189 HD
HETATM    7  N   UNL     1      41.107 -14.545  -3.888  1.00  0.00    -0.168 NA
HETATM    8  C   UNL     1      40.216 -14.920  -2.944  1.00  0.00     0.156 A 
HETATM    9  C   UNL     1      42.455 -13.077  -0.838  1.00  0.00     0.034 A 
HETATM   10  C   UNL     1      41.885 -13.122   0.442  1.00  0.00     0.032 A 
ENDROOT
BRANCH   1  11
HETATM   11  N   UNL     1      40.063 -13.841   1.936  1.00  0.00    -0.327 N 
HETATM   12  C   UNL     1      40.399 -14.460   3.103  1.00  0.00     0.222 C 
HETATM   13  O   UNL     1      39.569 -14.449   4.019  1.00  0.00    -0.273 OA
HETATM   14  H   UNL     1      39.256 -13.239   2.060  1.00  0.00     0.169 HD
BRANCH  12  15
HETATM   15  C   UNL     1      41.768 -15.075   3.329  1.00  0.00     0.104 C 
BRANCH  15  16
HETATM   16  C   UNL     1      41.839 -16.609   3.395  1.00  0.00     0.023 C 
BRANCH  16  17
HETATM   17  C   UNL     1      42.384 -17.375   2.147  1.00  0.00    -0.020 C 
HETATM   18  C   UNL     1      43.203 -16.423   1.244  1.00  0.00     0.020 C 
HETATM   19  C   UNL     1      41.157 -17.792   1.288  1.00  0.00     0.020 C 
BRANCH  17  20
HETATM   20  C   UNL     1      43.142 -18.648   2.561  1.00  0.00    -0.050 A 
HETATM   21  C   UNL     1      43.854 -18.744   3.768  1.00  0.00     0.008 A 
HETATM   22  C   UNL     1      44.549 -19.909   4.113  1.00  0.00     0.001 A 
HETATM   23  C   UNL     1      44.545 -21.006   3.259  1.00  0.00     0.000 A 
HETATM   24  C   UNL     1      43.841 -20.943   2.062  1.00  0.00     0.001 A 
HETATM   25  C   UNL     1      43.147 -19.778   1.720  1.00  0.00     0.008 A 
ENDBRANCH  17  20
ENDBRANCH  16  17
ENDBRANCH  15  16
ENDBRANCH  12  15
ENDBRANCH   1  11
BRANCH   8  26
HETATM   26  C   UNL     1      39.012 -15.691  -3.283  1.00  0.00     0.270 C 
HETATM   27  N   UNL     1      39.257 -16.993  -3.623  1.00  0.00    -0.365 N 
HETATM   28  H   UNL     1      40.216 -17.320  -3.637  1.00  0.00     0.159 HD
HETATM   29  H   UNL     1      38.495 -17.588  -3.908  1.00  0.00     0.159 HD
HETATM   30  O   UNL     1      37.874 -15.233  -3.286  1.00  0.00    -0.266 OA
ENDBRANCH   8  26
TORSDOF 6
ENDMDL
MODEL 7
REMARK VINA RESULT:      -7.9      2.709      5.529
REMARK  6 active torsions:
REMARK  status: ('A' for Active; 'I' for Inactive)
REMARK    1  A    between atoms: C_2  and  C_3 
REMARK    2  A    between atoms: C_2  and  C_9 
REMARK    3  A    between atoms: C_9  and  C_10 
REMARK    4  A    between atoms: C_10  and  C_11 
REMARK       I    between atoms: C_11  and  N_12 
REMARK    5  A    between atoms: N_12  and  C_13 
REMARK    6  A    between atoms: C_20  and  C_21 
REMARK       I    between atoms: C_21  and  N_22 
ROOT
HETATM    1  C   UNL     1      40.810 -15.895   2.763  1.00  0.00     0.035 A 
HETATM    2  C   UNL     1      40.947 -14.651   2.132  1.00  0.00     0.046 A 
HETATM    3  C   UNL     1      41.279 -14.602   0.764  1.00  0.00     0.030 A 
HETATM    4  C   UNL     1      41.384 -15.793   0.058  1.00  0.00     0.063 A 
HETATM    5  N   UNL     1      41.705 -15.426  -1.220  1.00  0.00    -0.277 N 
HETATM    6  H   UNL     1      41.853 -16.037  -2.016  1.00  0.00     0.189 HD
HETATM    7  N   UNL     1      41.854 -14.102  -1.398  1.00  0.00    -0.168 NA
HETATM    8  C   UNL     1      41.590 -13.580  -0.179  1.00  0.00     0.156 A 
HETATM    9  C   UNL     1      41.178 -17.045   0.642  1.00  0.00     0.034 A 
HETATM   10  C   UNL     1      40.893 -17.071   2.015  1.00  0.00     0.032 A 
ENDROOT
BRANCH   1  11
HETATM   11  N   UNL     1      40.565 -15.875   4.143  1.00  0.00    -0.327 N 
HETATM   12  C   UNL     1      41.384 -16.066   5.217  1.00  0.00     0.222 C 
HETATM   13  O   UNL     1      40.859 -16.145   6.332  1.00  0.00    -0.273 OA
HETATM   14  H   UNL     1      39.640 -15.580   4.437  1.00  0.00     0.169 HD
BRANCH  12  15
HETATM   15  C   UNL     1      42.896 -16.099   5.087  1.00  0.00     0.104 C 
BRANCH  15  16
HETATM   16  C   UNL     1      43.499 -17.251   4.267  1.00  0.00     0.023 C 
BRANCH  16  17
HETATM   17  C   UNL     1      43.898 -18.561   5.021  1.00  0.00    -0.020 C 
HETATM   18  C   UNL     1      42.927 -18.827   6.194  1.00  0.00     0.020 C 
HETATM   19  C   UNL     1      45.279 -18.307   5.688  1.00  0.00     0.020 C 
BRANCH  17  20
HETATM   20  C   UNL     1      44.039 -19.743   4.046  1.00  0.00    -0.050 A 
HETATM   21  C   UNL     1      44.633 -20.960   4.417  1.00  0.00     0.008 A 
HETATM   22  C   UNL     1      44.764 -22.014   3.505  1.00  0.00     0.001 A 
HETATM   23  C   UNL     1      44.300 -21.875   2.202  1.00  0.00     0.000 A 
HETATM   24  C   UNL     1      43.698 -20.685   1.810  1.00  0.00     0.001 A 
HETATM   25  C   UNL     1      43.569 -19.633   2.722  1.00  0.00     0.008 A 
ENDBRANCH  17  20
ENDBRANCH  16  17
ENDBRANCH  15  16
ENDBRANCH  12  15
ENDBRANCH   1  11
BRANCH   8  26
HETATM   26  C   UNL     1      41.668 -12.135   0.075  1.00  0.00     0.270 C 
HETATM   27  N   UNL     1      40.506 -11.458  -0.173  1.00  0.00    -0.365 N 
HETATM   28  H   UNL     1      39.707 -11.975  -0.520  1.00  0.00     0.159 HD
HETATM   29  H   UNL     1      40.477 -10.456  -0.063  1.00  0.00     0.159 HD
HETATM   30  O   UNL     1      42.678 -11.553   0.460  1.00  0.00    -0.266 OA
ENDBRANCH   8  26
TORSDOF 6
ENDMDL
MODEL 8
REMARK VINA RESULT:      -7.8      2.417      4.748
REMARK  6 active torsions:
REMARK  status: ('A' for Active; 'I' for Inactive)
REMARK    1  A    between atoms: C_2  and  C_3 
REMARK    2  A    between atoms: C_2  and  C_9 
REMARK    3  A    between atoms: C_9  and  C_10 
REMARK    4  A    between atoms: C_10  and  C_11 
REMARK       I    between atoms: C_11  and  N_12 
REMARK    5  A    between atoms: N_12  and  C_13 
REMARK    6  A    between atoms: C_20  and  C_21 
REMARK       I    between atoms: C_21  and  N_22 
ROOT
HETATM    1  C   UNL     1      40.824 -14.614   4.887  1.00  0.00     0.035 A 
HETATM    2  C   UNL     1      40.820 -14.941   3.524  1.00  0.00     0.046 A 
HETATM    3  C   UNL     1      41.270 -13.995   2.584  1.00  0.00     0.030 A 
HETATM    4  C   UNL     1      41.780 -12.787   3.041  1.00  0.00     0.063 A 
HETATM    5  N   UNL     1      42.133 -12.096   1.915  1.00  0.00    -0.277 N 
HETATM    6  H   UNL     1      42.549 -11.173   1.866  1.00  0.00     0.189 HD
HETATM    7  N   UNL     1      41.861 -12.733   0.763  1.00  0.00    -0.168 NA
HETATM    8  C   UNL     1      41.330 -13.910   1.162  1.00  0.00     0.156 A 
HETATM    9  C   UNL     1      41.868 -12.464   4.397  1.00  0.00     0.034 A 
HETATM   10  C   UNL     1      41.373 -13.403   5.312  1.00  0.00     0.032 A 
ENDROOT
BRANCH   1  11
HETATM   11  N   UNL     1      40.283 -15.566   5.762  1.00  0.00    -0.327 N 
HETATM   12  C   UNL     1      40.825 -16.660   6.368  1.00  0.00     0.222 C 
HETATM   13  O   UNL     1      40.062 -17.418   6.976  1.00  0.00    -0.273 OA
HETATM   14  H   UNL     1      39.342 -15.389   6.100  1.00  0.00     0.169 HD
BRANCH  12  15
HETATM   15  C   UNL     1      42.320 -16.921   6.382  1.00  0.00     0.104 C 
BRANCH  15  16
HETATM   16  C   UNL     1      42.886 -17.793   5.249  1.00  0.00     0.023 C 
BRANCH  16  17
HETATM   17  C   UNL     1      43.897 -18.923   5.626  1.00  0.00    -0.020 C 
HETATM   18  C   UNL     1      43.492 -19.588   6.962  1.00  0.00     0.020 C 
HETATM   19  C   UNL     1      45.266 -18.242   5.912  1.00  0.00     0.020 C 
BRANCH  17  20
HETATM   20  C   UNL     1      44.081 -19.916   4.465  1.00  0.00    -0.050 A 
HETATM   21  C   UNL     1      44.594 -21.210   4.652  1.00  0.00     0.008 A 
HETATM   22  C   UNL     1      44.767 -22.086   3.575  1.00  0.00     0.001 A 
HETATM   23  C   UNL     1      44.428 -21.690   2.286  1.00  0.00     0.000 A 
HETATM   24  C   UNL     1      43.909 -20.418   2.073  1.00  0.00     0.001 A 
HETATM   25  C   UNL     1      43.737 -19.544   3.150  1.00  0.00     0.008 A 
ENDBRANCH  17  20
ENDBRANCH  16  17
ENDBRANCH  15  16
ENDBRANCH  12  15
ENDBRANCH   1  11
BRANCH   8  26
HETATM   26  C   UNL     1      40.863 -14.913   0.195  1.00  0.00     0.270 C 
HETATM   27  N   UNL     1      39.593 -14.701  -0.266  1.00  0.00    -0.365 N 
HETATM   28  H   UNL     1      39.073 -13.908   0.092  1.00  0.00     0.159 HD
HETATM   29  H   UNL     1      39.175 -15.359  -0.904  1.00  0.00     0.159 HD
HETATM   30  O   UNL     1      41.525 -15.878  -0.176  1.00  0.00    -0.266 OA
ENDBRANCH   8  26
TORSDOF 6
ENDMDL
MODEL 9
REMARK VINA RESULT:      -7.6      2.721      3.645
REMARK  6 active torsions:
REMARK  status: ('A' for Active; 'I' for Inactive)
REMARK    1  A    between atoms: C_2  and  C_3 
REMARK    2  A    between atoms: C_2  and  C_9 
REMARK    3  A    between atoms: C_9  and  C_10 
REMARK    4  A    between atoms: C_10  and  C_11 
REMARK       I    between atoms: C_11  and  N_12 
REMARK    5  A    between atoms: N_12  and  C_13 
REMARK    6  A    between atoms: C_20  and  C_21 
REMARK       I    between atoms: C_21  and  N_22 
ROOT
HETATM    1  C   UNL     1      42.067 -13.987   2.614  1.00  0.00     0.035 A 
HETATM    2  C   UNL     1      41.144 -13.159   3.267  1.00  0.00     0.046 A 
HETATM    3  C   UNL     1      41.415 -12.719   4.577  1.00  0.00     0.030 A 
HETATM    4  C   UNL     1      42.629 -13.056   5.159  1.00  0.00     0.063 A 
HETATM    5  N   UNL     1      42.601 -12.493   6.405  1.00  0.00    -0.277 N 
HETATM    6  H   UNL     1      43.327 -12.526   7.111  1.00  0.00     0.189 HD
HETATM    7  N   UNL     1      41.457 -11.849   6.697  1.00  0.00    -0.168 NA
HETATM    8  C   UNL     1      40.716 -11.979   5.575  1.00  0.00     0.156 A 
HETATM    9  C   UNL     1      43.601 -13.816   4.504  1.00  0.00     0.034 A 
HETATM   10  C   UNL     1      43.291 -14.281   3.218  1.00  0.00     0.032 A 
ENDROOT
BRANCH   1  11
HETATM   11  N   UNL     1      41.699 -14.460   1.347  1.00  0.00    -0.327 N 
HETATM   12  C   UNL     1      41.361 -15.704   0.901  1.00  0.00     0.222 C 
HETATM   13  O   UNL     1      41.230 -15.861  -0.317  1.00  0.00    -0.273 OA
HETATM   14  H   UNL     1      41.561 -13.762   0.623  1.00  0.00     0.169 HD
BRANCH  12  15
HETATM   15  C   UNL     1      41.068 -16.853   1.849  1.00  0.00     0.104 C 
BRANCH  15  16
HETATM   16  C   UNL     1      41.921 -18.121   1.689  1.00  0.00     0.023 C 
BRANCH  16  17
HETATM   17  C   UNL     1      43.274 -18.201   2.468  1.00  0.00    -0.020 C 
HETATM   18  C   UNL     1      43.184 -17.408   3.792  1.00  0.00     0.020 C 
HETATM   19  C   UNL     1      44.341 -17.452   1.619  1.00  0.00     0.020 C 
BRANCH  17  20
HETATM   20  C   UNL     1      43.730 -19.660   2.644  1.00  0.00    -0.050 A 
HETATM   21  C   UNL     1      43.517 -20.642   1.662  1.00  0.00     0.008 A 
HETATM   22  C   UNL     1      43.928 -21.965   1.856  1.00  0.00     0.001 A 
HETATM   23  C   UNL     1      44.564 -22.337   3.035  1.00  0.00     0.000 A 
HETATM   24  C   UNL     1      44.797 -21.384   4.020  1.00  0.00     0.001 A 
HETATM   25  C   UNL     1      44.386 -20.063   3.825  1.00  0.00     0.008 A 
ENDBRANCH  17  20
ENDBRANCH  16  17
ENDBRANCH  15  16
ENDBRANCH  12  15
ENDBRANCH   1  11
BRANCH   8  26
HETATM   26  C   UNL     1      39.356 -11.430   5.481  1.00  0.00     0.270 C 
HETATM   27  N   UNL     1      39.301 -10.064   5.489  1.00  0.00    -0.365 N 
HETATM   28  H   UNL     1      40.165  -9.543   5.576  1.00  0.00     0.159 HD
HETATM   29  H   UNL     1      38.407  -9.599   5.467  1.00  0.00     0.159 HD
HETATM   30  O   UNL     1      38.337 -12.111   5.416  1.00  0.00    -0.266 OA
ENDBRANCH   8  26
TORSDOF 6
ENDMDL
MODEL 10
REMARK VINA RESULT:      -7.6      3.745      4.997
REMARK  6 active torsions:
REMARK  status: ('A' for Active; 'I' for Inactive)
REMARK    1  A    between atoms: C_2  and  C_3 
REMARK    2  A    between atoms: C_2  and  C_9 
REMARK    3  A    between atoms: C_9  and  C_10 
REMARK    4  A    between atoms: C_10  and  C_11 
REMARK       I    between atoms: C_11  and  N_12 
REMARK    5  A    between atoms: N_12  and  C_13 
REMARK    6  A    between atoms: C_20  and  C_21 
REMARK       I    between atoms: C_21  and  N_22 
ROOT
HETATM    1  C   UNL     1      44.102 -13.081   7.042  1.00  0.00     0.035 A 
HETATM    2  C   UNL     1      43.349 -12.239   7.872  1.00  0.00     0.046 A 
HETATM    3  C   UNL     1      43.961 -11.641   8.991  1.00  0.00     0.030 A 
HETATM    4  C   UNL     1      45.319 -11.841   9.197  1.00  0.00     0.063 A 
HETATM    5  N   UNL     1      45.617 -11.145  10.335  1.00  0.00    -0.277 N 
HETATM    6  H   UNL     1      46.522 -11.057  10.783  1.00  0.00     0.189 HD
HETATM    7  N   UNL     1      44.562 -10.539  10.908  1.00  0.00    -0.168 NA
HETATM    8  C   UNL     1      43.532 -10.836  10.085  1.00  0.00     0.156 A 
HETATM    9  C   UNL     1      46.112 -12.612   8.345  1.00  0.00     0.034 A 
HETATM   10  C   UNL     1      45.472 -13.235   7.263  1.00  0.00     0.032 A 
ENDROOT
BRANCH   1  11
HETATM   11  N   UNL     1      43.413 -13.713   5.998  1.00  0.00    -0.327 N 
HETATM   12  C   UNL     1      43.140 -15.025   5.749  1.00  0.00     0.222 C 
HETATM   13  O   UNL     1      42.640 -15.311   4.656  1.00  0.00    -0.273 OA
HETATM   14  H   UNL     1      42.941 -13.109   5.334  1.00  0.00     0.169 HD
BRANCH  12  15
HETATM   15  C   UNL     1      43.354 -16.109   6.790  1.00  0.00     0.104 C 
BRANCH  15  16
HETATM   16  C   UNL     1      42.861 -17.521   6.436  1.00  0.00     0.023 C 
BRANCH  16  17
HETATM   17  C   UNL     1      43.929 -18.646   6.245  1.00  0.00    -0.020 C 
HETATM   18  C   UNL     1      43.783 -19.723   7.345  1.00  0.00     0.020 C 
HETATM   19  C   UNL     1      45.324 -18.005   6.489  1.00  0.00     0.020 C 
BRANCH  17  20
HETATM   20  C   UNL     1      43.896 -19.208   4.813  1.00  0.00    -0.050 A 
HETATM   21  C   UNL     1      44.650 -20.327   4.423  1.00  0.00     0.008 A 
HETATM   22  C   UNL     1      44.614 -20.807   3.109  1.00  0.00     0.001 A 
HETATM   23  C   UNL     1      43.820 -20.180   2.155  1.00  0.00     0.000 A 
HETATM   24  C   UNL     1      43.055 -19.077   2.515  1.00  0.00     0.001 A 
HETATM   25  C   UNL     1      43.092 -18.599   3.828  1.00  0.00     0.008 A 
ENDBRANCH  17  20
ENDBRANCH  16  17
ENDBRANCH  15  16
ENDBRANCH  12  15
ENDBRANCH   1  11
BRANCH   8  26
HETATM   26  C   UNL     1      42.164 -10.379  10.366  1.00  0.00     0.270 C 
HETATM   27  N   UNL     1      41.315 -11.369  10.780  1.00  0.00    -0.365 N 
HETATM   28  H   UNL     1      41.668 -12.317  10.842  1.00  0.00     0.159 HD
HETATM   29  H   UNL     1      40.347 -11.157  10.958  1.00  0.00     0.159 HD
HETATM   30  O   UNL     1      41.779  -9.221  10.236  1.00  0.00    -0.266 OA
ENDBRANCH   8  26
TORSDOF 6
ENDMDL
