MODEL 1
REMARK VINA RESULT:      -9.3      0.000      0.000
REMARK  4 active torsions:
REMARK  status: ('A' for Active; 'I' for Inactive)
REMARK    1  A    between atoms: C_6  and  C_7 
REMARK    2  A    between atoms: C_8  and  C_9 
REMARK       I    between atoms: C_9  and  N_10 
REMARK    3  A    between atoms: N_10  and  C_11 
REMARK    4  A    between atoms: C_18  and  C_19 
REMARK       I    between atoms: C_19  and  N_20 
ROOT
HETATM    1  C   UNL     1      40.466 -15.723   1.481  1.00  0.00     0.035 A 
HETATM    2  C   UNL     1      40.939 -15.358   0.214  1.00  0.00     0.046 A 
HETATM    3  C   UNL     1      40.191 -14.464  -0.583  1.00  0.00     0.030 A 
HETATM    4  C   UNL     1      38.996 -13.964  -0.085  1.00  0.00     0.063 A 
HETATM    5  N   UNL     1      38.519 -13.133  -1.061  1.00  0.00    -0.277 N 
HETATM    6  H   UNL     1      37.664 -12.588  -1.038  1.00  0.00     0.189 HD
HETATM    7  N   UNL     1      39.293 -13.056  -2.156  1.00  0.00    -0.168 NA
HETATM    8  C   UNL     1      40.331 -13.876  -1.876  1.00  0.00     0.156 A 
HETATM    9  C   UNL     1      38.488 -14.310   1.169  1.00  0.00     0.034 A 
HETATM   10  C   UNL     1      39.247 -15.203   1.937  1.00  0.00     0.032 A 
ENDROOT
BRANCH   1  11
HETATM   11  N   UNL     1      41.161 -16.585   2.357  1.00  0.00    -0.327 N 
HETATM   12  C   UNL     1      41.816 -16.234   3.517  1.00  0.00     0.227 C 
HETATM   13  O   UNL     1      41.980 -15.112   3.968  1.00  0.00    -0.273 OA
HETATM   14  H   UNL     1      41.135 -17.567   2.131  1.00  0.00     0.169 HD
BRANCH  12  15
HETATM   15  C   UNL     1      42.356 -17.372   4.311  1.00  0.00     0.087 A 
HETATM   16  C   UNL     1      43.761 -17.827   3.928  1.00  0.00     0.032 A 
HETATM   17  C   UNL     1      43.467 -17.350   5.323  1.00  0.00     0.025 A 
BRANCH  16  18
HETATM   18  C   UNL     1      43.956 -19.274   3.559  1.00  0.00    -0.051 A 
HETATM   19  C   UNL     1      44.509 -20.210   4.445  1.00  0.00     0.031 A 
HETATM   20  C   UNL     1      44.711 -21.536   4.051  1.00  0.00     0.034 A 
HETATM   21  C   UNL     1      44.374 -21.955   2.767  1.00  0.00     0.024 A 
HETATM   22 CL   UNL     1      45.390 -22.661   5.163  1.00  0.00    -0.084 Cl
HETATM   23  C   UNL     1      43.828 -21.041   1.870  1.00  0.00     0.002 A 
HETATM   24  C   UNL     1      43.623 -19.719   2.266  1.00  0.00     0.007 A 
ENDBRANCH  16  18
ENDBRANCH  12  15
ENDBRANCH   1  11
BRANCH   8  25
HETATM   25  C   UNL     1      41.423 -14.079  -2.839  1.00  0.00     0.270 C 
HETATM   26  N   UNL     1      42.586 -13.438  -2.508  1.00  0.00    -0.365 N 
HETATM   27  H   UNL     1      42.611 -12.885  -1.661  1.00  0.00     0.159 HD
HETATM   28  H   UNL     1      43.386 -13.514  -3.116  1.00  0.00     0.159 HD
HETATM   29  O   UNL     1      41.340 -14.752  -3.860  1.00  0.00    -0.266 OA
ENDBRANCH   8  25
TORSDOF 4
ENDMDL
MODEL 2
REMARK VINA RESULT:      -8.4      3.943      5.651
REMARK  4 active torsions:
REMARK  status: ('A' for Active; 'I' for Inactive)
REMARK    1  A    between atoms: C_6  and  C_7 
REMARK    2  A    between atoms: C_8  and  C_9 
REMARK       I    between atoms: C_9  and  N_10 
REMARK    3  A    between atoms: N_10  and  C_11 
REMARK    4  A    between atoms: C_18  and  C_19 
REMARK       I    between atoms: C_19  and  N_20 
ROOT
HETATM    1  C   UNL     1      40.899 -15.282   5.170  1.00  0.00     0.035 A 
HETATM    2  C   UNL     1      40.582 -14.308   6.126  1.00  0.00     0.046 A 
HETATM    3  C   UNL     1      39.899 -13.136   5.734  1.00  0.00     0.030 A 
HETATM    4  C   UNL     1      39.556 -12.978   4.398  1.00  0.00     0.063 A 
HETATM    5  N   UNL     1      38.908 -11.776   4.332  1.00  0.00    -0.277 N 
HETATM    6  H   UNL     1      38.510 -11.337   3.509  1.00  0.00     0.189 HD
HETATM    7  N   UNL     1      38.808 -11.131   5.506  1.00  0.00    -0.168 NA
HETATM    8  C   UNL     1      39.419 -11.960   6.384  1.00  0.00     0.156 A 
HETATM    9  C   UNL     1      39.862 -13.922   3.415  1.00  0.00     0.034 A 
HETATM   10  C   UNL     1      40.545 -15.073   3.831  1.00  0.00     0.032 A 
ENDROOT
BRANCH   1  11
HETATM   11  N   UNL     1      41.552 -16.495   5.477  1.00  0.00    -0.327 N 
HETATM   12  C   UNL     1      42.800 -16.895   5.051  1.00  0.00     0.227 C 
HETATM   13  O   UNL     1      43.542 -16.314   4.275  1.00  0.00    -0.273 OA
HETATM   14  H   UNL     1      41.072 -17.113   6.113  1.00  0.00     0.169 HD
BRANCH  12  15
HETATM   15  C   UNL     1      43.292 -18.173   5.635  1.00  0.00     0.087 A 
HETATM   16  C   UNL     1      44.609 -18.689   5.062  1.00  0.00     0.032 A 
HETATM   17  C   UNL     1      44.482 -18.385   6.528  1.00  0.00     0.025 A 
BRANCH  16  18
HETATM   18  C   UNL     1      44.630 -20.083   4.492  1.00  0.00    -0.051 A 
HETATM   19  C   UNL     1      44.375 -20.347   3.138  1.00  0.00     0.031 A 
HETATM   20  C   UNL     1      44.364 -21.659   2.655  1.00  0.00     0.034 A 
HETATM   21  C   UNL     1      44.598 -22.733   3.510  1.00  0.00     0.024 A 
HETATM   22 CL   UNL     1      44.050 -21.950   0.988  1.00  0.00    -0.084 Cl
HETATM   23  C   UNL     1      44.848 -22.493   4.858  1.00  0.00     0.002 A 
HETATM   24  C   UNL     1      44.863 -21.182   5.337  1.00  0.00     0.007 A 
ENDBRANCH  16  18
ENDBRANCH  12  15
ENDBRANCH   1  11
BRANCH   8  25
HETATM   25  C   UNL     1      39.529 -11.615   7.808  1.00  0.00     0.270 C 
HETATM   26  N   UNL     1      38.877 -12.478   8.645  1.00  0.00    -0.365 N 
HETATM   27  H   UNL     1      38.377 -13.260   8.241  1.00  0.00     0.159 HD
HETATM   28  H   UNL     1      38.891 -12.315   9.639  1.00  0.00     0.159 HD
HETATM   29  O   UNL     1      40.140 -10.647   8.249  1.00  0.00    -0.266 OA
ENDBRANCH   8  25
TORSDOF 4
ENDMDL
MODEL 3
REMARK VINA RESULT:      -8.2      2.221      3.162
REMARK  4 active torsions:
REMARK  status: ('A' for Active; 'I' for Inactive)
REMARK    1  A    between atoms: C_6  and  C_7 
REMARK    2  A    between atoms: C_8  and  C_9 
REMARK       I    between atoms: C_9  and  N_10 
REMARK    3  A    between atoms: N_10  and  C_11 
REMARK    4  A    between atoms: C_18  and  C_19 
REMARK       I    between atoms: C_19  and  N_20 
ROOT
HETATM    1  C   UNL     1      40.832 -15.574   4.454  1.00  0.00     0.035 A 
HETATM    2  C   UNL     1      40.511 -15.350   3.109  1.00  0.00     0.046 A 
HETATM    3  C   UNL     1      39.837 -14.167   2.737  1.00  0.00     0.030 A 
HETATM    4  C   UNL     1      39.507 -13.247   3.723  1.00  0.00     0.063 A 
HETATM    5  N   UNL     1      38.885 -12.221   3.066  1.00  0.00    -0.277 N 
HETATM    6  H   UNL     1      38.513 -11.370   3.471  1.00  0.00     0.189 HD
HETATM    7  N   UNL     1      38.772 -12.397   1.739  1.00  0.00    -0.168 NA
HETATM    8  C   UNL     1      39.355 -13.598   1.520  1.00  0.00     0.156 A 
HETATM    9  C   UNL     1      39.803 -13.439   5.075  1.00  0.00     0.034 A 
HETATM   10  C   UNL     1      40.467 -14.625   5.417  1.00  0.00     0.032 A 
ENDROOT
BRANCH   1  11
HETATM   11  N   UNL     1      41.530 -16.713   4.912  1.00  0.00    -0.327 N 
HETATM   12  C   UNL     1      42.881 -16.807   5.170  1.00  0.00     0.227 C 
HETATM   13  O   UNL     1      43.734 -15.955   4.985  1.00  0.00    -0.273 OA
HETATM   14  H   UNL     1      40.973 -17.528   5.115  1.00  0.00     0.169 HD
BRANCH  12  15
HETATM   15  C   UNL     1      43.325 -18.097   5.766  1.00  0.00     0.087 A 
HETATM   16  C   UNL     1      44.636 -18.653   5.218  1.00  0.00     0.032 A 
HETATM   17  C   UNL     1      44.492 -18.340   6.681  1.00  0.00     0.025 A 
BRANCH  16  18
HETATM   18  C   UNL     1      44.627 -20.049   4.653  1.00  0.00    -0.051 A 
HETATM   19  C   UNL     1      44.435 -20.308   3.288  1.00  0.00     0.031 A 
HETATM   20  C   UNL     1      44.393 -21.619   2.807  1.00  0.00     0.034 A 
HETATM   21  C   UNL     1      44.533 -22.699   3.675  1.00  0.00     0.024 A 
HETATM   22 CL   UNL     1      44.158 -21.903   1.126  1.00  0.00    -0.084 Cl
HETATM   23  C   UNL     1      44.719 -22.464   5.034  1.00  0.00     0.002 A 
HETATM   24  C   UNL     1      44.765 -21.154   5.512  1.00  0.00     0.007 A 
ENDBRANCH  16  18
ENDBRANCH  12  15
ENDBRANCH   1  11
BRANCH   8  25
HETATM   25  C   UNL     1      39.438 -14.170   0.169  1.00  0.00     0.270 C 
HETATM   26  N   UNL     1      38.238 -14.238  -0.484  1.00  0.00    -0.365 N 
HETATM   27  H   UNL     1      37.407 -13.909  -0.008  1.00  0.00     0.159 HD
HETATM   28  H   UNL     1      38.198 -14.625  -1.413  1.00  0.00     0.159 HD
HETATM   29  O   UNL     1      40.470 -14.565  -0.361  1.00  0.00    -0.266 OA
ENDBRANCH   8  25
TORSDOF 4
ENDMDL
MODEL 4
REMARK VINA RESULT:      -8.1      1.534      1.998
REMARK  4 active torsions:
REMARK  status: ('A' for Active; 'I' for Inactive)
REMARK    1  A    between atoms: C_6  and  C_7 
REMARK    2  A    between atoms: C_8  and  C_9 
REMARK       I    between atoms: C_9  and  N_10 
REMARK    3  A    between atoms: N_10  and  C_11 
REMARK    4  A    between atoms: C_18  and  C_19 
REMARK       I    between atoms: C_19  and  N_20 
ROOT
HETATM    1  C   UNL     1      41.506 -15.020   0.565  1.00  0.00     0.035 A 
HETATM    2  C   UNL     1      40.866 -15.311  -0.647  1.00  0.00     0.046 A 
HETATM    3  C   UNL     1      40.737 -14.307  -1.630  1.00  0.00     0.030 A 
HETATM    4  C   UNL     1      41.252 -13.044  -1.369  1.00  0.00     0.063 A 
HETATM    5  N   UNL     1      40.988 -12.308  -2.490  1.00  0.00    -0.277 N 
HETATM    6  H   UNL     1      41.228 -11.337  -2.658  1.00  0.00     0.189 HD
HETATM    7  N   UNL     1      40.337 -12.977  -3.456  1.00  0.00    -0.168 NA
HETATM    8  C   UNL     1      40.172 -14.215  -2.938  1.00  0.00     0.156 A 
HETATM    9  C   UNL     1      41.889 -12.714  -0.170  1.00  0.00     0.034 A 
HETATM   10  C   UNL     1      41.999 -13.728   0.791  1.00  0.00     0.032 A 
ENDROOT
BRANCH   1  11
HETATM   11  N   UNL     1      41.707 -15.969   1.591  1.00  0.00    -0.327 N 
HETATM   12  C   UNL     1      41.055 -16.029   2.803  1.00  0.00     0.227 C 
HETATM   13  O   UNL     1      40.238 -15.238   3.247  1.00  0.00    -0.273 OA
HETATM   14  H   UNL     1      42.366 -16.707   1.394  1.00  0.00     0.169 HD
BRANCH  12  15
HETATM   15  C   UNL     1      41.379 -17.215   3.641  1.00  0.00     0.087 A 
HETATM   16  C   UNL     1      42.867 -17.494   3.831  1.00  0.00     0.032 A 
HETATM   17  C   UNL     1      41.981 -17.239   5.018  1.00  0.00     0.025 A 
BRANCH  16  18
HETATM   18  C   UNL     1      43.383 -18.855   3.445  1.00  0.00    -0.051 A 
HETATM   19  C   UNL     1      44.021 -19.706   4.359  1.00  0.00     0.031 A 
HETATM   20  C   UNL     1      44.522 -20.947   3.953  1.00  0.00     0.034 A 
HETATM   21  C   UNL     1      44.406 -21.360   2.628  1.00  0.00     0.024 A 
HETATM   22 CL   UNL     1      45.298 -21.969   5.099  1.00  0.00    -0.084 Cl
HETATM   23  C   UNL     1      43.781 -20.528   1.704  1.00  0.00     0.002 A 
HETATM   24  C   UNL     1      43.277 -19.293   2.112  1.00  0.00     0.007 A 
ENDBRANCH  16  18
ENDBRANCH  12  15
ENDBRANCH   1  11
BRANCH   8  25
HETATM   25  C   UNL     1      39.486 -15.273  -3.693  1.00  0.00     0.270 C 
HETATM   26  N   UNL     1      38.255 -14.912  -4.168  1.00  0.00    -0.365 N 
HETATM   27  H   UNL     1      37.912 -13.981  -3.969  1.00  0.00     0.159 HD
HETATM   28  H   UNL     1      37.709 -15.578  -4.691  1.00  0.00     0.159 HD
HETATM   29  O   UNL     1      39.941 -16.393  -3.900  1.00  0.00    -0.266 OA
ENDBRANCH   8  25
TORSDOF 4
ENDMDL
MODEL 5
REMARK VINA RESULT:      -8.1      7.219      9.991
REMARK  4 active torsions:
REMARK  status: ('A' for Active; 'I' for Inactive)
REMARK    1  A    between atoms: C_6  and  C_7 
REMARK    2  A    between atoms: C_8  and  C_9 
REMARK       I    between atoms: C_9  and  N_10 
REMARK    3  A    between atoms: N_10  and  C_11 
REMARK    4  A    between atoms: C_18  and  C_19 
REMARK       I    between atoms: C_19  and  N_20 
ROOT
HETATM    1  C   UNL     1      43.861 -11.709   9.025  1.00  0.00     0.035 A 
HETATM    2  C   UNL     1      42.689 -11.556   9.778  1.00  0.00     0.046 A 
HETATM    3  C   UNL     1      42.750 -10.953  11.053  1.00  0.00     0.030 A 
HETATM    4  C   UNL     1      43.979 -10.523  11.532  1.00  0.00     0.063 A 
HETATM    5  N   UNL     1      43.719  -9.983  12.761  1.00  0.00    -0.277 N 
HETATM    6  H   UNL     1      44.384  -9.562  13.400  1.00  0.00     0.189 HD
HETATM    7  N   UNL     1      42.428 -10.033  13.130  1.00  0.00    -0.168 NA
HETATM    8  C   UNL     1      41.816 -10.633  12.084  1.00  0.00     0.156 A 
HETATM    9  C   UNL     1      45.169 -10.665  10.814  1.00  0.00     0.034 A 
HETATM   10  C   UNL     1      45.082 -11.271   9.554  1.00  0.00     0.032 A 
ENDROOT
BRANCH   1  11
HETATM   11  N   UNL     1      43.890 -12.271   7.730  1.00  0.00    -0.327 N 
HETATM   12  C   UNL     1      44.211 -13.570   7.399  1.00  0.00     0.227 C 
HETATM   13  O   UNL     1      44.598 -14.453   8.146  1.00  0.00    -0.273 OA
HETATM   14  H   UNL     1      43.599 -11.670   6.975  1.00  0.00     0.169 HD
BRANCH  12  15
HETATM   15  C   UNL     1      44.034 -13.921   5.963  1.00  0.00     0.087 A 
HETATM   16  C   UNL     1      42.920 -14.922   5.668  1.00  0.00     0.032 A 
HETATM   17  C   UNL     1      42.898 -13.551   5.052  1.00  0.00     0.025 A 
BRANCH  16  18
HETATM   18  C   UNL     1      43.281 -16.175   4.914  1.00  0.00    -0.051 A 
HETATM   19  C   UNL     1      43.401 -16.206   3.517  1.00  0.00     0.031 A 
HETATM   20  C   UNL     1      43.698 -17.398   2.851  1.00  0.00     0.034 A 
HETATM   21  C   UNL     1      43.875 -18.583   3.560  1.00  0.00     0.024 A 
HETATM   22 CL   UNL     1      43.840 -17.402   1.136  1.00  0.00    -0.084 Cl
HETATM   23  C   UNL     1      43.755 -18.575   4.947  1.00  0.00     0.002 A 
HETATM   24  C   UNL     1      43.463 -17.383   5.611  1.00  0.00     0.007 A 
ENDBRANCH  16  18
ENDBRANCH  12  15
ENDBRANCH   1  11
BRANCH   8  25
HETATM   25  C   UNL     1      40.368 -10.886  12.091  1.00  0.00     0.270 C 
HETATM   26  N   UNL     1      40.021 -12.142  12.507  1.00  0.00    -0.365 N 
HETATM   27  H   UNL     1      40.757 -12.788  12.765  1.00  0.00     0.159 HD
HETATM   28  H   UNL     1      39.050 -12.407  12.536  1.00  0.00     0.159 HD
HETATM   29  O   UNL     1      39.514 -10.071  11.759  1.00  0.00    -0.266 OA
ENDBRANCH   8  25
TORSDOF 4
ENDMDL
MODEL 6
REMARK VINA RESULT:      -8.1      1.807      2.647
REMARK  4 active torsions:
REMARK  status: ('A' for Active; 'I' for Inactive)
REMARK    1  A    between atoms: C_6  and  C_7 
REMARK    2  A    between atoms: C_8  and  C_9 
REMARK       I    between atoms: C_9  and  N_10 
REMARK    3  A    between atoms: N_10  and  C_11 
REMARK    4  A    between atoms: C_18  and  C_19 
REMARK       I    between atoms: C_19  and  N_20 
ROOT
HETATM    1  C   UNL     1      40.785 -15.628   0.568  1.00  0.00     0.035 A 
HETATM    2  C   UNL     1      39.778 -14.688   0.823  1.00  0.00     0.046 A 
HETATM    3  C   UNL     1      39.287 -13.885  -0.229  1.00  0.00     0.030 A 
HETATM    4  C   UNL     1      39.818 -14.050  -1.501  1.00  0.00     0.063 A 
HETATM    5  N   UNL     1      39.147 -13.158  -2.291  1.00  0.00    -0.277 N 
HETATM    6  H   UNL     1      39.270 -13.006  -3.286  1.00  0.00     0.189 HD
HETATM    7  N   UNL     1      38.231 -12.419  -1.644  1.00  0.00    -0.168 NA
HETATM    8  C   UNL     1      38.308 -12.855  -0.366  1.00  0.00     0.156 A 
HETATM    9  C   UNL     1      40.828 -14.971  -1.792  1.00  0.00     0.034 A 
HETATM   10  C   UNL     1      41.301 -15.751  -0.728  1.00  0.00     0.032 A 
ENDROOT
BRANCH   1  11
HETATM   11  N   UNL     1      41.313 -16.493   1.551  1.00  0.00    -0.327 N 
HETATM   12  C   UNL     1      42.219 -16.169   2.538  1.00  0.00     0.227 C 
HETATM   13  O   UNL     1      42.786 -15.101   2.705  1.00  0.00    -0.273 OA
HETATM   14  H   UNL     1      40.954 -17.435   1.558  1.00  0.00     0.169 HD
BRANCH  12  15
HETATM   15  C   UNL     1      42.505 -17.252   3.518  1.00  0.00     0.087 A 
HETATM   16  C   UNL     1      43.908 -17.848   3.443  1.00  0.00     0.032 A 
HETATM   17  C   UNL     1      43.419 -17.204   4.711  1.00  0.00     0.025 A 
BRANCH  16  18
HETATM   18  C   UNL     1      44.031 -19.336   3.251  1.00  0.00    -0.051 A 
HETATM   19  C   UNL     1      44.555 -20.183   4.238  1.00  0.00     0.031 A 
HETATM   20  C   UNL     1      44.691 -21.555   4.006  1.00  0.00     0.034 A 
HETATM   21  C   UNL     1      44.315 -22.109   2.785  1.00  0.00     0.024 A 
HETATM   22 CL   UNL     1      45.335 -22.568   5.239  1.00  0.00    -0.084 Cl
HETATM   23  C   UNL     1      43.798 -21.286   1.790  1.00  0.00     0.002 A 
HETATM   24  C   UNL     1      43.659 -19.917   2.025  1.00  0.00     0.007 A 
ENDBRANCH  16  18
ENDBRANCH  12  15
ENDBRANCH   1  11
BRANCH   8  25
HETATM   25  C   UNL     1      37.453 -12.287   0.686  1.00  0.00     0.270 C 
HETATM   26  N   UNL     1      38.139 -11.832   1.779  1.00  0.00    -0.365 N 
HETATM   27  H   UNL     1      39.148 -11.922   1.790  1.00  0.00     0.159 HD
HETATM   28  H   UNL     1      37.634 -11.434   2.554  1.00  0.00     0.159 HD
HETATM   29  O   UNL     1      36.231 -12.210   0.630  1.00  0.00    -0.266 OA
ENDBRANCH   8  25
TORSDOF 4
ENDMDL
MODEL 7
REMARK VINA RESULT:      -8.0      5.638      8.518
REMARK  4 active torsions:
REMARK  status: ('A' for Active; 'I' for Inactive)
REMARK    1  A    between atoms: C_6  and  C_7 
REMARK    2  A    between atoms: C_8  and  C_9 
REMARK       I    between atoms: C_9  and  N_10 
REMARK    3  A    between atoms: N_10  and  C_11 
REMARK    4  A    between atoms: C_18  and  C_19 
REMARK       I    between atoms: C_19  and  N_20 
ROOT
HETATM    1  C   UNL     1      44.733 -13.499   7.040  1.00  0.00     0.035 A 
HETATM    2  C   UNL     1      43.831 -12.908   7.935  1.00  0.00     0.046 A 
HETATM    3  C   UNL     1      44.303 -12.006   8.913  1.00  0.00     0.030 A 
HETATM    4  C   UNL     1      45.661 -11.724   8.963  1.00  0.00     0.063 A 
HETATM    5  N   UNL     1      45.806 -10.827   9.984  1.00  0.00    -0.277 N 
HETATM    6  H   UNL     1      46.666 -10.395  10.304  1.00  0.00     0.189 HD
HETATM    7  N   UNL     1      44.663 -10.508  10.613  1.00  0.00    -0.168 NA
HETATM    8  C   UNL     1      43.723 -11.231   9.962  1.00  0.00     0.156 A 
HETATM    9  C   UNL     1      46.592 -12.298   8.093  1.00  0.00     0.034 A 
HETATM   10  C   UNL     1      46.097 -13.195   7.136  1.00  0.00     0.032 A 
ENDROOT
BRANCH   1  11
HETATM   11  N   UNL     1      44.347 -14.387   6.013  1.00  0.00    -0.327 N 
HETATM   12  C   UNL     1      43.467 -14.130   4.984  1.00  0.00     0.227 C 
HETATM   13  O   UNL     1      42.805 -13.121   4.807  1.00  0.00    -0.273 OA
HETATM   14  H   UNL     1      44.799 -15.288   6.008  1.00  0.00     0.169 HD
BRANCH  12  15
HETATM   15  C   UNL     1      43.343 -15.212   3.969  1.00  0.00     0.087 A 
HETATM   16  C   UNL     1      42.655 -16.486   4.452  1.00  0.00     0.032 A 
HETATM   17  C   UNL     1      42.096 -15.709   3.292  1.00  0.00     0.025 A 
BRANCH  16  18
HETATM   18  C   UNL     1      43.401 -17.786   4.310  1.00  0.00    -0.051 A 
HETATM   19  C   UNL     1      43.214 -18.647   3.219  1.00  0.00     0.031 A 
HETATM   20  C   UNL     1      43.896 -19.865   3.143  1.00  0.00     0.034 A 
HETATM   21  C   UNL     1      44.770 -20.253   4.154  1.00  0.00     0.024 A 
HETATM   22 CL   UNL     1      43.645 -20.898   1.789  1.00  0.00    -0.084 Cl
HETATM   23  C   UNL     1      44.967 -19.416   5.248  1.00  0.00     0.002 A 
HETATM   24  C   UNL     1      44.288 -18.199   5.320  1.00  0.00     0.007 A 
ENDBRANCH  16  18
ENDBRANCH  12  15
ENDBRANCH   1  11
BRANCH   8  25
HETATM   25  C   UNL     1      42.307 -11.168  10.351  1.00  0.00     0.270 C 
HETATM   26  N   UNL     1      42.038 -11.724  11.572  1.00  0.00    -0.365 N 
HETATM   27  H   UNL     1      42.801 -12.130  12.099  1.00  0.00     0.159 HD
HETATM   28  H   UNL     1      41.091 -11.733  11.917  1.00  0.00     0.159 HD
HETATM   29  O   UNL     1      41.415 -10.673   9.671  1.00  0.00    -0.266 OA
ENDBRANCH   8  25
TORSDOF 4
ENDMDL
MODEL 8
REMARK VINA RESULT:      -8.0      2.662      3.537
REMARK  4 active torsions:
REMARK  status: ('A' for Active; 'I' for Inactive)
REMARK    1  A    between atoms: C_6  and  C_7 
REMARK    2  A    between atoms: C_8  and  C_9 
REMARK       I    between atoms: C_9  and  N_10 
REMARK    3  A    between atoms: N_10  and  C_11 
REMARK    4  A    between atoms: C_18  and  C_19 
REMARK       I    between atoms: C_19  and  N_20 
ROOT
HETATM    1  C   UNL     1      39.687 -14.804   2.773  1.00  0.00     0.035 A 
HETATM    2  C   UNL     1      39.840 -13.453   3.109  1.00  0.00     0.046 A 
HETATM    3  C   UNL     1      39.049 -12.476   2.467  1.00  0.00     0.030 A 
HETATM    4  C   UNL     1      38.130 -12.884   1.510  1.00  0.00     0.063 A 
HETATM    5  N   UNL     1      37.519 -11.737   1.085  1.00  0.00    -0.277 N 
HETATM    6  H   UNL     1      36.785 -11.653   0.391  1.00  0.00     0.189 HD
HETATM    7  N   UNL     1      37.967 -10.615   1.674  1.00  0.00    -0.168 NA
HETATM    8  C   UNL     1      38.916 -11.057   2.531  1.00  0.00     0.156 A 
HETATM    9  C   UNL     1      37.954 -14.219   1.142  1.00  0.00     0.034 A 
HETATM   10  C   UNL     1      38.757 -15.168   1.790  1.00  0.00     0.032 A 
ENDROOT
BRANCH   1  11
HETATM   11  N   UNL     1      40.413 -15.850   3.384  1.00  0.00    -0.327 N 
HETATM   12  C   UNL     1      41.309 -16.701   2.775  1.00  0.00     0.227 C 
HETATM   13  O   UNL     1      41.589 -16.761   1.588  1.00  0.00    -0.273 OA
HETATM   14  H   UNL     1      40.297 -15.952   4.380  1.00  0.00     0.169 HD
BRANCH  12  15
HETATM   15  C   UNL     1      42.026 -17.630   3.691  1.00  0.00     0.087 A 
HETATM   16  C   UNL     1      43.445 -18.000   3.268  1.00  0.00     0.032 A 
HETATM   17  C   UNL     1      43.193 -17.328   4.589  1.00  0.00     0.025 A 
BRANCH  16  18
HETATM   18  C   UNL     1      43.776 -19.461   3.119  1.00  0.00    -0.051 A 
HETATM   19  C   UNL     1      44.372 -20.208   4.146  1.00  0.00     0.031 A 
HETATM   20  C   UNL     1      44.702 -21.553   3.955  1.00  0.00     0.034 A 
HETATM   21  C   UNL     1      44.452 -22.179   2.737  1.00  0.00     0.024 A 
HETATM   22 CL   UNL     1      45.430 -22.441   5.236  1.00  0.00    -0.084 Cl
HETATM   23  C   UNL     1      43.866 -21.455   1.703  1.00  0.00     0.002 A 
HETATM   24  C   UNL     1      43.534 -20.114   1.897  1.00  0.00     0.007 A 
ENDBRANCH  16  18
ENDBRANCH  12  15
ENDBRANCH   1  11
BRANCH   8  25
HETATM   25  C   UNL     1      39.667 -10.124   3.383  1.00  0.00     0.270 C 
HETATM   26  N   UNL     1      40.345  -9.157   2.692  1.00  0.00    -0.365 N 
HETATM   27  H   UNL     1      40.290  -9.155   1.681  1.00  0.00     0.159 HD
HETATM   28  H   UNL     1      40.895  -8.479   3.194  1.00  0.00     0.159 HD
HETATM   29  O   UNL     1      39.711 -10.175   4.608  1.00  0.00    -0.266 OA
ENDBRANCH   8  25
TORSDOF 4
ENDMDL
MODEL 9
REMARK VINA RESULT:      -7.9      2.475      3.154
REMARK  4 active torsions:
REMARK  status: ('A' for Active; 'I' for Inactive)
REMARK    1  A    between atoms: C_6  and  C_7 
REMARK    2  A    between atoms: C_8  and  C_9 
REMARK       I    between atoms: C_9  and  N_10 
REMARK    3  A    between atoms: N_10  and  C_11 
REMARK    4  A    between atoms: C_18  and  C_19 
REMARK       I    between atoms: C_19  and  N_20 
ROOT
HETATM    1  C   UNL     1      41.514 -15.274  -0.381  1.00  0.00     0.035 A 
HETATM    2  C   UNL     1      41.945 -13.941  -0.338  1.00  0.00     0.046 A 
HETATM    3  C   UNL     1      42.001 -13.183  -1.528  1.00  0.00     0.030 A 
HETATM    4  C   UNL     1      41.622 -13.783  -2.721  1.00  0.00     0.063 A 
HETATM    5  N   UNL     1      41.770 -12.814  -3.674  1.00  0.00    -0.277 N 
HETATM    6  H   UNL     1      41.578 -12.895  -4.667  1.00  0.00     0.189 HD
HETATM    7  N   UNL     1      42.221 -11.638  -3.209  1.00  0.00    -0.168 NA
HETATM    8  C   UNL     1      42.371 -11.851  -1.881  1.00  0.00     0.156 A 
HETATM    9  C   UNL     1      41.195 -15.110  -2.805  1.00  0.00     0.034 A 
HETATM   10  C   UNL     1      41.155 -15.842  -1.610  1.00  0.00     0.032 A 
ENDROOT
BRANCH   1  11
HETATM   11  N   UNL     1      41.399 -16.095   0.761  1.00  0.00    -0.327 N 
HETATM   12  C   UNL     1      42.291 -17.056   1.183  1.00  0.00     0.227 C 
HETATM   13  O   UNL     1      43.306 -17.428   0.616  1.00  0.00    -0.273 OA
HETATM   14  H   UNL     1      40.601 -15.927   1.354  1.00  0.00     0.169 HD
BRANCH  12  15
HETATM   15  C   UNL     1      41.976 -17.684   2.495  1.00  0.00     0.087 A 
HETATM   16  C   UNL     1      43.056 -17.541   3.564  1.00  0.00     0.032 A 
HETATM   17  C   UNL     1      41.673 -17.000   3.800  1.00  0.00     0.025 A 
BRANCH  16  18
HETATM   18  C   UNL     1      43.586 -18.798   4.202  1.00  0.00    -0.051 A 
HETATM   19  C   UNL     1      43.365 -19.110   5.551  1.00  0.00     0.031 A 
HETATM   20  C   UNL     1      43.907 -20.267   6.117  1.00  0.00     0.034 A 
HETATM   21  C   UNL     1      44.687 -21.132   5.354  1.00  0.00     0.024 A 
HETATM   22 CL   UNL     1      43.615 -20.622   7.776  1.00  0.00    -0.084 Cl
HETATM   23  C   UNL     1      44.923 -20.839   4.014  1.00  0.00     0.002 A 
HETATM   24  C   UNL     1      44.377 -19.686   3.450  1.00  0.00     0.007 A 
ENDBRANCH  16  18
ENDBRANCH  12  15
ENDBRANCH   1  11
BRANCH   8  25
HETATM   25  C   UNL     1      42.859 -10.790  -0.989  1.00  0.00     0.270 C 
HETATM   26  N   UNL     1      43.910 -10.074  -1.494  1.00  0.00    -0.365 N 
HETATM   27  H   UNL     1      44.269 -10.319  -2.409  1.00  0.00     0.159 HD
HETATM   28  H   UNL     1      44.315  -9.332  -0.947  1.00  0.00     0.159 HD
HETATM   29  O   UNL     1      42.396 -10.538   0.118  1.00  0.00    -0.266 OA
ENDBRANCH   8  25
TORSDOF 4
ENDMDL
MODEL 10
REMARK VINA RESULT:      -7.8      3.952      8.756
REMARK  4 active torsions:
REMARK  status: ('A' for Active; 'I' for Inactive)
REMARK    1  A    between atoms: C_6  and  C_7 
REMARK    2  A    between atoms: C_8  and  C_9 
REMARK       I    between atoms: C_9  and  N_10 
REMARK    3  A    between atoms: N_10  and  C_11 
REMARK    4  A    between atoms: C_18  and  C_19 
REMARK       I    between atoms: C_19  and  N_20 
ROOT
HETATM    1  C   UNL     1      43.131 -17.753   2.468  1.00  0.00     0.035 A 
HETATM    2  C   UNL     1      43.441 -17.928   3.823  1.00  0.00     0.046 A 
HETATM    3  C   UNL     1      43.972 -19.158   4.268  1.00  0.00     0.030 A 
HETATM    4  C   UNL     1      44.175 -20.172   3.342  1.00  0.00     0.063 A 
HETATM    5  N   UNL     1      44.698 -21.214   4.057  1.00  0.00    -0.277 N 
HETATM    6  H   UNL     1      44.977 -22.122   3.704  1.00  0.00     0.189 HD
HETATM    7  N   UNL     1      44.844 -20.971   5.370  1.00  0.00    -0.168 NA
HETATM    8  C   UNL     1      44.396 -19.703   5.517  1.00  0.00     0.156 A 
HETATM    9  C   UNL     1      43.871 -20.038   1.985  1.00  0.00     0.034 A 
HETATM   10  C   UNL     1      43.340 -18.809   1.572  1.00  0.00     0.032 A 
ENDROOT
BRANCH   1  11
HETATM   11  N   UNL     1      42.627 -16.549   1.931  1.00  0.00    -0.327 N 
HETATM   12  C   UNL     1      41.314 -16.128   1.931  1.00  0.00     0.227 C 
HETATM   13  O   UNL     1      40.337 -16.742   2.328  1.00  0.00    -0.273 OA
HETATM   14  H   UNL     1      43.306 -15.910   1.548  1.00  0.00     0.169 HD
BRANCH  12  15
HETATM   15  C   UNL     1      41.088 -14.753   1.407  1.00  0.00     0.087 A 
HETATM   16  C   UNL     1      40.506 -14.679  -0.002  1.00  0.00     0.032 A 
HETATM   17  C   UNL     1      39.776 -14.062   1.158  1.00  0.00     0.025 A 
BRANCH  16  18
HETATM   18  C   UNL     1      41.264 -13.887  -1.035  1.00  0.00    -0.051 A 
HETATM   19  C   UNL     1      41.969 -12.716  -0.719  1.00  0.00     0.031 A 
HETATM   20  C   UNL     1      42.627 -11.987  -1.714  1.00  0.00     0.034 A 
HETATM   21  C   UNL     1      42.589 -12.403  -3.042  1.00  0.00     0.024 A 
HETATM   22 CL   UNL     1      43.485 -10.556  -1.293  1.00  0.00    -0.084 Cl
HETATM   23  C   UNL     1      41.891 -13.559  -3.378  1.00  0.00     0.002 A 
HETATM   24  C   UNL     1      41.239 -14.288  -2.383  1.00  0.00     0.007 A 
ENDBRANCH  16  18
ENDBRANCH  12  15
ENDBRANCH   1  11
BRANCH   8  25
HETATM   25  C   UNL     1      44.384 -19.046   6.831  1.00  0.00     0.270 C 
HETATM   26  N   UNL     1      43.665 -19.715   7.784  1.00  0.00    -0.365 N 
HETATM   27  H   UNL     1      43.204 -20.578   7.526  1.00  0.00     0.159 HD
HETATM   28  H   UNL     1      43.595 -19.333   8.714  1.00  0.00     0.159 HD
HETATM   29  O   UNL     1      44.952 -17.990   7.092  1.00  0.00    -0.266 OA
ENDBRANCH   8  25
TORSDOF 4
ENDMDL
