MODEL 1
REMARK VINA RESULT:      -7.6      0.000      0.000
REMARK  6 active torsions:
REMARK  status: ('A' for Active; 'I' for Inactive)
REMARK    1  A    between atoms: C_2  and  O_3 
REMARK    2  A    between atoms: O_3  and  C_4 
REMARK    3  A    between atoms: C_4  and  C_5 
REMARK    4  A    between atoms: C_6  and  O_7 
REMARK    5  A    between atoms: C_12  and  O_13 
REMARK    6  A    between atoms: C_17  and  C_18 
ROOT
HETATM    1  C   UNL     1      42.620 -16.516   4.743  1.00  0.00     0.133 C 
HETATM    2  C   UNL     1      41.682 -15.291   5.026  1.00  0.00     0.073 C 
HETATM    3  C   UNL     1      42.482 -13.983   4.877  1.00  0.00     0.047 C 
HETATM    4  C   UNL     1      40.425 -15.251   4.108  1.00  0.00     0.097 C 
HETATM    5  C   UNL     1      40.829 -15.521   2.712  1.00  0.00     0.042 A 
HETATM    6  C   UNL     1      41.962 -16.188   2.297  1.00  0.00     0.030 A 
HETATM    7  C   UNL     1      41.896 -16.085   0.897  1.00  0.00     0.190 A 
HETATM    8  N   UNL     1      40.823 -15.437   0.460  1.00  0.00    -0.149 NA
HETATM    9  N   UNL     1      40.173 -15.109   1.590  1.00  0.00    -0.279 N 
HETATM   10  H   UNL     1      39.305 -14.588   1.510  1.00  0.00     0.189 HD
HETATM   11  C   UNL     1      42.984 -16.740   3.243  1.00  0.00     0.074 C 
ENDROOT
BRANCH  11  12
HETATM   12  C   UNL     1      43.240 -18.181   2.817  1.00  0.00    -0.048 A 
HETATM   13  C   UNL     1      44.457 -18.794   3.161  1.00  0.00     0.011 A 
HETATM   14  C   UNL     1      44.717 -20.117   2.794  1.00  0.00     0.043 A 
HETATM   15  C   UNL     1      43.761 -20.838   2.090  1.00  0.00     0.116 A 
HETATM   16  F   UNL     1      44.015 -22.105   1.738  1.00  0.00    -0.206 F 
HETATM   17  C   UNL     1      42.547 -20.263   1.746  1.00  0.00     0.043 A 
HETATM   18  C   UNL     1      42.284 -18.943   2.113  1.00  0.00     0.011 A 
ENDBRANCH  11  12
BRANCH   1  19
HETATM   19  C   UNL     1      42.059 -17.757   5.407  1.00  0.00     0.267 C 
HETATM   20  O   UNL     1      40.906 -18.150   5.292  1.00  0.00    -0.265 OA
BRANCH  19  21
HETATM   21  O   UNL     1      43.014 -18.331   6.192  1.00  0.00    -0.316 OA
BRANCH  21  22
HETATM   22  C   UNL     1      43.952 -17.446   6.833  1.00  0.00     0.123 C 
HETATM   23  C   UNL     1      45.361 -18.020   6.725  1.00  0.00     0.040 C 
HETATM   24  C   UNL     1      43.530 -17.344   8.294  1.00  0.00     0.040 C 
ENDBRANCH  21  22
ENDBRANCH  19  21
ENDBRANCH   1  19
BRANCH   2  25
HETATM   25  O   UNL     1      41.252 -15.299   6.399  1.00  0.00    -0.389 OA
HETATM   26  H   UNL     1      40.306 -15.055   6.422  1.00  0.00     0.210 HD
ENDBRANCH   2  25
BRANCH   7  27
HETATM   27  O   UNL     1      42.741 -16.530  -0.035  1.00  0.00    -0.343 OA
HETATM   28  H   UNL     1      43.003 -15.798  -0.612  1.00  0.00     0.219 HD
ENDBRANCH   7  27
TORSDOF 6
ENDMDL
MODEL 2
REMARK VINA RESULT:      -7.4      2.322      4.646
REMARK  6 active torsions:
REMARK  status: ('A' for Active; 'I' for Inactive)
REMARK    1  A    between atoms: C_2  and  O_3 
REMARK    2  A    between atoms: O_3  and  C_4 
REMARK    3  A    between atoms: C_4  and  C_5 
REMARK    4  A    between atoms: C_6  and  O_7 
REMARK    5  A    between atoms: C_12  and  O_13 
REMARK    6  A    between atoms: C_17  and  C_18 
ROOT
HETATM    1  C   UNL     1      41.829 -16.800   2.600  1.00  0.00     0.133 C 
HETATM    2  C   UNL     1      41.608 -15.816   1.399  1.00  0.00     0.073 C 
HETATM    3  C   UNL     1      40.106 -15.504   1.256  1.00  0.00     0.047 C 
HETATM    4  C   UNL     1      42.414 -14.491   1.531  1.00  0.00     0.097 C 
HETATM    5  C   UNL     1      42.274 -13.966   2.905  1.00  0.00     0.042 A 
HETATM    6  C   UNL     1      41.952 -14.690   4.034  1.00  0.00     0.030 A 
HETATM    7  C   UNL     1      41.869 -13.703   5.031  1.00  0.00     0.190 A 
HETATM    8  N   UNL     1      42.128 -12.478   4.591  1.00  0.00    -0.149 NA
HETATM    9  N   UNL     1      42.388 -12.661   3.286  1.00  0.00    -0.279 N 
HETATM   10  H   UNL     1      42.610 -11.847   2.721  1.00  0.00     0.189 HD
HETATM   11  C   UNL     1      41.679 -16.162   4.015  1.00  0.00     0.074 C 
ENDROOT
BRANCH  11  12
HETATM   12  C   UNL     1      42.522 -16.777   5.126  1.00  0.00    -0.048 A 
HETATM   13  C   UNL     1      42.030 -17.891   5.828  1.00  0.00     0.011 A 
HETATM   14  C   UNL     1      42.783 -18.483   6.845  1.00  0.00     0.043 A 
HETATM   15  C   UNL     1      44.036 -17.973   7.161  1.00  0.00     0.116 A 
HETATM   16  F   UNL     1      44.755 -18.543   8.137  1.00  0.00    -0.206 F 
HETATM   17  C   UNL     1      44.553 -16.882   6.479  1.00  0.00     0.043 A 
HETATM   18  C   UNL     1      43.803 -16.290   5.461  1.00  0.00     0.011 A 
ENDBRANCH  11  12
BRANCH   1  19
HETATM   19  C   UNL     1      43.137 -17.543   2.421  1.00  0.00     0.267 C 
HETATM   20  O   UNL     1      44.194 -17.026   2.084  1.00  0.00    -0.265 OA
BRANCH  19  21
HETATM   21  O   UNL     1      42.944 -18.875   2.637  1.00  0.00    -0.316 OA
BRANCH  21  22
HETATM   22  C   UNL     1      44.102 -19.725   2.549  1.00  0.00     0.123 C 
HETATM   23  C   UNL     1      43.731 -21.036   1.862  1.00  0.00     0.040 C 
HETATM   24  C   UNL     1      44.565 -19.986   3.977  1.00  0.00     0.040 C 
ENDBRANCH  21  22
ENDBRANCH  19  21
ENDBRANCH   1  19
BRANCH   2  25
HETATM   25  O   UNL     1      41.966 -16.454   0.159  1.00  0.00    -0.389 OA
HETATM   26  H   UNL     1      42.880 -16.792   0.245  1.00  0.00     0.210 HD
ENDBRANCH   2  25
BRANCH   7  27
HETATM   27  O   UNL     1      41.567 -13.818   6.326  1.00  0.00    -0.343 OA
HETATM   28  H   UNL     1      41.613 -14.750   6.589  1.00  0.00     0.219 HD
ENDBRANCH   7  27
TORSDOF 6
ENDMDL
MODEL 3
REMARK VINA RESULT:      -7.2      2.642      4.958
REMARK  6 active torsions:
REMARK  status: ('A' for Active; 'I' for Inactive)
REMARK    1  A    between atoms: C_2  and  O_3 
REMARK    2  A    between atoms: O_3  and  C_4 
REMARK    3  A    between atoms: C_4  and  C_5 
REMARK    4  A    between atoms: C_6  and  O_7 
REMARK    5  A    between atoms: C_12  and  O_13 
REMARK    6  A    between atoms: C_17  and  C_18 
ROOT
HETATM    1  C   UNL     1      41.439 -15.825   2.828  1.00  0.00     0.133 C 
HETATM    2  C   UNL     1      41.299 -14.846   1.611  1.00  0.00     0.073 C 
HETATM    3  C   UNL     1      39.808 -14.560   1.346  1.00  0.00     0.047 C 
HETATM    4  C   UNL     1      42.068 -13.506   1.806  1.00  0.00     0.097 C 
HETATM    5  C   UNL     1      41.807 -12.983   3.163  1.00  0.00     0.042 A 
HETATM    6  C   UNL     1      41.407 -13.712   4.263  1.00  0.00     0.030 A 
HETATM    7  C   UNL     1      41.226 -12.726   5.248  1.00  0.00     0.190 A 
HETATM    8  N   UNL     1      41.498 -11.496   4.828  1.00  0.00    -0.149 NA
HETATM    9  N   UNL     1      41.866 -11.676   3.549  1.00  0.00    -0.279 N 
HETATM   10  H   UNL     1      42.119 -10.859   3.002  1.00  0.00     0.189 HD
HETATM   11  C   UNL     1      41.163 -15.189   4.226  1.00  0.00     0.074 C 
ENDROOT
BRANCH  11  12
HETATM   12  C   UNL     1      41.923 -15.788   5.403  1.00  0.00    -0.048 A 
HETATM   13  C   UNL     1      41.355 -16.856   6.119  1.00  0.00     0.011 A 
HETATM   14  C   UNL     1      42.031 -17.432   7.196  1.00  0.00     0.043 A 
HETATM   15  C   UNL     1      43.283 -16.953   7.560  1.00  0.00     0.116 A 
HETATM   16  F   UNL     1      43.929 -17.508   8.595  1.00  0.00    -0.206 F 
HETATM   17  C   UNL     1      43.875 -15.908   6.866  1.00  0.00     0.043 A 
HETATM   18  C   UNL     1      43.201 -15.332   5.788  1.00  0.00     0.011 A 
ENDBRANCH  11  12
BRANCH   1  19
HETATM   19  C   UNL     1      42.770 -16.544   2.759  1.00  0.00     0.267 C 
HETATM   20  O   UNL     1      43.843 -16.007   2.516  1.00  0.00    -0.265 OA
BRANCH  19  21
HETATM   21  O   UNL     1      42.582 -17.881   2.949  1.00  0.00    -0.316 OA
BRANCH  21  22
HETATM   22  C   UNL     1      43.761 -18.705   2.999  1.00  0.00     0.123 C 
HETATM   23  C   UNL     1      43.557 -19.952   2.144  1.00  0.00     0.040 C 
HETATM   24  C   UNL     1      43.966 -19.090   4.459  1.00  0.00     0.040 C 
ENDBRANCH  21  22
ENDBRANCH  19  21
ENDBRANCH   1  19
BRANCH   2  25
HETATM   25  O   UNL     1      41.768 -15.478   0.406  1.00  0.00    -0.389 OA
HETATM   26  H   UNL     1      41.990 -16.407   0.618  1.00  0.00     0.210 HD
ENDBRANCH   2  25
BRANCH   7  27
HETATM   27  O   UNL     1      40.821 -12.845   6.514  1.00  0.00    -0.343 OA
HETATM   28  H   UNL     1      41.287 -13.583   6.936  1.00  0.00     0.219 HD
ENDBRANCH   7  27
TORSDOF 6
ENDMDL
MODEL 4
REMARK VINA RESULT:      -7.0      2.979      4.959
REMARK  6 active torsions:
REMARK  status: ('A' for Active; 'I' for Inactive)
REMARK    1  A    between atoms: C_2  and  O_3 
REMARK    2  A    between atoms: O_3  and  C_4 
REMARK    3  A    between atoms: C_4  and  C_5 
REMARK    4  A    between atoms: C_6  and  O_7 
REMARK    5  A    between atoms: C_12  and  O_13 
REMARK    6  A    between atoms: C_17  and  C_18 
ROOT
HETATM    1  C   UNL     1      43.064 -17.095   3.496  1.00  0.00     0.133 C 
HETATM    2  C   UNL     1      42.483 -17.338   2.059  1.00  0.00     0.073 C 
HETATM    3  C   UNL     1      43.526 -16.924   1.003  1.00  0.00     0.047 C 
HETATM    4  C   UNL     1      42.038 -18.810   1.814  1.00  0.00     0.097 C 
HETATM    5  C   UNL     1      43.082 -19.728   2.316  1.00  0.00     0.042 A 
HETATM    6  C   UNL     1      44.033 -19.448   3.274  1.00  0.00     0.030 A 
HETATM    7  C   UNL     1      44.808 -20.620   3.303  1.00  0.00     0.190 A 
HETATM    8  N   UNL     1      44.386 -21.560   2.465  1.00  0.00    -0.149 NA
HETATM    9  N   UNL     1      43.317 -20.998   1.877  1.00  0.00    -0.279 N 
HETATM   10  H   UNL     1      42.819 -21.534   1.174  1.00  0.00     0.189 HD
HETATM   11  C   UNL     1      44.149 -18.119   3.954  1.00  0.00     0.074 C 
ENDROOT
BRANCH  11  12
HETATM   12  C   UNL     1      44.225 -18.398   5.450  1.00  0.00    -0.048 A 
HETATM   13  C   UNL     1      43.512 -19.485   5.985  1.00  0.00     0.011 A 
HETATM   14  C   UNL     1      43.569 -19.773   7.351  1.00  0.00     0.043 A 
HETATM   15  C   UNL     1      44.345 -18.983   8.190  1.00  0.00     0.116 A 
HETATM   16  F   UNL     1      44.396 -19.261   9.499  1.00  0.00    -0.206 F 
HETATM   17  C   UNL     1      45.068 -17.910   7.689  1.00  0.00     0.043 A 
HETATM   18  C   UNL     1      45.014 -17.622   6.325  1.00  0.00     0.011 A 
ENDBRANCH  11  12
BRANCH   1  19
HETATM   19  C   UNL     1      41.932 -16.949   4.490  1.00  0.00     0.267 C 
HETATM   20  O   UNL     1      40.969 -17.702   4.569  1.00  0.00    -0.265 OA
BRANCH  19  21
HETATM   21  O   UNL     1      42.118 -15.826   5.240  1.00  0.00    -0.316 OA
BRANCH  21  22
HETATM   22  C   UNL     1      41.521 -14.610   4.754  1.00  0.00     0.123 C 
HETATM   23  C   UNL     1      42.580 -13.515   4.660  1.00  0.00     0.040 C 
HETATM   24  C   UNL     1      40.442 -14.220   5.757  1.00  0.00     0.040 C 
ENDBRANCH  21  22
ENDBRANCH  19  21
ENDBRANCH   1  19
BRANCH   2  25
HETATM   25  O   UNL     1      41.361 -16.469   1.822  1.00  0.00    -0.389 OA
HETATM   26  H   UNL     1      41.277 -15.867   2.588  1.00  0.00     0.210 HD
ENDBRANCH   2  25
BRANCH   7  27
HETATM   27  O   UNL     1      45.886 -20.915   4.032  1.00  0.00    -0.343 OA
HETATM   28  H   UNL     1      45.728 -20.679   4.958  1.00  0.00     0.219 HD
ENDBRANCH   7  27
TORSDOF 6
ENDMDL
MODEL 5
REMARK VINA RESULT:      -6.9      2.645      4.013
REMARK  6 active torsions:
REMARK  status: ('A' for Active; 'I' for Inactive)
REMARK    1  A    between atoms: C_2  and  O_3 
REMARK    2  A    between atoms: O_3  and  C_4 
REMARK    3  A    between atoms: C_4  and  C_5 
REMARK    4  A    between atoms: C_6  and  O_7 
REMARK    5  A    between atoms: C_12  and  O_13 
REMARK    6  A    between atoms: C_17  and  C_18 
ROOT
HETATM    1  C   UNL     1      43.611 -17.600   4.997  1.00  0.00     0.133 C 
HETATM    2  C   UNL     1      43.618 -17.324   6.541  1.00  0.00     0.073 C 
HETATM    3  C   UNL     1      45.038 -16.925   6.989  1.00  0.00     0.047 C 
HETATM    4  C   UNL     1      42.599 -16.231   6.977  1.00  0.00     0.097 C 
HETATM    5  C   UNL     1      42.691 -15.079   6.056  1.00  0.00     0.042 A 
HETATM    6  C   UNL     1      43.170 -15.095   4.764  1.00  0.00     0.030 A 
HETATM    7  C   UNL     1      43.113 -13.742   4.388  1.00  0.00     0.190 A 
HETATM    8  N   UNL     1      42.630 -12.945   5.334  1.00  0.00    -0.149 NA
HETATM    9  N   UNL     1      42.364 -13.787   6.347  1.00  0.00    -0.279 N 
HETATM   10  H   UNL     1      41.985 -13.401   7.205  1.00  0.00     0.189 HD
HETATM   11  C   UNL     1      43.694 -16.329   4.097  1.00  0.00     0.074 C 
ENDROOT
BRANCH  11  12
HETATM   12  C   UNL     1      43.008 -16.417   2.739  1.00  0.00    -0.048 A 
HETATM   13  C   UNL     1      41.701 -15.922   2.594  1.00  0.00     0.011 A 
HETATM   14  C   UNL     1      41.049 -15.980   1.360  1.00  0.00     0.043 A 
HETATM   15  C   UNL     1      41.701 -16.524   0.260  1.00  0.00     0.116 A 
HETATM   16  F   UNL     1      41.072 -16.578  -0.921  1.00  0.00    -0.206 F 
HETATM   17  C   UNL     1      42.995 -17.010   0.370  1.00  0.00     0.043 A 
HETATM   18  C   UNL     1      43.649 -16.951   1.601  1.00  0.00     0.011 A 
ENDBRANCH  11  12
BRANCH   1  19
HETATM   19  C   UNL     1      42.448 -18.502   4.641  1.00  0.00     0.267 C 
HETATM   20  O   UNL     1      41.282 -18.294   4.953  1.00  0.00    -0.265 OA
BRANCH  19  21
HETATM   21  O   UNL     1      42.903 -19.600   3.975  1.00  0.00    -0.316 OA
BRANCH  21  22
HETATM   22  C   UNL     1      44.324 -19.828   3.985  1.00  0.00     0.123 C 
HETATM   23  C   UNL     1      44.777 -20.338   2.621  1.00  0.00     0.040 C 
HETATM   24  C   UNL     1      44.594 -20.874   5.060  1.00  0.00     0.040 C 
ENDBRANCH  21  22
ENDBRANCH  19  21
ENDBRANCH   1  19
BRANCH   2  25
HETATM   25  O   UNL     1      43.336 -18.536   7.265  1.00  0.00    -0.389 OA
HETATM   26  H   UNL     1      43.735 -19.282   6.774  1.00  0.00     0.210 HD
ENDBRANCH   2  25
BRANCH   7  27
HETATM   27  O   UNL     1      43.473 -13.156   3.244  1.00  0.00    -0.343 OA
HETATM   28  H   UNL     1      43.844 -13.817   2.642  1.00  0.00     0.219 HD
ENDBRANCH   7  27
TORSDOF 6
ENDMDL
MODEL 6
REMARK VINA RESULT:      -6.8      3.206      4.947
REMARK  6 active torsions:
REMARK  status: ('A' for Active; 'I' for Inactive)
REMARK    1  A    between atoms: C_2  and  O_3 
REMARK    2  A    between atoms: O_3  and  C_4 
REMARK    3  A    between atoms: C_4  and  C_5 
REMARK    4  A    between atoms: C_6  and  O_7 
REMARK    5  A    between atoms: C_12  and  O_13 
REMARK    6  A    between atoms: C_17  and  C_18 
ROOT
HETATM    1  C   UNL     1      42.490 -16.404   5.557  1.00  0.00     0.133 C 
HETATM    2  C   UNL     1      43.412 -16.628   6.805  1.00  0.00     0.073 C 
HETATM    3  C   UNL     1      42.725 -17.597   7.787  1.00  0.00     0.047 C 
HETATM    4  C   UNL     1      44.828 -17.162   6.439  1.00  0.00     0.097 C 
HETATM    5  C   UNL     1      44.700 -18.255   5.453  1.00  0.00     0.042 A 
HETATM    6  C   UNL     1      43.642 -18.472   4.597  1.00  0.00     0.030 A 
HETATM    7  C   UNL     1      43.993 -19.672   3.955  1.00  0.00     0.190 A 
HETATM    8  N   UNL     1      45.163 -20.163   4.346  1.00  0.00    -0.149 NA
HETATM    9  N   UNL     1      45.588 -19.272   5.257  1.00  0.00    -0.279 N 
HETATM   10  H   UNL     1      46.479 -19.441   5.714  1.00  0.00     0.189 HD
HETATM   11  C   UNL     1      42.425 -17.600   4.557  1.00  0.00     0.074 C 
ENDROOT
BRANCH  11  12
HETATM   12  C   UNL     1      42.188 -17.246   3.094  1.00  0.00    -0.048 A 
HETATM   13  C   UNL     1      40.871 -17.089   2.628  1.00  0.00     0.011 A 
HETATM   14  C   UNL     1      40.622 -16.755   1.294  1.00  0.00     0.043 A 
HETATM   15  C   UNL     1      41.685 -16.566   0.421  1.00  0.00     0.116 A 
HETATM   16  F   UNL     1      41.442 -16.247  -0.857  1.00  0.00    -0.206 F 
HETATM   17  C   UNL     1      42.995 -16.703   0.854  1.00  0.00     0.043 A 
HETATM   18  C   UNL     1      43.247 -17.035   2.186  1.00  0.00     0.011 A 
ENDBRANCH  11  12
BRANCH   1  19
HETATM   19  C   UNL     1      42.844 -15.092   4.887  1.00  0.00     0.267 C 
HETATM   20  O   UNL     1      43.982 -14.724   4.628  1.00  0.00    -0.265 OA
BRANCH  19  21
HETATM   21  O   UNL     1      41.711 -14.366   4.669  1.00  0.00    -0.316 OA
BRANCH  21  22
HETATM   22  C   UNL     1      41.861 -13.119   3.966  1.00  0.00     0.123 C 
HETATM   23  C   UNL     1      41.071 -12.025   4.678  1.00  0.00     0.040 C 
HETATM   24  C   UNL     1      41.314 -13.340   2.560  1.00  0.00     0.040 C 
ENDBRANCH  21  22
ENDBRANCH  19  21
ENDBRANCH   1  19
BRANCH   2  25
HETATM   25  O   UNL     1      43.556 -15.403   7.545  1.00  0.00    -0.389 OA
HETATM   26  H   UNL     1      43.840 -15.629   8.454  1.00  0.00     0.210 HD
ENDBRANCH   2  25
BRANCH   7  27
HETATM   27  O   UNL     1      43.331 -20.376   3.035  1.00  0.00    -0.343 OA
HETATM   28  H   UNL     1      43.822 -21.186   2.829  1.00  0.00     0.219 HD
ENDBRANCH   7  27
TORSDOF 6
ENDMDL
MODEL 7
REMARK VINA RESULT:      -6.8      3.083      5.426
REMARK  6 active torsions:
REMARK  status: ('A' for Active; 'I' for Inactive)
REMARK    1  A    between atoms: C_2  and  O_3 
REMARK    2  A    between atoms: O_3  and  C_4 
REMARK    3  A    between atoms: C_4  and  C_5 
REMARK    4  A    between atoms: C_6  and  O_7 
REMARK    5  A    between atoms: C_12  and  O_13 
REMARK    6  A    between atoms: C_17  and  C_18 
ROOT
HETATM    1  C   UNL     1      40.365 -15.062   2.628  1.00  0.00     0.133 C 
HETATM    2  C   UNL     1      39.740 -14.020   1.636  1.00  0.00     0.073 C 
HETATM    3  C   UNL     1      38.231 -14.294   1.483  1.00  0.00     0.047 C 
HETATM    4  C   UNL     1      39.968 -12.542   2.068  1.00  0.00     0.097 C 
HETATM    5  C   UNL     1      39.678 -12.402   3.510  1.00  0.00     0.042 A 
HETATM    6  C   UNL     1      39.700 -13.406   4.455  1.00  0.00     0.030 A 
HETATM    7  C   UNL     1      39.270 -12.752   5.623  1.00  0.00     0.190 A 
HETATM    8  N   UNL     1      39.017 -11.460   5.448  1.00  0.00    -0.149 NA
HETATM    9  N   UNL     1      39.286 -11.261   4.147  1.00  0.00    -0.279 N 
HETATM   10  H   UNL     1      39.155 -10.329   3.766  1.00  0.00     0.189 HD
HETATM   11  C   UNL     1      40.023 -14.832   4.133  1.00  0.00     0.074 C 
ENDROOT
BRANCH  11  12
HETATM   12  C   UNL     1      41.074 -15.281   5.140  1.00  0.00    -0.048 A 
HETATM   13  C   UNL     1      40.893 -16.493   5.831  1.00  0.00     0.011 A 
HETATM   14  C   UNL     1      41.843 -16.937   6.754  1.00  0.00     0.043 A 
HETATM   15  C   UNL     1      42.984 -16.179   6.987  1.00  0.00     0.116 A 
HETATM   16  F   UNL     1      43.892 -16.608   7.873  1.00  0.00    -0.206 F 
HETATM   17  C   UNL     1      43.195 -14.986   6.313  1.00  0.00     0.043 A 
HETATM   18  C   UNL     1      42.248 -14.541   5.389  1.00  0.00     0.011 A 
ENDBRANCH  11  12
BRANCH   1  19
HETATM   19  C   UNL     1      41.852 -15.186   2.372  1.00  0.00     0.267 C 
HETATM   20  O   UNL     1      42.608 -14.244   2.174  1.00  0.00    -0.265 OA
BRANCH  19  21
HETATM   21  O   UNL     1      42.206 -16.502   2.341  1.00  0.00    -0.316 OA
BRANCH  21  22
HETATM   22  C   UNL     1      43.604 -16.805   2.502  1.00  0.00     0.123 C 
HETATM   23  C   UNL     1      44.141 -17.464   1.235  1.00  0.00     0.040 C 
HETATM   24  C   UNL     1      43.712 -17.761   3.684  1.00  0.00     0.040 C 
ENDBRANCH  21  22
ENDBRANCH  19  21
ENDBRANCH   1  19
BRANCH   2  25
HETATM   25  O   UNL     1      40.278 -14.205   0.315  1.00  0.00    -0.389 OA
HETATM   26  H   UNL     1      40.918 -14.944   0.349  1.00  0.00     0.210 HD
ENDBRANCH   2  25
BRANCH   7  27
HETATM   27  O   UNL     1      39.078 -13.233   6.852  1.00  0.00    -0.343 OA
HETATM   28  H   UNL     1      39.050 -14.201   6.822  1.00  0.00     0.219 HD
ENDBRANCH   7  27
TORSDOF 6
ENDMDL
MODEL 8
REMARK VINA RESULT:      -6.8      2.387      3.269
REMARK  6 active torsions:
REMARK  status: ('A' for Active; 'I' for Inactive)
REMARK    1  A    between atoms: C_2  and  O_3 
REMARK    2  A    between atoms: O_3  and  C_4 
REMARK    3  A    between atoms: C_4  and  C_5 
REMARK    4  A    between atoms: C_6  and  O_7 
REMARK    5  A    between atoms: C_12  and  O_13 
REMARK    6  A    between atoms: C_17  and  C_18 
ROOT
HETATM    1  C   UNL     1      43.659 -15.733   5.506  1.00  0.00     0.133 C 
HETATM    2  C   UNL     1      43.770 -14.631   6.615  1.00  0.00     0.073 C 
HETATM    3  C   UNL     1      45.130 -13.915   6.498  1.00  0.00     0.047 C 
HETATM    4  C   UNL     1      42.617 -13.586   6.566  1.00  0.00     0.097 C 
HETATM    5  C   UNL     1      42.402 -13.158   5.168  1.00  0.00     0.042 A 
HETATM    6  C   UNL     1      42.743 -13.859   4.031  1.00  0.00     0.030 A 
HETATM    7  C   UNL     1      42.401 -12.971   2.996  1.00  0.00     0.190 A 
HETATM    8  N   UNL     1      41.878 -11.829   3.425  1.00  0.00    -0.149 NA
HETATM    9  N   UNL     1      41.874 -11.968   4.761  1.00  0.00    -0.279 N 
HETATM   10  H   UNL     1      41.519 -11.200   5.323  1.00  0.00     0.189 HD
HETATM   11  C   UNL     1      43.415 -15.197   4.061  1.00  0.00     0.074 C 
ENDROOT
BRANCH  11  12
HETATM   12  C   UNL     1      42.624 -16.105   3.128  1.00  0.00    -0.048 A 
HETATM   13  C   UNL     1      41.221 -16.023   3.113  1.00  0.00     0.011 A 
HETATM   14  C   UNL     1      40.467 -16.836   2.262  1.00  0.00     0.043 A 
HETATM   15  C   UNL     1      41.110 -17.728   1.413  1.00  0.00     0.116 A 
HETATM   16  F   UNL     1      40.385 -18.506   0.599  1.00  0.00    -0.206 F 
HETATM   17  C   UNL     1      42.494 -17.823   1.397  1.00  0.00     0.043 A 
HETATM   18  C   UNL     1      43.248 -17.011   2.245  1.00  0.00     0.011 A 
ENDBRANCH  11  12
BRANCH   1  19
HETATM   19  C   UNL     1      42.650 -16.783   5.924  1.00  0.00     0.267 C 
HETATM   20  O   UNL     1      41.605 -16.550   6.517  1.00  0.00    -0.265 OA
BRANCH  19  21
HETATM   21  O   UNL     1      43.110 -18.022   5.591  1.00  0.00    -0.316 OA
BRANCH  21  22
HETATM   22  C   UNL     1      44.473 -18.328   5.940  1.00  0.00     0.123 C 
HETATM   23  C   UNL     1      44.973 -19.497   5.096  1.00  0.00     0.040 C 
HETATM   24  C   UNL     1      44.474 -18.700   7.418  1.00  0.00     0.040 C 
ENDBRANCH  21  22
ENDBRANCH  19  21
ENDBRANCH   1  19
BRANCH   2  25
HETATM   25  O   UNL     1      43.790 -15.237   7.920  1.00  0.00    -0.389 OA
HETATM   26  H   UNL     1      43.055 -15.881   7.966  1.00  0.00     0.210 HD
ENDBRANCH   2  25
BRANCH   7  27
HETATM   27  O   UNL     1      42.530 -13.107   1.675  1.00  0.00    -0.343 OA
HETATM   28  H   UNL     1      43.376 -12.730   1.390  1.00  0.00     0.219 HD
ENDBRANCH   7  27
TORSDOF 6
ENDMDL
MODEL 9
REMARK VINA RESULT:      -6.7      3.732      6.352
REMARK  6 active torsions:
REMARK  status: ('A' for Active; 'I' for Inactive)
REMARK    1  A    between atoms: C_2  and  O_3 
REMARK    2  A    between atoms: O_3  and  C_4 
REMARK    3  A    between atoms: C_4  and  C_5 
REMARK    4  A    between atoms: C_6  and  O_7 
REMARK    5  A    between atoms: C_12  and  O_13 
REMARK    6  A    between atoms: C_17  and  C_18 
ROOT
HETATM    1  C   UNL     1      43.522 -17.393   4.028  1.00  0.00     0.133 C 
HETATM    2  C   UNL     1      43.797 -18.857   4.517  1.00  0.00     0.073 C 
HETATM    3  C   UNL     1      45.315 -19.077   4.663  1.00  0.00     0.047 C 
HETATM    4  C   UNL     1      43.081 -19.207   5.854  1.00  0.00     0.097 C 
HETATM    5  C   UNL     1      43.266 -18.098   6.814  1.00  0.00     0.042 A 
HETATM    6  C   UNL     1      43.549 -16.784   6.509  1.00  0.00     0.030 A 
HETATM    7  C   UNL     1      43.704 -16.191   7.773  1.00  0.00     0.190 A 
HETATM    8  N   UNL     1      43.522 -17.033   8.784  1.00  0.00    -0.149 NA
HETATM    9  N   UNL     1      43.240 -18.197   8.174  1.00  0.00    -0.279 N 
HETATM   10  H   UNL     1      43.067 -19.012   8.753  1.00  0.00     0.189 HD
HETATM   11  C   UNL     1      43.725 -16.285   5.108  1.00  0.00     0.074 C 
ENDROOT
BRANCH  11  12
HETATM   12  C   UNL     1      42.853 -15.043   4.973  1.00  0.00    -0.048 A 
HETATM   13  C   UNL     1      43.297 -13.972   4.177  1.00  0.00     0.011 A 
HETATM   14  C   UNL     1      42.516 -12.824   4.026  1.00  0.00     0.043 A 
HETATM   15  C   UNL     1      41.283 -12.741   4.661  1.00  0.00     0.116 A 
HETATM   16  F   UNL     1      40.537 -11.637   4.515  1.00  0.00    -0.206 F 
HETATM   17  C   UNL     1      40.813 -13.785   5.444  1.00  0.00     0.043 A 
HETATM   18  C   UNL     1      41.591 -14.934   5.594  1.00  0.00     0.011 A 
ENDBRANCH  11  12
BRANCH   1  19
HETATM   19  C   UNL     1      42.168 -17.321   3.355  1.00  0.00     0.267 C 
HETATM   20  O   UNL     1      41.141 -17.819   3.798  1.00  0.00    -0.265 OA
BRANCH  19  21
HETATM   21  O   UNL     1      42.279 -16.671   2.162  1.00  0.00    -0.316 OA
BRANCH  21  22
HETATM   22  C   UNL     1      41.066 -16.468   1.414  1.00  0.00     0.123 C 
HETATM   23  C   UNL     1      41.385 -16.390  -0.076  1.00  0.00     0.040 C 
HETATM   24  C   UNL     1      40.466 -15.154   1.899  1.00  0.00     0.040 C 
ENDBRANCH  21  22
ENDBRANCH  19  21
ENDBRANCH   1  19
BRANCH   2  25
HETATM   25  O   UNL     1      43.389 -19.803   3.512  1.00  0.00    -0.389 OA
HETATM   26  H   UNL     1      42.601 -20.277   3.845  1.00  0.00     0.210 HD
ENDBRANCH   2  25
BRANCH   7  27
HETATM   27  O   UNL     1      44.009 -14.933   8.097  1.00  0.00    -0.343 OA
HETATM   28  H   UNL     1      43.623 -14.327   7.447  1.00  0.00     0.219 HD
ENDBRANCH   7  27
TORSDOF 6
ENDMDL
MODEL 10
REMARK VINA RESULT:      -6.6      2.014      2.819
REMARK  6 active torsions:
REMARK  status: ('A' for Active; 'I' for Inactive)
REMARK    1  A    between atoms: C_2  and  O_3 
REMARK    2  A    between atoms: O_3  and  C_4 
REMARK    3  A    between atoms: C_4  and  C_5 
REMARK    4  A    between atoms: C_6  and  O_7 
REMARK    5  A    between atoms: C_12  and  O_13 
REMARK    6  A    between atoms: C_17  and  C_18 
ROOT
HETATM    1  C   UNL     1      41.815 -14.076   2.995  1.00  0.00     0.133 C 
HETATM    2  C   UNL     1      40.729 -12.946   2.954  1.00  0.00     0.073 C 
HETATM    3  C   UNL     1      41.325 -11.679   2.311  1.00  0.00     0.047 C 
HETATM    4  C   UNL     1      39.432 -13.362   2.199  1.00  0.00     0.097 C 
HETATM    5  C   UNL     1      39.796 -14.035   0.934  1.00  0.00     0.042 A 
HETATM    6  C   UNL     1      40.989 -14.665   0.651  1.00  0.00     0.030 A 
HETATM    7  C   UNL     1      40.835 -15.045  -0.693  1.00  0.00     0.190 A 
HETATM    8  N   UNL     1      39.660 -14.710  -1.212  1.00  0.00    -0.149 NA
HETATM    9  N   UNL     1      39.030 -14.102  -0.193  1.00  0.00    -0.279 N 
HETATM   10  H   UNL     1      38.094 -13.742  -0.353  1.00  0.00     0.189 HD
HETATM   11  C   UNL     1      42.127 -14.746   1.621  1.00  0.00     0.074 C 
ENDROOT
BRANCH  11  12
HETATM   12  C   UNL     1      42.562 -16.205   1.664  1.00  0.00    -0.048 A 
HETATM   13  C   UNL     1      41.587 -17.217   1.634  1.00  0.00     0.011 A 
HETATM   14  C   UNL     1      41.955 -18.564   1.662  1.00  0.00     0.043 A 
HETATM   15  C   UNL     1      43.299 -18.910   1.712  1.00  0.00     0.116 A 
HETATM   16  F   UNL     1      43.649 -20.203   1.740  1.00  0.00    -0.206 F 
HETATM   17  C   UNL     1      44.285 -17.935   1.731  1.00  0.00     0.043 A 
HETATM   18  C   UNL     1      43.920 -16.588   1.701  1.00  0.00     0.011 A 
ENDBRANCH  11  12
BRANCH   1  19
HETATM   19  C   UNL     1      41.471 -15.079   4.077  1.00  0.00     0.267 C 
HETATM   20  O   UNL     1      40.341 -15.479   4.326  1.00  0.00    -0.265 OA
BRANCH  19  21
HETATM   21  O   UNL     1      42.599 -15.422   4.762  1.00  0.00    -0.316 OA
BRANCH  21  22
HETATM   22  C   UNL     1      42.454 -16.397   5.811  1.00  0.00     0.123 C 
HETATM   23  C   UNL     1      43.393 -16.060   6.964  1.00  0.00     0.040 C 
HETATM   24  C   UNL     1      42.816 -17.749   5.207  1.00  0.00     0.040 C 
ENDBRANCH  21  22
ENDBRANCH  19  21
ENDBRANCH   1  19
BRANCH   2  25
HETATM   25  O   UNL     1      40.377 -12.544   4.290  1.00  0.00    -0.389 OA
HETATM   26  H   UNL     1      39.893 -11.696   4.234  1.00  0.00     0.210 HD
ENDBRANCH   2  25
BRANCH   7  27
HETATM   27  O   UNL     1      41.685 -15.675  -1.507  1.00  0.00    -0.343 OA
HETATM   28  H   UNL     1      42.110 -16.405  -1.033  1.00  0.00     0.219 HD
ENDBRANCH   7  27
TORSDOF 6
ENDMDL
