MODEL 1
REMARK VINA RESULT:      -8.6      0.000      0.000
REMARK  4 active torsions:
REMARK  status: ('A' for Active; 'I' for Inactive)
REMARK    1  A    between atoms: C_2  and  C_3 
REMARK    2  A    between atoms: C_7  and  N_8 
REMARK       I    between atoms: N_8  and  C_9 
REMARK    3  A    between atoms: C_9  and  C_10 
REMARK    4  A    between atoms: C_12  and  C_13 
ROOT
HETATM    1  C   UNL     1      43.214 -15.925   4.610  1.00  0.00     0.149 A 
HETATM    2  N   UNL     1      43.452 -17.283   4.776  1.00  0.00    -0.223 NA
HETATM    3  C   UNL     1      43.580 -17.799   3.565  1.00  0.00     0.139 A 
HETATM    4  N   UNL     1      43.417 -16.808   2.623  1.00  0.00    -0.342 N 
HETATM    5  H   UNL     1      43.459 -16.937   1.623  1.00  0.00     0.167 HD
HETATM    6  C   UNL     1      43.189 -15.616   3.264  1.00  0.00     0.041 A 
HETATM    7  C   UNL     1      42.979 -14.339   2.545  1.00  0.00     0.071 C 
ENDROOT
BRANCH   1   8
HETATM    8  C   UNL     1      43.031 -15.014   5.743  1.00  0.00     0.278 C 
HETATM    9  N   UNL     1      44.213 -14.391   6.098  1.00  0.00    -0.306 N 
HETATM   10  H   UNL     1      45.037 -14.635   5.554  1.00  0.00     0.170 HD
HETATM   11  O   UNL     1      41.948 -14.833   6.298  1.00  0.00    -0.265 OA
BRANCH   9  12
HETATM   12  C   UNL     1      44.296 -13.469   7.117  1.00  0.00     0.126 A 
HETATM   13  N   UNL     1      43.280 -12.626   7.480  1.00  0.00    -0.262 N 
HETATM   14  N   UNL     1      43.600 -11.800   8.493  1.00  0.00    -0.178 NA
HETATM   15  H   UNL     1      42.354 -12.571   7.062  1.00  0.00     0.191 HD
HETATM   16  C   UNL     1      44.862 -12.136   8.792  1.00  0.00     0.058 A 
HETATM   17  C   UNL     1      45.341 -13.178   7.959  1.00  0.00     0.079 A 
BRANCH  16  18
HETATM   18  C   UNL     1      45.593 -11.429   9.883  1.00  0.00     0.056 C 
HETATM   19  C   UNL     1      44.656 -10.868  10.941  1.00  0.00     0.011 C 
ENDBRANCH  16  18
ENDBRANCH   9  12
ENDBRANCH   1   8
BRANCH   3  20
HETATM   20  C   UNL     1      43.851 -19.209   3.259  1.00  0.00     0.012 A 
HETATM   21  C   UNL     1      44.393 -20.032   4.261  1.00  0.00     0.039 A 
HETATM   22  C   UNL     1      44.668 -21.375   4.007  1.00  0.00     0.035 A 
HETATM   23 CL   UNL     1      45.332 -22.361   5.251  1.00  0.00    -0.084 Cl
HETATM   24  C   UNL     1      44.409 -21.926   2.756  1.00  0.00     0.024 A 
HETATM   25  C   UNL     1      43.872 -21.124   1.750  1.00  0.00     0.003 A 
HETATM   26  C   UNL     1      43.595 -19.775   2.000  1.00  0.00     0.015 A 
ENDBRANCH   3  20
TORSDOF 4
ENDMDL
MODEL 2
REMARK VINA RESULT:      -8.3      1.864      2.267
REMARK  4 active torsions:
REMARK  status: ('A' for Active; 'I' for Inactive)
REMARK    1  A    between atoms: C_2  and  C_3 
REMARK    2  A    between atoms: C_7  and  N_8 
REMARK       I    between atoms: N_8  and  C_9 
REMARK    3  A    between atoms: C_9  and  C_10 
REMARK    4  A    between atoms: C_12  and  C_13 
ROOT
HETATM    1  C   UNL     1      43.412 -15.942   5.711  1.00  0.00     0.149 A 
HETATM    2  N   UNL     1      44.224 -17.063   5.599  1.00  0.00    -0.223 NA
HETATM    3  C   UNL     1      43.443 -18.066   5.237  1.00  0.00     0.139 A 
HETATM    4  N   UNL     1      42.145 -17.621   5.127  1.00  0.00    -0.342 N 
HETATM    5  H   UNL     1      41.350 -18.189   4.873  1.00  0.00     0.167 HD
HETATM    6  C   UNL     1      42.105 -16.281   5.418  1.00  0.00     0.041 A 
HETATM    7  C   UNL     1      40.860 -15.482   5.386  1.00  0.00     0.071 C 
ENDROOT
BRANCH   1   8
HETATM    8  C   UNL     1      43.936 -14.626   6.085  1.00  0.00     0.278 C 
HETATM    9  N   UNL     1      44.309 -14.579   7.415  1.00  0.00    -0.306 N 
HETATM   10  H   UNL     1      44.175 -15.431   7.955  1.00  0.00     0.170 HD
HETATM   11  O   UNL     1      44.030 -13.686   5.296  1.00  0.00    -0.265 OA
BRANCH   9  12
HETATM   12  C   UNL     1      44.855 -13.459   8.000  1.00  0.00     0.126 A 
HETATM   13  N   UNL     1      46.029 -12.875   7.604  1.00  0.00    -0.262 N 
HETATM   14  N   UNL     1      46.370 -11.800   8.337  1.00  0.00    -0.178 NA
HETATM   15  H   UNL     1      46.634 -13.177   6.845  1.00  0.00     0.191 HD
HETATM   16  C   UNL     1      45.374 -11.690   9.226  1.00  0.00     0.058 A 
HETATM   17  C   UNL     1      44.400 -12.705   9.053  1.00  0.00     0.079 A 
BRANCH  16  18
HETATM   18  C   UNL     1      45.387 -10.598  10.242  1.00  0.00     0.056 C 
HETATM   19  C   UNL     1      44.012 -10.348  10.844  1.00  0.00     0.011 C 
ENDBRANCH  16  18
ENDBRANCH   9  12
ENDBRANCH   1   8
BRANCH   3  20
HETATM   20  C   UNL     1      43.879 -19.446   4.992  1.00  0.00     0.012 A 
HETATM   21  C   UNL     1      44.038 -19.886   3.667  1.00  0.00     0.039 A 
HETATM   22  C   UNL     1      44.447 -21.191   3.394  1.00  0.00     0.035 A 
HETATM   23 CL   UNL     1      44.633 -21.704   1.762  1.00  0.00    -0.084 Cl
HETATM   24  C   UNL     1      44.705 -22.082   4.430  1.00  0.00     0.024 A 
HETATM   25  C   UNL     1      44.551 -21.664   5.751  1.00  0.00     0.003 A 
HETATM   26  C   UNL     1      44.140 -20.355   6.030  1.00  0.00     0.015 A 
ENDBRANCH   3  20
TORSDOF 4
ENDMDL
MODEL 3
REMARK VINA RESULT:      -8.3      5.206      7.551
REMARK  4 active torsions:
REMARK  status: ('A' for Active; 'I' for Inactive)
REMARK    1  A    between atoms: C_2  and  C_3 
REMARK    2  A    between atoms: C_7  and  N_8 
REMARK       I    between atoms: N_8  and  C_9 
REMARK    3  A    between atoms: C_9  and  C_10 
REMARK    4  A    between atoms: C_12  and  C_13 
ROOT
HETATM    1  C   UNL     1      41.436 -16.034   0.545  1.00  0.00     0.149 A 
HETATM    2  N   UNL     1      42.473 -16.923   0.791  1.00  0.00    -0.223 NA
HETATM    3  C   UNL     1      42.223 -17.487   1.960  1.00  0.00     0.139 A 
HETATM    4  N   UNL     1      41.057 -16.971   2.480  1.00  0.00    -0.342 N 
HETATM    5  H   UNL     1      40.646 -17.226   3.366  1.00  0.00     0.167 HD
HETATM    6  C   UNL     1      40.542 -16.055   1.598  1.00  0.00     0.041 A 
HETATM    7  C   UNL     1      39.284 -15.314   1.843  1.00  0.00     0.071 C 
ENDROOT
BRANCH   1   8
HETATM    8  C   UNL     1      41.364 -15.228  -0.677  1.00  0.00     0.278 C 
HETATM    9  N   UNL     1      42.119 -14.074  -0.577  1.00  0.00    -0.306 N 
HETATM   10  H   UNL     1      42.610 -13.926   0.301  1.00  0.00     0.170 HD
HETATM   11  O   UNL     1      40.709 -15.555  -1.667  1.00  0.00    -0.265 OA
BRANCH   9  12
HETATM   12  C   UNL     1      42.235 -13.165  -1.605  1.00  0.00     0.126 A 
HETATM   13  N   UNL     1      42.397 -13.504  -2.922  1.00  0.00    -0.262 N 
HETATM   14  N   UNL     1      42.504 -12.442  -3.742  1.00  0.00    -0.178 NA
HETATM   15  H   UNL     1      42.448 -14.443  -3.308  1.00  0.00     0.191 HD
HETATM   16  C   UNL     1      42.396 -11.391  -2.920  1.00  0.00     0.058 A 
HETATM   17  C   UNL     1      42.224 -11.792  -1.571  1.00  0.00     0.079 A 
BRANCH  16  18
HETATM   18  C   UNL     1      42.472 -10.002  -3.457  1.00  0.00     0.056 C 
HETATM   19  C   UNL     1      42.501  -9.968  -4.977  1.00  0.00     0.011 C 
ENDBRANCH  16  18
ENDBRANCH   9  12
ENDBRANCH   1   8
BRANCH   3  20
HETATM   20  C   UNL     1      43.054 -18.504   2.616  1.00  0.00     0.012 A 
HETATM   21  C   UNL     1      43.350 -19.691   1.927  1.00  0.00     0.039 A 
HETATM   22  C   UNL     1      44.133 -20.682   2.518  1.00  0.00     0.035 A 
HETATM   23 CL   UNL     1      44.480 -22.128   1.651  1.00  0.00    -0.084 Cl
HETATM   24  C   UNL     1      44.636 -20.512   3.804  1.00  0.00     0.024 A 
HETATM   25  C   UNL     1      44.352 -19.341   4.504  1.00  0.00     0.003 A 
HETATM   26  C   UNL     1      43.566 -18.343   3.914  1.00  0.00     0.015 A 
ENDBRANCH   3  20
TORSDOF 4
ENDMDL
MODEL 4
REMARK VINA RESULT:      -8.2      3.222      8.601
REMARK  4 active torsions:
REMARK  status: ('A' for Active; 'I' for Inactive)
REMARK    1  A    between atoms: C_2  and  C_3 
REMARK    2  A    between atoms: C_7  and  N_8 
REMARK       I    between atoms: N_8  and  C_9 
REMARK    3  A    between atoms: C_9  and  C_10 
REMARK    4  A    between atoms: C_12  and  C_13 
ROOT
HETATM    1  C   UNL     1      43.470 -16.021   6.401  1.00  0.00     0.149 A 
HETATM    2  N   UNL     1      44.487 -15.416   7.127  1.00  0.00    -0.223 NA
HETATM    3  C   UNL     1      44.203 -14.126   7.178  1.00  0.00     0.139 A 
HETATM    4  N   UNL     1      43.035 -13.884   6.491  1.00  0.00    -0.342 N 
HETATM    5  H   UNL     1      42.602 -12.980   6.370  1.00  0.00     0.167 HD
HETATM    6  C   UNL     1      42.555 -15.069   5.996  1.00  0.00     0.041 A 
HETATM    7  C   UNL     1      41.304 -15.171   5.210  1.00  0.00     0.071 C 
ENDROOT
BRANCH   1   8
HETATM    8  C   UNL     1      43.437 -17.464   6.146  1.00  0.00     0.278 C 
HETATM    9  N   UNL     1      44.241 -17.816   5.078  1.00  0.00    -0.306 N 
HETATM   10  H   UNL     1      44.736 -17.059   4.612  1.00  0.00     0.170 HD
HETATM   11  O   UNL     1      42.772 -18.254   6.815  1.00  0.00    -0.265 OA
BRANCH   9  12
HETATM   12  C   UNL     1      44.400 -19.118   4.658  1.00  0.00     0.126 A 
HETATM   13  N   UNL     1      44.690 -20.167   5.489  1.00  0.00    -0.262 N 
HETATM   14  N   UNL     1      44.815 -21.344   4.847  1.00  0.00    -0.178 NA
HETATM   15  H   UNL     1      44.819 -20.130   6.496  1.00  0.00     0.191 HD
HETATM   16  C   UNL     1      44.587 -21.033   3.564  1.00  0.00     0.058 A 
HETATM   17  C   UNL     1      44.320 -19.652   3.396  1.00  0.00     0.079 A 
BRANCH  16  18
HETATM   18  C   UNL     1      44.641 -22.089   2.512  1.00  0.00     0.056 C 
HETATM   19  C   UNL     1      43.636 -21.848   1.395  1.00  0.00     0.011 C 
ENDBRANCH  16  18
ENDBRANCH   9  12
ENDBRANCH   1   8
BRANCH   3  20
HETATM   20  C   UNL     1      45.004 -13.099   7.856  1.00  0.00     0.012 A 
HETATM   21  C   UNL     1      44.460 -12.433   8.967  1.00  0.00     0.039 A 
HETATM   22  C   UNL     1      45.188 -11.449   9.635  1.00  0.00     0.035 A 
HETATM   23 CL   UNL     1      44.498 -10.649  10.993  1.00  0.00    -0.084 Cl
HETATM   24  C   UNL     1      46.469 -11.108   9.211  1.00  0.00     0.024 A 
HETATM   25  C   UNL     1      47.024 -11.757   8.110  1.00  0.00     0.003 A 
HETATM   26  C   UNL     1      46.297 -12.745   7.436  1.00  0.00     0.015 A 
ENDBRANCH   3  20
TORSDOF 4
ENDMDL
MODEL 5
REMARK VINA RESULT:      -8.0      3.245      5.512
REMARK  4 active torsions:
REMARK  status: ('A' for Active; 'I' for Inactive)
REMARK    1  A    between atoms: C_2  and  C_3 
REMARK    2  A    between atoms: C_7  and  N_8 
REMARK       I    between atoms: N_8  and  C_9 
REMARK    3  A    between atoms: C_9  and  C_10 
REMARK    4  A    between atoms: C_12  and  C_13 
ROOT
HETATM    1  C   UNL     1      43.257 -15.809   3.558  1.00  0.00     0.149 A 
HETATM    2  N   UNL     1      43.623 -16.935   2.834  1.00  0.00    -0.223 NA
HETATM    3  C   UNL     1      43.535 -17.965   3.659  1.00  0.00     0.139 A 
HETATM    4  N   UNL     1      43.134 -17.526   4.901  1.00  0.00    -0.342 N 
HETATM    5  H   UNL     1      42.998 -18.110   5.713  1.00  0.00     0.167 HD
HETATM    6  C   UNL     1      42.948 -16.168   4.856  1.00  0.00     0.041 A 
HETATM    7  C   UNL     1      42.506 -15.372   6.024  1.00  0.00     0.071 C 
ENDROOT
BRANCH   1   8
HETATM    8  C   UNL     1      43.220 -14.470   2.964  1.00  0.00     0.278 C 
HETATM    9  N   UNL     1      42.296 -14.386   1.940  1.00  0.00    -0.306 N 
HETATM   10  H   UNL     1      41.775 -15.234   1.726  1.00  0.00     0.170 HD
HETATM   11  O   UNL     1      43.931 -13.541   3.347  1.00  0.00    -0.265 OA
BRANCH   9  12
HETATM   12  C   UNL     1      42.055 -13.224   1.243  1.00  0.00     0.126 A 
HETATM   13  N   UNL     1      42.016 -11.977   1.808  1.00  0.00    -0.262 N 
HETATM   14  N   UNL     1      41.747 -10.995   0.929  1.00  0.00    -0.178 NA
HETATM   15  H   UNL     1      42.159 -11.748   2.788  1.00  0.00     0.191 HD
HETATM   16  C   UNL     1      41.620 -11.637  -0.239  1.00  0.00     0.058 A 
HETATM   17  C   UNL     1      41.806 -13.035  -0.095  1.00  0.00     0.079 A 
BRANCH  16  18
HETATM   18  C   UNL     1      41.307 -10.881  -1.486  1.00  0.00     0.056 C 
HETATM   19  C   UNL     1      42.549 -10.281  -2.129  1.00  0.00     0.011 C 
ENDBRANCH  16  18
ENDBRANCH   9  12
ENDBRANCH   1   8
BRANCH   3  20
HETATM   20  C   UNL     1      43.823 -19.364   3.317  1.00  0.00     0.012 A 
HETATM   21  C   UNL     1      44.394 -20.200   4.291  1.00  0.00     0.039 A 
HETATM   22  C   UNL     1      44.685 -21.533   4.003  1.00  0.00     0.035 A 
HETATM   23 CL   UNL     1      45.384 -22.536   5.214  1.00  0.00    -0.084 Cl
HETATM   24  C   UNL     1      44.414 -22.059   2.743  1.00  0.00     0.024 A 
HETATM   25  C   UNL     1      43.850 -21.243   1.764  1.00  0.00     0.003 A 
HETATM   26  C   UNL     1      43.556 -19.905   2.049  1.00  0.00     0.015 A 
ENDBRANCH   3  20
TORSDOF 4
ENDMDL
MODEL 6
REMARK VINA RESULT:      -7.8      4.236      7.256
REMARK  4 active torsions:
REMARK  status: ('A' for Active; 'I' for Inactive)
REMARK    1  A    between atoms: C_2  and  C_3 
REMARK    2  A    between atoms: C_7  and  N_8 
REMARK       I    between atoms: N_8  and  C_9 
REMARK    3  A    between atoms: C_9  and  C_10 
REMARK    4  A    between atoms: C_12  and  C_13 
ROOT
HETATM    1  C   UNL     1      40.977 -16.074   2.527  1.00  0.00     0.149 A 
HETATM    2  N   UNL     1      41.788 -17.167   2.253  1.00  0.00    -0.223 NA
HETATM    3  C   UNL     1      42.304 -17.559   3.405  1.00  0.00     0.139 A 
HETATM    4  N   UNL     1      41.856 -16.736   4.413  1.00  0.00    -0.342 N 
HETATM    5  H   UNL     1      42.107 -16.812   5.388  1.00  0.00     0.167 HD
HETATM    6  C   UNL     1      41.013 -15.794   3.879  1.00  0.00     0.041 A 
HETATM    7  C   UNL     1      40.344 -14.752   4.692  1.00  0.00     0.071 C 
ENDROOT
BRANCH   1   8
HETATM    8  C   UNL     1      40.220 -15.374   1.485  1.00  0.00     0.278 C 
HETATM    9  N   UNL     1      41.014 -15.059   0.398  1.00  0.00    -0.306 N 
HETATM   10  H   UNL     1      41.991 -15.335   0.452  1.00  0.00     0.170 HD
HETATM   11  O   UNL     1      39.022 -15.111   1.580  1.00  0.00    -0.265 OA
BRANCH   9  12
HETATM   12  C   UNL     1      40.528 -14.423  -0.722  1.00  0.00     0.126 A 
HETATM   13  N   UNL     1      39.309 -14.680  -1.290  1.00  0.00    -0.262 N 
HETATM   14  N   UNL     1      39.060 -13.946  -2.389  1.00  0.00    -0.178 NA
HETATM   15  H   UNL     1      38.616 -15.352  -0.968  1.00  0.00     0.191 HD
HETATM   16  C   UNL     1      40.156 -13.187  -2.521  1.00  0.00     0.058 A 
HETATM   17  C   UNL     1      41.103 -13.448  -1.500  1.00  0.00     0.079 A 
BRANCH  16  18
HETATM   18  C   UNL     1      40.272 -12.220  -3.651  1.00  0.00     0.056 C 
HETATM   19  C   UNL     1      41.718 -11.937  -4.027  1.00  0.00     0.011 C 
ENDBRANCH  16  18
ENDBRANCH   9  12
ENDBRANCH   1   8
BRANCH   3  20
HETATM   20  C   UNL     1      43.218 -18.692   3.593  1.00  0.00     0.012 A 
HETATM   21  C   UNL     1      43.335 -19.650   2.572  1.00  0.00     0.039 A 
HETATM   22  C   UNL     1      44.190 -20.743   2.715  1.00  0.00     0.035 A 
HETATM   23 CL   UNL     1      44.315 -21.902   1.450  1.00  0.00    -0.084 Cl
HETATM   24  C   UNL     1      44.943 -20.904   3.874  1.00  0.00     0.024 A 
HETATM   25  C   UNL     1      44.838 -19.964   4.898  1.00  0.00     0.003 A 
HETATM   26  C   UNL     1      43.981 -18.866   4.759  1.00  0.00     0.015 A 
ENDBRANCH   3  20
TORSDOF 4
ENDMDL
MODEL 7
REMARK VINA RESULT:      -7.7      3.547      6.752
REMARK  4 active torsions:
REMARK  status: ('A' for Active; 'I' for Inactive)
REMARK    1  A    between atoms: C_2  and  C_3 
REMARK    2  A    between atoms: C_7  and  N_8 
REMARK       I    between atoms: N_8  and  C_9 
REMARK    3  A    between atoms: C_9  and  C_10 
REMARK    4  A    between atoms: C_12  and  C_13 
ROOT
HETATM    1  C   UNL     1      42.779 -16.204   2.406  1.00  0.00     0.149 A 
HETATM    2  N   UNL     1      42.967 -17.491   1.920  1.00  0.00    -0.223 NA
HETATM    3  C   UNL     1      43.450 -18.209   2.920  1.00  0.00     0.139 A 
HETATM    4  N   UNL     1      43.591 -17.413   4.033  1.00  0.00    -0.342 N 
HETATM    5  H   UNL     1      43.948 -17.713   4.928  1.00  0.00     0.167 HD
HETATM    6  C   UNL     1      43.168 -16.143   3.730  1.00  0.00     0.041 A 
HETATM    7  C   UNL     1      43.176 -15.032   4.708  1.00  0.00     0.071 C 
ENDROOT
BRANCH   1   8
HETATM    8  C   UNL     1      42.238 -15.122   1.579  1.00  0.00     0.278 C 
HETATM    9  N   UNL     1      41.577 -15.608   0.466  1.00  0.00    -0.306 N 
HETATM   10  H   UNL     1      41.551 -16.619   0.356  1.00  0.00     0.170 HD
HETATM   11  O   UNL     1      42.362 -13.930   1.857  1.00  0.00    -0.265 OA
BRANCH   9  12
HETATM   12  C   UNL     1      40.958 -14.789  -0.452  1.00  0.00     0.126 A 
HETATM   13  N   UNL     1      39.605 -14.596  -0.527  1.00  0.00    -0.262 N 
HETATM   14  N   UNL     1      39.233 -13.765  -1.518  1.00  0.00    -0.178 NA
HETATM   15  H   UNL     1      38.896 -15.015   0.069  1.00  0.00     0.191 HD
HETATM   16  C   UNL     1      40.391 -13.408  -2.088  1.00  0.00     0.058 A 
HETATM   17  C   UNL     1      41.501 -14.022  -1.454  1.00  0.00     0.079 A 
BRANCH  16  18
HETATM   18  C   UNL     1      40.404 -12.477  -3.253  1.00  0.00     0.056 C 
HETATM   19  C   UNL     1      41.810 -12.209  -3.767  1.00  0.00     0.011 C 
ENDBRANCH  16  18
ENDBRANCH   9  12
ENDBRANCH   1   8
BRANCH   3  20
HETATM   20  C   UNL     1      43.792 -19.636   2.862  1.00  0.00     0.012 A 
HETATM   21  C   UNL     1      44.348 -20.251   3.997  1.00  0.00     0.039 A 
HETATM   22  C   UNL     1      44.689 -21.602   3.979  1.00  0.00     0.035 A 
HETATM   23 CL   UNL     1      45.368 -22.330   5.383  1.00  0.00    -0.084 Cl
HETATM   24  C   UNL     1      44.486 -22.368   2.835  1.00  0.00     0.024 A 
HETATM   25  C   UNL     1      43.938 -21.775   1.700  1.00  0.00     0.003 A 
HETATM   26  C   UNL     1      43.594 -20.418   1.713  1.00  0.00     0.015 A 
ENDBRANCH   3  20
TORSDOF 4
ENDMDL
MODEL 8
REMARK VINA RESULT:      -7.6      4.764      8.000
REMARK  4 active torsions:
REMARK  status: ('A' for Active; 'I' for Inactive)
REMARK    1  A    between atoms: C_2  and  C_3 
REMARK    2  A    between atoms: C_7  and  N_8 
REMARK       I    between atoms: N_8  and  C_9 
REMARK    3  A    between atoms: C_9  and  C_10 
REMARK    4  A    between atoms: C_12  and  C_13 
ROOT
HETATM    1  C   UNL     1      41.521 -15.589   1.495  1.00  0.00     0.149 A 
HETATM    2  N   UNL     1      42.428 -16.637   1.418  1.00  0.00    -0.223 NA
HETATM    3  C   UNL     1      42.426 -17.232   2.598  1.00  0.00     0.139 A 
HETATM    4  N   UNL     1      41.549 -16.583   3.438  1.00  0.00    -0.342 N 
HETATM    5  H   UNL     1      41.365 -16.831   4.399  1.00  0.00     0.167 HD
HETATM    6  C   UNL     1      40.964 -15.545   2.758  1.00  0.00     0.041 A 
HETATM    7  C   UNL     1      39.959 -14.643   3.365  1.00  0.00     0.071 C 
ENDROOT
BRANCH   1   8
HETATM    8  C   UNL     1      41.243 -14.704   0.360  1.00  0.00     0.278 C 
HETATM    9  N   UNL     1      40.115 -15.099  -0.335  1.00  0.00    -0.306 N 
HETATM   10  H   UNL     1      39.636 -15.927   0.008  1.00  0.00     0.170 HD
HETATM   11  O   UNL     1      41.937 -13.728   0.077  1.00  0.00    -0.265 OA
BRANCH   9  12
HETATM   12  C   UNL     1      39.632 -14.412  -1.426  1.00  0.00     0.126 A 
HETATM   13  N   UNL     1      40.321 -14.235  -2.596  1.00  0.00    -0.262 N 
HETATM   14  N   UNL     1      39.650 -13.515  -3.514  1.00  0.00    -0.178 NA
HETATM   15  H   UNL     1      41.253 -14.580  -2.813  1.00  0.00     0.191 HD
HETATM   16  C   UNL     1      38.489 -13.232  -2.911  1.00  0.00     0.058 A 
HETATM   17  C   UNL     1      38.428 -13.774  -1.602  1.00  0.00     0.079 A 
BRANCH  16  18
HETATM   18  C   UNL     1      37.450 -12.425  -3.614  1.00  0.00     0.056 C 
HETATM   19  C   UNL     1      36.462 -13.291  -4.380  1.00  0.00     0.011 C 
ENDBRANCH  16  18
ENDBRANCH   9  12
ENDBRANCH   1   8
BRANCH   3  20
HETATM   20  C   UNL     1      43.233 -18.401   2.970  1.00  0.00     0.012 A 
HETATM   21  C   UNL     1      43.262 -19.510   2.109  1.00  0.00     0.039 A 
HETATM   22  C   UNL     1      44.013 -20.641   2.430  1.00  0.00     0.035 A 
HETATM   23 CL   UNL     1      44.032 -21.986   1.357  1.00  0.00    -0.084 Cl
HETATM   24  C   UNL     1      44.747 -20.690   3.611  1.00  0.00     0.024 A 
HETATM   25  C   UNL     1      44.728 -19.599   4.478  1.00  0.00     0.003 A 
HETATM   26  C   UNL     1      43.976 -18.462   4.160  1.00  0.00     0.015 A 
ENDBRANCH   3  20
TORSDOF 4
ENDMDL
MODEL 9
REMARK VINA RESULT:      -7.5      3.724      6.072
REMARK  4 active torsions:
REMARK  status: ('A' for Active; 'I' for Inactive)
REMARK    1  A    between atoms: C_2  and  C_3 
REMARK    2  A    between atoms: C_7  and  N_8 
REMARK       I    between atoms: N_8  and  C_9 
REMARK    3  A    between atoms: C_9  and  C_10 
REMARK    4  A    between atoms: C_12  and  C_13 
ROOT
HETATM    1  C   UNL     1      42.302 -16.361   2.404  1.00  0.00     0.149 A 
HETATM    2  N   UNL     1      42.416 -17.689   2.016  1.00  0.00    -0.223 NA
HETATM    3  C   UNL     1      43.271 -18.258   2.848  1.00  0.00     0.139 A 
HETATM    4  N   UNL     1      43.721 -17.325   3.755  1.00  0.00    -0.342 N 
HETATM    5  H   UNL     1      44.388 -17.498   4.493  1.00  0.00     0.167 HD
HETATM    6  C   UNL     1      43.117 -16.121   3.493  1.00  0.00     0.041 A 
HETATM    7  C   UNL     1      43.371 -14.898   4.289  1.00  0.00     0.071 C 
ENDROOT
BRANCH   1   8
HETATM    8  C   UNL     1      41.422 -15.413   1.715  1.00  0.00     0.278 C 
HETATM    9  N   UNL     1      40.173 -15.349   2.304  1.00  0.00    -0.306 N 
HETATM   10  H   UNL     1      40.019 -15.949   3.111  1.00  0.00     0.170 HD
HETATM   11  O   UNL     1      41.770 -14.757   0.734  1.00  0.00    -0.265 OA
BRANCH   9  12
HETATM   12  C   UNL     1      39.178 -14.511   1.857  1.00  0.00     0.126 A 
HETATM   13  N   UNL     1      38.085 -14.921   1.140  1.00  0.00    -0.262 N 
HETATM   14  N   UNL     1      37.256 -13.917   0.799  1.00  0.00    -0.178 NA
HETATM   15  H   UNL     1      37.866 -15.872   0.855  1.00  0.00     0.191 HD
HETATM   16  C   UNL     1      37.837 -12.831   1.324  1.00  0.00     0.058 A 
HETATM   17  C   UNL     1      39.041 -13.151   1.999  1.00  0.00     0.079 A 
BRANCH  16  18
HETATM   18  C   UNL     1      37.213 -11.486   1.155  1.00  0.00     0.056 C 
HETATM   19  C   UNL     1      37.016 -11.117  -0.307  1.00  0.00     0.011 C 
ENDBRANCH  16  18
ENDBRANCH   9  12
ENDBRANCH   1   8
BRANCH   3  20
HETATM   20  C   UNL     1      43.688 -19.666   2.819  1.00  0.00     0.012 A 
HETATM   21  C   UNL     1      44.224 -20.243   3.982  1.00  0.00     0.039 A 
HETATM   22  C   UNL     1      44.635 -21.575   3.992  1.00  0.00     0.035 A 
HETATM   23 CL   UNL     1      45.287 -22.258   5.431  1.00  0.00    -0.084 Cl
HETATM   24  C   UNL     1      44.522 -22.358   2.847  1.00  0.00     0.024 A 
HETATM   25  C   UNL     1      43.995 -21.802   1.683  1.00  0.00     0.003 A 
HETATM   26  C   UNL     1      43.581 -20.464   1.669  1.00  0.00     0.015 A 
ENDBRANCH   3  20
TORSDOF 4
ENDMDL
MODEL 10
REMARK VINA RESULT:      -7.4      3.043      5.365
REMARK  4 active torsions:
REMARK  status: ('A' for Active; 'I' for Inactive)
REMARK    1  A    between atoms: C_2  and  C_3 
REMARK    2  A    between atoms: C_7  and  N_8 
REMARK       I    between atoms: N_8  and  C_9 
REMARK    3  A    between atoms: C_9  and  C_10 
REMARK    4  A    between atoms: C_12  and  C_13 
ROOT
HETATM    1  C   UNL     1      42.793 -16.627   5.131  1.00  0.00     0.149 A 
HETATM    2  N   UNL     1      42.783 -17.857   4.488  1.00  0.00    -0.223 NA
HETATM    3  C   UNL     1      43.776 -18.564   5.001  1.00  0.00     0.139 A 
HETATM    4  N   UNL     1      44.433 -17.813   5.949  1.00  0.00    -0.342 N 
HETATM    5  H   UNL     1      45.234 -18.114   6.485  1.00  0.00     0.167 HD
HETATM    6  C   UNL     1      43.825 -16.587   6.049  1.00  0.00     0.041 A 
HETATM    7  C   UNL     1      44.276 -15.533   6.985  1.00  0.00     0.071 C 
ENDROOT
BRANCH   1   8
HETATM    8  C   UNL     1      41.818 -15.575   4.831  1.00  0.00     0.278 C 
HETATM    9  N   UNL     1      41.821 -15.238   3.490  1.00  0.00    -0.306 N 
HETATM   10  H   UNL     1      42.479 -15.738   2.897  1.00  0.00     0.170 HD
HETATM   11  O   UNL     1      41.088 -15.066   5.681  1.00  0.00    -0.265 OA
BRANCH   9  12
HETATM   12  C   UNL     1      40.975 -14.294   2.954  1.00  0.00     0.126 A 
HETATM   13  N   UNL     1      41.267 -12.960   2.856  1.00  0.00    -0.262 N 
HETATM   14  N   UNL     1      40.277 -12.229   2.313  1.00  0.00    -0.178 NA
HETATM   15  H   UNL     1      42.125 -12.501   3.153  1.00  0.00     0.191 HD
HETATM   16  C   UNL     1      39.323 -13.131   2.047  1.00  0.00     0.058 A 
HETATM   17  C   UNL     1      39.714 -14.439   2.428  1.00  0.00     0.079 A 
BRANCH  16  18
HETATM   18  C   UNL     1      38.034 -12.706   1.430  1.00  0.00     0.056 C 
HETATM   19  C   UNL     1      37.335 -13.844   0.701  1.00  0.00     0.011 C 
ENDBRANCH  16  18
ENDBRANCH   9  12
ENDBRANCH   1   8
BRANCH   3  20
HETATM   20  C   UNL     1      44.135 -19.937   4.624  1.00  0.00     0.012 A 
HETATM   21  C   UNL     1      44.020 -20.326   3.279  1.00  0.00     0.039 A 
HETATM   22  C   UNL     1      44.347 -21.622   2.883  1.00  0.00     0.035 A 
HETATM   23 CL   UNL     1      44.198 -22.074   1.229  1.00  0.00    -0.084 Cl
HETATM   24  C   UNL     1      44.794 -22.555   3.814  1.00  0.00     0.024 A 
HETATM   25  C   UNL     1      44.913 -22.186   5.153  1.00  0.00     0.003 A 
HETATM   26  C   UNL     1      44.585 -20.886   5.555  1.00  0.00     0.015 A 
ENDBRANCH   3  20
TORSDOF 4
ENDMDL
