MODEL 1
REMARK VINA RESULT:      -8.7      0.000      0.000
REMARK  2 active torsions:
REMARK  status: ('A' for Active; 'I' for Inactive)
REMARK    1  A    between atoms: C_2  and  N_3 
REMARK    2  A    between atoms: N_3  and  C_4 
ROOT
HETATM    1  N   UNL     1      40.723 -16.965   3.300  1.00  0.00    -0.340 N 
HETATM    2  H   UNL     1      39.837 -17.438   3.207  1.00  0.00     0.167 HD
ENDROOT
BRANCH   1   3
HETATM    3  C   UNL     1      41.076 -16.174   2.194  1.00  0.00     0.036 A 
HETATM    4  C   UNL     1      40.867 -16.566   0.867  1.00  0.00     0.032 A 
HETATM    5  C   UNL     1      41.215 -15.728  -0.199  1.00  0.00     0.042 A 
HETATM    6  C   UNL     1      41.733 -14.462   0.048  1.00  0.00     0.102 A 
HETATM    7  C   UNL     1      41.936 -14.046   1.362  1.00  0.00     0.104 A 
HETATM    8  O   UNL     1      42.109 -13.723  -1.039  1.00  0.00    -0.348 OA
HETATM    9  C   UNL     1      41.627 -14.903   2.423  1.00  0.00     0.069 A 
HETATM   10  O   UNL     1      42.517 -12.850   1.689  1.00  0.00    -0.348 OA
HETATM   11  C   UNL     1      41.740 -11.738   1.242  1.00  0.00     0.178 C 
HETATM   12  C   UNL     1      41.984 -11.421  -0.226  1.00  0.00     0.053 C 
HETATM   13  C   UNL     1      41.390 -12.493  -1.126  1.00  0.00     0.178 C 
ENDBRANCH   1   3
BRANCH   1  14
HETATM   14  C   UNL     1      41.395 -17.255   4.496  1.00  0.00     0.143 A 
HETATM   15  N   UNL     1      41.051 -16.642   5.655  1.00  0.00    -0.223 NA
HETATM   16  C   UNL     1      41.746 -16.898   6.773  1.00  0.00     0.236 A 
HETATM   17  N   UNL     1      42.789 -17.716   6.915  1.00  0.00    -0.234 NA
HETATM   18  C   UNL     1      43.117 -18.321   5.762  1.00  0.00     0.114 A 
HETATM   19  C   UNL     1      42.484 -18.156   4.528  1.00  0.00     0.053 A 
HETATM   20  S   UNL     1      44.441 -19.420   5.708  1.00  0.00    -0.073 SA
HETATM   21  C   UNL     1      43.125 -18.985   3.560  1.00  0.00    -0.028 A 
HETATM   22  C   UNL     1      44.176 -19.689   4.084  1.00  0.00    -0.008 A 
HETATM   23  C   UNL     1      42.953 -19.298   2.118  1.00  0.00     0.041 C 
HETATM   24  C   UNL     1      44.872 -20.562   3.110  1.00  0.00     0.047 C 
HETATM   25  C   UNL     1      43.847 -20.564   1.938  1.00  0.00     0.010 C 
ENDBRANCH   1  14
TORSDOF 2
ENDMDL
MODEL 2
REMARK VINA RESULT:      -8.6      1.673      1.845
REMARK  2 active torsions:
REMARK  status: ('A' for Active; 'I' for Inactive)
REMARK    1  A    between atoms: C_2  and  N_3 
REMARK    2  A    between atoms: N_3  and  C_4 
ROOT
HETATM    1  N   UNL     1      40.574 -17.314   3.210  1.00  0.00    -0.340 N 
HETATM    2  H   UNL     1      39.923 -18.082   3.140  1.00  0.00     0.167 HD
ENDROOT
BRANCH   1   3
HETATM    3  C   UNL     1      40.554 -16.436   2.114  1.00  0.00     0.036 A 
HETATM    4  C   UNL     1      41.399 -16.566   1.005  1.00  0.00     0.032 A 
HETATM    5  C   UNL     1      41.320 -15.677  -0.073  1.00  0.00     0.042 A 
HETATM    6  C   UNL     1      40.359 -14.671  -0.081  1.00  0.00     0.102 A 
HETATM    7  C   UNL     1      39.500 -14.532   1.006  1.00  0.00     0.104 A 
HETATM    8  O   UNL     1      40.381 -13.801  -1.136  1.00  0.00    -0.348 OA
HETATM    9  C   UNL     1      39.610 -15.397   2.100  1.00  0.00     0.069 A 
HETATM   10  O   UNL     1      38.584 -13.521   1.113  1.00  0.00    -0.348 OA
HETATM   11  C   UNL     1      37.598 -13.580   0.081  1.00  0.00     0.178 C 
HETATM   12  C   UNL     1      38.089 -12.957  -1.217  1.00  0.00     0.053 C 
HETATM   13  C   UNL     1      39.157 -13.819  -1.871  1.00  0.00     0.178 C 
ENDBRANCH   1   3
BRANCH   1  14
HETATM   14  C   UNL     1      41.365 -17.348   4.368  1.00  0.00     0.143 A 
HETATM   15  N   UNL     1      41.042 -16.603   5.453  1.00  0.00    -0.223 NA
HETATM   16  C   UNL     1      41.845 -16.613   6.527  1.00  0.00     0.236 A 
HETATM   17  N   UNL     1      42.983 -17.289   6.688  1.00  0.00    -0.234 NA
HETATM   18  C   UNL     1      43.288 -18.027   5.608  1.00  0.00     0.114 A 
HETATM   19  C   UNL     1      42.549 -18.117   4.428  1.00  0.00     0.053 A 
HETATM   20  S   UNL     1      44.721 -18.980   5.592  1.00  0.00    -0.073 SA
HETATM   21  C   UNL     1      43.205 -19.015   3.534  1.00  0.00    -0.028 A 
HETATM   22  C   UNL     1      44.366 -19.520   4.054  1.00  0.00    -0.008 A 
HETATM   23  C   UNL     1      42.959 -19.561   2.174  1.00  0.00     0.041 C 
HETATM   24  C   UNL     1      45.081 -20.457   3.156  1.00  0.00     0.047 C 
HETATM   25  C   UNL     1      43.976 -20.743   2.096  1.00  0.00     0.010 C 
ENDBRANCH   1  14
TORSDOF 2
ENDMDL
MODEL 3
REMARK VINA RESULT:      -8.6      2.077      2.555
REMARK  2 active torsions:
REMARK  status: ('A' for Active; 'I' for Inactive)
REMARK    1  A    between atoms: C_2  and  N_3 
REMARK    2  A    between atoms: N_3  and  C_4 
ROOT
HETATM    1  N   UNL     1      43.594 -16.894   3.370  1.00  0.00    -0.340 N 
HETATM    2  H   UNL     1      44.436 -16.638   2.878  1.00  0.00     0.167 HD
ENDROOT
BRANCH   1   3
HETATM    3  C   UNL     1      42.414 -16.379   2.807  1.00  0.00     0.036 A 
HETATM    4  C   UNL     1      41.367 -15.843   3.565  1.00  0.00     0.032 A 
HETATM    5  C   UNL     1      40.223 -15.319   2.951  1.00  0.00     0.042 A 
HETATM    6  C   UNL     1      40.130 -15.279   1.564  1.00  0.00     0.102 A 
HETATM    7  C   UNL     1      41.168 -15.795   0.790  1.00  0.00     0.104 A 
HETATM    8  O   UNL     1      38.959 -14.813   1.035  1.00  0.00    -0.348 OA
HETATM    9  C   UNL     1      42.290 -16.355   1.408  1.00  0.00     0.069 A 
HETATM   10  O   UNL     1      41.118 -15.868  -0.576  1.00  0.00    -0.348 OA
HETATM   11  C   UNL     1      41.038 -14.575  -1.179  1.00  0.00     0.178 C 
HETATM   12  C   UNL     1      39.617 -14.034  -1.187  1.00  0.00     0.053 C 
HETATM   13  C   UNL     1      39.162 -13.662   0.216  1.00  0.00     0.178 C 
ENDBRANCH   1   3
BRANCH   1  14
HETATM   14  C   UNL     1      43.823 -17.664   4.519  1.00  0.00     0.143 A 
HETATM   15  N   UNL     1      43.854 -17.091   5.747  1.00  0.00    -0.223 NA
HETATM   16  C   UNL     1      44.128 -17.843   6.823  1.00  0.00     0.236 A 
HETATM   17  N   UNL     1      44.391 -19.149   6.859  1.00  0.00    -0.234 NA
HETATM   18  C   UNL     1      44.352 -19.706   5.638  1.00  0.00     0.114 A 
HETATM   19  C   UNL     1      44.077 -19.052   4.435  1.00  0.00     0.053 A 
HETATM   20  S   UNL     1      44.667 -21.387   5.445  1.00  0.00    -0.073 SA
HETATM   21  C   UNL     1      44.118 -19.999   3.369  1.00  0.00    -0.028 A 
HETATM   22  C   UNL     1      44.428 -21.261   3.799  1.00  0.00    -0.008 A 
HETATM   23  C   UNL     1      43.907 -19.984   1.899  1.00  0.00     0.041 C 
HETATM   24  C   UNL     1      44.484 -22.276   2.721  1.00  0.00     0.047 C 
HETATM   25  C   UNL     1      43.796 -21.502   1.557  1.00  0.00     0.010 C 
ENDBRANCH   1  14
TORSDOF 2
ENDMDL
MODEL 4
REMARK VINA RESULT:      -8.4      0.995      1.756
REMARK  2 active torsions:
REMARK  status: ('A' for Active; 'I' for Inactive)
REMARK    1  A    between atoms: C_2  and  N_3 
REMARK    2  A    between atoms: N_3  and  C_4 
ROOT
HETATM    1  N   UNL     1      40.814 -16.663   3.651  1.00  0.00    -0.340 N 
HETATM    2  H   UNL     1      40.001 -17.214   3.423  1.00  0.00     0.167 HD
ENDROOT
BRANCH   1   3
HETATM    3  C   UNL     1      41.067 -15.606   2.761  1.00  0.00     0.036 A 
HETATM    4  C   UNL     1      42.113 -14.690   2.927  1.00  0.00     0.032 A 
HETATM    5  C   UNL     1      42.336 -13.669   1.996  1.00  0.00     0.042 A 
HETATM    6  C   UNL     1      41.544 -13.577   0.856  1.00  0.00     0.102 A 
HETATM    7  C   UNL     1      40.506 -14.487   0.665  1.00  0.00     0.104 A 
HETATM    8  O   UNL     1      41.778 -12.518   0.024  1.00  0.00    -0.348 OA
HETATM    9  C   UNL     1      40.261 -15.480   1.618  1.00  0.00     0.069 A 
HETATM   10  O   UNL     1      39.632 -14.415  -0.386  1.00  0.00    -0.348 OA
HETATM   11  C   UNL     1      40.289 -14.589  -1.643  1.00  0.00     0.178 C 
HETATM   12  C   UNL     1      40.937 -13.303  -2.134  1.00  0.00     0.053 C 
HETATM   13  C   UNL     1      42.148 -12.941  -1.289  1.00  0.00     0.178 C 
ENDBRANCH   1   3
BRANCH   1  14
HETATM   14  C   UNL     1      41.511 -17.125   4.777  1.00  0.00     0.143 A 
HETATM   15  N   UNL     1      41.248 -16.627   6.010  1.00  0.00    -0.223 NA
HETATM   16  C   UNL     1      41.966 -17.048   7.062  1.00  0.00     0.236 A 
HETATM   17  N   UNL     1      42.961 -17.936   7.068  1.00  0.00    -0.234 NA
HETATM   18  C   UNL     1      43.207 -18.424   5.842  1.00  0.00     0.114 A 
HETATM   19  C   UNL     1      42.542 -18.085   4.662  1.00  0.00     0.053 A 
HETATM   20  S   UNL     1      44.457 -19.585   5.610  1.00  0.00    -0.073 SA
HETATM   21  C   UNL     1      43.094 -18.836   3.582  1.00  0.00    -0.028 A 
HETATM   22  C   UNL     1      44.117 -19.653   3.979  1.00  0.00    -0.008 A 
HETATM   23  C   UNL     1      42.849 -18.974   2.123  1.00  0.00     0.041 C 
HETATM   24  C   UNL     1      44.721 -20.450   2.886  1.00  0.00     0.047 C 
HETATM   25  C   UNL     1      43.655 -20.261   1.766  1.00  0.00     0.010 C 
ENDBRANCH   1  14
TORSDOF 2
ENDMDL
MODEL 5
REMARK VINA RESULT:      -8.2      3.417      6.786
REMARK  2 active torsions:
REMARK  status: ('A' for Active; 'I' for Inactive)
REMARK    1  A    between atoms: C_2  and  N_3 
REMARK    2  A    between atoms: N_3  and  C_4 
ROOT
HETATM    1  N   UNL     1      42.016 -16.936   4.880  1.00  0.00    -0.340 N 
HETATM    2  H   UNL     1      41.043 -17.131   5.060  1.00  0.00     0.167 HD
ENDROOT
BRANCH   1   3
HETATM    3  C   UNL     1      42.846 -18.069   4.897  1.00  0.00     0.036 A 
HETATM    4  C   UNL     1      43.250 -18.714   6.072  1.00  0.00     0.032 A 
HETATM    5  C   UNL     1      44.058 -19.856   6.031  1.00  0.00     0.042 A 
HETATM    6  C   UNL     1      44.435 -20.401   4.808  1.00  0.00     0.102 A 
HETATM    7  C   UNL     1      44.033 -19.783   3.626  1.00  0.00     0.104 A 
HETATM    8  O   UNL     1      45.276 -21.479   4.844  1.00  0.00    -0.348 OA
HETATM    9  C   UNL     1      43.261 -18.619   3.673  1.00  0.00     0.069 A 
HETATM   10  O   UNL     1      44.429 -20.208   2.386  1.00  0.00    -0.348 OA
HETATM   11  C   UNL     1      43.960 -21.526   2.097  1.00  0.00     0.178 C 
HETATM   12  C   UNL     1      44.846 -22.598   2.713  1.00  0.00     0.053 C 
HETATM   13  C   UNL     1      44.699 -22.629   4.226  1.00  0.00     0.178 C 
ENDBRANCH   1   3
BRANCH   1  14
HETATM   14  C   UNL     1      42.296 -15.573   4.703  1.00  0.00     0.143 A 
HETATM   15  N   UNL     1      42.706 -14.806   5.742  1.00  0.00    -0.223 NA
HETATM   16  C   UNL     1      42.915 -13.494   5.555  1.00  0.00     0.236 A 
HETATM   17  N   UNL     1      42.768 -12.797   4.428  1.00  0.00    -0.234 NA
HETATM   18  C   UNL     1      42.367 -13.570   3.406  1.00  0.00     0.114 A 
HETATM   19  C   UNL     1      42.116 -14.943   3.451  1.00  0.00     0.053 A 
HETATM   20  S   UNL     1      42.107 -12.879   1.851  1.00  0.00    -0.073 SA
HETATM   21  C   UNL     1      41.725 -15.388   2.153  1.00  0.00    -0.028 A 
HETATM   22  C   UNL     1      41.683 -14.371   1.238  1.00  0.00    -0.008 A 
HETATM   23  C   UNL     1      41.352 -16.678   1.518  1.00  0.00     0.041 C 
HETATM   24  C   UNL     1      41.280 -14.791  -0.124  1.00  0.00     0.047 C 
HETATM   25  C   UNL     1      41.415 -16.338  -0.003  1.00  0.00     0.010 C 
ENDBRANCH   1  14
TORSDOF 2
ENDMDL
MODEL 6
REMARK VINA RESULT:      -8.0      2.591      3.876
REMARK  2 active torsions:
REMARK  status: ('A' for Active; 'I' for Inactive)
REMARK    1  A    between atoms: C_2  and  N_3 
REMARK    2  A    between atoms: N_3  and  C_4 
ROOT
HETATM    1  N   UNL     1      44.386 -18.723   2.338  1.00  0.00    -0.340 N 
HETATM    2  H   UNL     1      45.282 -18.388   2.019  1.00  0.00     0.167 HD
ENDROOT
BRANCH   1   3
HETATM    3  C   UNL     1      43.306 -17.881   2.026  1.00  0.00     0.036 A 
HETATM    4  C   UNL     1      42.062 -18.352   1.587  1.00  0.00     0.032 A 
HETATM    5  C   UNL     1      41.010 -17.470   1.314  1.00  0.00     0.042 A 
HETATM    6  C   UNL     1      41.170 -16.104   1.523  1.00  0.00     0.102 A 
HETATM    7  C   UNL     1      42.396 -15.616   1.972  1.00  0.00     0.104 A 
HETATM    8  O   UNL     1      40.123 -15.297   1.175  1.00  0.00    -0.348 OA
HETATM    9  C   UNL     1      43.457 -16.497   2.204  1.00  0.00     0.069 A 
HETATM   10  O   UNL     1      42.661 -14.282   2.123  1.00  0.00    -0.348 OA
HETATM   11  C   UNL     1      41.826 -13.679   3.114  1.00  0.00     0.178 C 
HETATM   12  C   UNL     1      40.456 -13.313   2.564  1.00  0.00     0.053 C 
HETATM   13  C   UNL     1      39.625 -14.557   2.289  1.00  0.00     0.178 C 
ENDBRANCH   1   3
BRANCH   1  14
HETATM   14  C   UNL     1      44.457 -19.928   3.054  1.00  0.00     0.143 A 
HETATM   15  N   UNL     1      44.635 -21.109   2.413  1.00  0.00    -0.223 NA
HETATM   16  C   UNL     1      44.646 -22.250   3.116  1.00  0.00     0.236 A 
HETATM   17  N   UNL     1      44.495 -22.398   4.433  1.00  0.00    -0.234 NA
HETATM   18  C   UNL     1      44.325 -21.221   5.056  1.00  0.00     0.114 A 
HETATM   19  C   UNL     1      44.296 -19.960   4.457  1.00  0.00     0.053 A 
HETATM   20  S   UNL     1      44.106 -21.172   6.763  1.00  0.00    -0.073 SA
HETATM   21  C   UNL     1      44.109 -18.969   5.466  1.00  0.00    -0.028 A 
HETATM   22  C   UNL     1      43.990 -19.508   6.718  1.00  0.00    -0.008 A 
HETATM   23  C   UNL     1      44.012 -17.487   5.523  1.00  0.00     0.041 C 
HETATM   24  C   UNL     1      43.792 -18.512   7.796  1.00  0.00     0.047 C 
HETATM   25  C   UNL     1      44.165 -17.197   7.049  1.00  0.00     0.010 C 
ENDBRANCH   1  14
TORSDOF 2
ENDMDL
MODEL 7
REMARK VINA RESULT:      -7.9      2.147      3.507
REMARK  2 active torsions:
REMARK  status: ('A' for Active; 'I' for Inactive)
REMARK    1  A    between atoms: C_2  and  N_3 
REMARK    2  A    between atoms: N_3  and  C_4 
ROOT
HETATM    1  N   UNL     1      41.489 -18.283   2.071  1.00  0.00    -0.340 N 
HETATM    2  H   UNL     1      40.698 -18.909   2.037  1.00  0.00     0.167 HD
ENDROOT
BRANCH   1   3
HETATM    3  C   UNL     1      41.246 -17.012   1.526  1.00  0.00     0.036 A 
HETATM    4  C   UNL     1      42.057 -16.423   0.548  1.00  0.00     0.032 A 
HETATM    5  C   UNL     1      41.756 -15.163   0.019  1.00  0.00     0.042 A 
HETATM    6  C   UNL     1      40.608 -14.491   0.426  1.00  0.00     0.102 A 
HETATM    7  C   UNL     1      39.779 -15.065   1.388  1.00  0.00     0.104 A 
HETATM    8  O   UNL     1      40.410 -13.238  -0.085  1.00  0.00    -0.348 OA
HETATM    9  C   UNL     1      40.107 -16.305   1.944  1.00  0.00     0.069 A 
HETATM   10  O   UNL     1      38.678 -14.434   1.901  1.00  0.00    -0.348 OA
HETATM   11  C   UNL     1      37.688 -14.187   0.901  1.00  0.00     0.178 C 
HETATM   12  C   UNL     1      37.990 -12.935   0.092  1.00  0.00     0.053 C 
HETATM   13  C   UNL     1      39.190 -13.146  -0.820  1.00  0.00     0.178 C 
ENDBRANCH   1   3
BRANCH   1  14
HETATM   14  C   UNL     1      42.644 -18.862   2.617  1.00  0.00     0.143 A 
HETATM   15  N   UNL     1      43.447 -19.655   1.866  1.00  0.00    -0.223 NA
HETATM   16  C   UNL     1      44.516 -20.239   2.428  1.00  0.00     0.236 A 
HETATM   17  N   UNL     1      44.923 -20.146   3.695  1.00  0.00    -0.234 NA
HETATM   18  C   UNL     1      44.123 -19.354   4.426  1.00  0.00     0.114 A 
HETATM   19  C   UNL     1      42.985 -18.681   3.977  1.00  0.00     0.053 A 
HETATM   20  S   UNL     1      44.456 -19.094   6.094  1.00  0.00    -0.073 SA
HETATM   21  C   UNL     1      42.426 -17.937   5.058  1.00  0.00    -0.028 A 
HETATM   22  C   UNL     1      43.128 -18.094   6.223  1.00  0.00    -0.008 A 
HETATM   23  C   UNL     1      41.275 -17.020   5.260  1.00  0.00     0.041 C 
HETATM   24  C   UNL     1      42.579 -17.338   7.373  1.00  0.00     0.047 C 
HETATM   25  C   UNL     1      41.595 -16.375   6.645  1.00  0.00     0.010 C 
ENDBRANCH   1  14
TORSDOF 2
ENDMDL
MODEL 8
REMARK VINA RESULT:      -7.8      1.731      3.578
REMARK  2 active torsions:
REMARK  status: ('A' for Active; 'I' for Inactive)
REMARK    1  A    between atoms: C_2  and  N_3 
REMARK    2  A    between atoms: N_3  and  C_4 
ROOT
HETATM    1  N   UNL     1      41.750 -17.975   1.890  1.00  0.00    -0.340 N 
HETATM    2  H   UNL     1      40.875 -18.477   1.871  1.00  0.00     0.167 HD
ENDROOT
BRANCH   1   3
HETATM    3  C   UNL     1      41.711 -16.718   1.265  1.00  0.00     0.036 A 
HETATM    4  C   UNL     1      42.217 -15.550   1.847  1.00  0.00     0.032 A 
HETATM    5  C   UNL     1      42.177 -14.326   1.169  1.00  0.00     0.042 A 
HETATM    6  C   UNL     1      41.673 -14.261  -0.126  1.00  0.00     0.102 A 
HETATM    7  C   UNL     1      41.177 -15.415  -0.730  1.00  0.00     0.104 A 
HETATM    8  O   UNL     1      41.606 -13.024  -0.703  1.00  0.00    -0.348 OA
HETATM    9  C   UNL     1      41.181 -16.627  -0.033  1.00  0.00     0.069 A 
HETATM   10  O   UNL     1      40.591 -15.420  -1.967  1.00  0.00    -0.348 OA
HETATM   11  C   UNL     1      41.504 -15.029  -2.994  1.00  0.00     0.178 C 
HETATM   12  C   UNL     1      41.637 -13.517  -3.097  1.00  0.00     0.053 C 
HETATM   13  C   UNL     1      42.381 -12.948  -1.899  1.00  0.00     0.178 C 
ENDBRANCH   1   3
BRANCH   1  14
HETATM   14  C   UNL     1      42.794 -18.684   2.502  1.00  0.00     0.143 A 
HETATM   15  N   UNL     1      43.584 -19.518   1.782  1.00  0.00    -0.223 NA
HETATM   16  C   UNL     1      44.541 -20.225   2.402  1.00  0.00     0.236 A 
HETATM   17  N   UNL     1      44.842 -20.225   3.701  1.00  0.00    -0.234 NA
HETATM   18  C   UNL     1      44.056 -19.391   4.401  1.00  0.00     0.114 A 
HETATM   19  C   UNL     1      43.029 -18.594   3.892  1.00  0.00     0.053 A 
HETATM   20  S   UNL     1      44.264 -19.234   6.102  1.00  0.00    -0.073 SA
HETATM   21  C   UNL     1      42.448 -17.845   4.959  1.00  0.00    -0.028 A 
HETATM   22  C   UNL     1      43.027 -18.117   6.169  1.00  0.00    -0.008 A 
HETATM   23  C   UNL     1      41.372 -16.832   5.109  1.00  0.00     0.041 C 
HETATM   24  C   UNL     1      42.450 -17.361   7.305  1.00  0.00     0.047 C 
HETATM   25  C   UNL     1      41.627 -16.279   6.546  1.00  0.00     0.010 C 
ENDBRANCH   1  14
TORSDOF 2
ENDMDL
MODEL 9
REMARK VINA RESULT:      -7.6      3.118      4.512
REMARK  2 active torsions:
REMARK  status: ('A' for Active; 'I' for Inactive)
REMARK    1  A    between atoms: C_2  and  N_3 
REMARK    2  A    between atoms: N_3  and  C_4 
ROOT
HETATM    1  N   UNL     1      43.546 -16.765   6.342  1.00  0.00    -0.340 N 
HETATM    2  H   UNL     1      44.278 -16.382   6.921  1.00  0.00     0.167 HD
ENDROOT
BRANCH   1   3
HETATM    3  C   UNL     1      42.475 -15.888   6.104  1.00  0.00     0.036 A 
HETATM    4  C   UNL     1      41.136 -16.295   6.071  1.00  0.00     0.032 A 
HETATM    5  C   UNL     1      40.105 -15.374   5.855  1.00  0.00     0.042 A 
HETATM    6  C   UNL     1      40.393 -14.020   5.718  1.00  0.00     0.102 A 
HETATM    7  C   UNL     1      41.719 -13.592   5.761  1.00  0.00     0.104 A 
HETATM    8  O   UNL     1      39.344 -13.187   5.446  1.00  0.00    -0.348 OA
HETATM    9  C   UNL     1      42.749 -14.521   5.935  1.00  0.00     0.069 A 
HETATM   10  O   UNL     1      42.093 -12.292   5.553  1.00  0.00    -0.348 OA
HETATM   11  C   UNL     1      41.563 -11.415   6.549  1.00  0.00     0.178 C 
HETATM   12  C   UNL     1      40.125 -11.016   6.255  1.00  0.00     0.053 C 
HETATM   13  C   UNL     1      39.178 -12.190   6.453  1.00  0.00     0.178 C 
ENDBRANCH   1   3
BRANCH   1  14
HETATM   14  C   UNL     1      43.768 -18.096   5.959  1.00  0.00     0.143 A 
HETATM   15  N   UNL     1      43.938 -19.069   6.887  1.00  0.00    -0.223 NA
HETATM   16  C   UNL     1      44.202 -20.323   6.493  1.00  0.00     0.236 A 
HETATM   17  N   UNL     1      44.329 -20.776   5.245  1.00  0.00    -0.234 NA
HETATM   18  C   UNL     1      44.152 -19.804   4.335  1.00  0.00     0.114 A 
HETATM   19  C   UNL     1      43.869 -18.462   4.597  1.00  0.00     0.053 A 
HETATM   20  S   UNL     1      44.276 -20.160   2.656  1.00  0.00    -0.073 SA
HETATM   21  C   UNL     1      43.742 -17.762   3.361  1.00  0.00    -0.028 A 
HETATM   22  C   UNL     1      43.946 -18.570   2.275  1.00  0.00    -0.008 A 
HETATM   23  C   UNL     1      43.438 -16.373   2.930  1.00  0.00     0.041 C 
HETATM   24  C   UNL     1      43.824 -17.881   0.970  1.00  0.00     0.047 C 
HETATM   25  C   UNL     1      43.147 -16.548   1.406  1.00  0.00     0.010 C 
ENDBRANCH   1  14
TORSDOF 2
ENDMDL
MODEL 10
REMARK VINA RESULT:      -7.6      2.834      3.213
REMARK  2 active torsions:
REMARK  status: ('A' for Active; 'I' for Inactive)
REMARK    1  A    between atoms: C_2  and  N_3 
REMARK    2  A    between atoms: N_3  and  C_4 
ROOT
HETATM    1  N   UNL     1      43.271 -15.719   4.677  1.00  0.00    -0.340 N 
HETATM    2  H   UNL     1      44.107 -15.592   4.127  1.00  0.00     0.167 HD
ENDROOT
BRANCH   1   3
HETATM    3  C   UNL     1      42.220 -14.849   4.344  1.00  0.00     0.036 A 
HETATM    4  C   UNL     1      40.983 -15.284   3.854  1.00  0.00     0.032 A 
HETATM    5  C   UNL     1      39.959 -14.375   3.562  1.00  0.00     0.042 A 
HETATM    6  C   UNL     1      40.141 -13.017   3.802  1.00  0.00     0.102 A 
HETATM    7  C   UNL     1      41.360 -12.564   4.303  1.00  0.00     0.104 A 
HETATM    8  O   UNL     1      39.123 -12.181   3.434  1.00  0.00    -0.348 OA
HETATM    9  C   UNL     1      42.394 -13.471   4.554  1.00  0.00     0.069 A 
HETATM   10  O   UNL     1      41.647 -11.239   4.490  1.00  0.00    -0.348 OA
HETATM   11  C   UNL     1      40.791 -10.637   5.462  1.00  0.00     0.178 C 
HETATM   12  C   UNL     1      39.449 -10.231   4.873  1.00  0.00     0.053 C 
HETATM   13  C   UNL     1      38.602 -11.451   4.544  1.00  0.00     0.178 C 
ENDBRANCH   1   3
BRANCH   1  14
HETATM   14  C   UNL     1      43.389 -16.707   5.665  1.00  0.00     0.143 A 
HETATM   15  N   UNL     1      43.242 -16.401   6.977  1.00  0.00    -0.223 NA
HETATM   16  C   UNL     1      43.414 -17.355   7.904  1.00  0.00     0.236 A 
HETATM   17  N   UNL     1      43.728 -18.636   7.708  1.00  0.00    -0.234 NA
HETATM   18  C   UNL     1      43.866 -18.927   6.404  1.00  0.00     0.114 A 
HETATM   19  C   UNL     1      43.714 -18.043   5.334  1.00  0.00     0.053 A 
HETATM   20  S   UNL     1      44.277 -20.526   5.915  1.00  0.00    -0.073 SA
HETATM   21  C   UNL     1      43.929 -18.747   4.113  1.00  0.00    -0.028 A 
HETATM   22  C   UNL     1      44.239 -20.065   4.313  1.00  0.00    -0.008 A 
HETATM   23  C   UNL     1      43.902 -18.430   2.661  1.00  0.00     0.041 C 
HETATM   24  C   UNL     1      44.474 -20.833   3.068  1.00  0.00     0.047 C 
HETATM   25  C   UNL     1      43.902 -19.847   2.006  1.00  0.00     0.010 C 
ENDBRANCH   1  14
TORSDOF 2
ENDMDL
