MODEL 1
REMARK VINA RESULT:      -8.5      0.000      0.000
REMARK  8 active torsions:
REMARK  status: ('A' for Active; 'I' for Inactive)
REMARK    1  A    between atoms: C_7  and  C_8 
REMARK    2  A    between atoms: C_8  and  O_9 
REMARK    3  A    between atoms: O_9  and  C_10 
REMARK    4  A    between atoms: C_13  and  C_14 
REMARK       I    between atoms: C_14  and  N_15 
REMARK    5  A    between atoms: N_15  and  C_16 
REMARK    6  A    between atoms: C_16  and  C_17 
REMARK    7  A    between atoms: C_20  and  C_21 
REMARK    8  A    between atoms: C_21  and  N_22 
ROOT
HETATM    1  C   UNL     1      40.829 -14.360   5.361  1.00  0.00     0.251 C 
HETATM    2  N   UNL     1      41.544 -13.203   5.590  1.00  0.00    -0.353 N 
HETATM    3  O   UNL     1      39.624 -14.377   5.141  1.00  0.00    -0.268 OA
HETATM    4  H   UNL     1      42.553 -13.225   5.613  1.00  0.00     0.163 HD
ENDROOT
BRANCH   1   5
HETATM    5  C   UNL     1      41.600 -15.632   5.409  1.00  0.00     0.032 A 
HETATM    6  C   UNL     1      42.872 -15.701   5.986  1.00  0.00     0.020 A 
HETATM    7  C   UNL     1      43.531 -16.930   6.076  1.00  0.00     0.038 A 
HETATM    8  C   UNL     1      42.926 -18.099   5.608  1.00  0.00     0.069 A 
HETATM    9  C   UNL     1      41.668 -18.030   5.011  1.00  0.00     0.038 A 
HETATM   10  C   UNL     1      41.001 -16.801   4.922  1.00  0.00     0.020 A 
BRANCH   8  11
HETATM   11  O   UNL     1      43.666 -19.230   5.793  1.00  0.00    -0.347 OA
BRANCH  11  12
HETATM   12  C   UNL     1      44.829 -19.393   4.980  1.00  0.00     0.219 C 
BRANCH  12  13
HETATM   13  C   UNL     1      44.532 -20.322   3.858  1.00  0.00     0.024 A 
HETATM   14  C   UNL     1      44.670 -21.736   3.846  1.00  0.00     0.069 A 
HETATM   15  C   UNL     1      45.143 -22.620   4.936  1.00  0.00     0.073 C 
HETATM   16  N   UNL     1      44.313 -22.254   2.665  1.00  0.00    -0.133 NA
HETATM   17  O   UNL     1      43.950 -21.179   1.878  1.00  0.00    -0.217 OA
HETATM   18  C   UNL     1      44.084 -20.029   2.587  1.00  0.00     0.085 A 
HETATM   19  C   UNL     1      43.752 -18.781   1.876  1.00  0.00     0.079 C 
ENDBRANCH  12  13
ENDBRANCH  11  12
ENDBRANCH   8  11
ENDBRANCH   1   5
BRANCH   2  20
HETATM   20  C   UNL     1      40.886 -11.920   5.718  1.00  0.00     0.161 C 
BRANCH  20  21
HETATM   21  C   UNL     1      40.925 -11.373   7.130  1.00  0.00    -0.041 A 
HETATM   22  C   UNL     1      42.077 -10.789   7.673  1.00  0.00     0.009 A 
HETATM   23  C   UNL     1      42.094 -10.328   8.991  1.00  0.00     0.009 A 
HETATM   24  C   UNL     1      40.948 -10.411   9.791  1.00  0.00    -0.033 A 
HETATM   25  C   UNL     1      39.779 -10.953   9.240  1.00  0.00     0.009 A 
HETATM   26  C   UNL     1      39.770 -11.429   7.925  1.00  0.00     0.009 A 
BRANCH  24  27
HETATM   27  C   UNL     1      40.980  -9.932  11.216  1.00  0.00     0.273 C 
BRANCH  27  28
HETATM   28  N   UNL     1      42.322 -10.105  11.884  1.00  0.00    -0.067 N 
HETATM   29  H   UNL     1      42.972 -10.411  11.148  1.00  0.00     0.280 HD
HETATM   30  C   UNL     1      42.357 -11.147  12.983  1.00  0.00     0.235 C 
HETATM   31  C   UNL     1      42.338 -10.331  14.257  1.00  0.00     0.029 C 
HETATM   32  C   UNL     1      43.232  -9.160  13.909  1.00  0.00     0.029 C 
HETATM   33  C   UNL     1      42.837  -8.809  12.486  1.00  0.00     0.235 C 
ENDBRANCH  27  28
ENDBRANCH  24  27
ENDBRANCH  20  21
ENDBRANCH   2  20
TORSDOF 8
ENDMDL
MODEL 2
REMARK VINA RESULT:      -8.5      0.915      1.908
REMARK  8 active torsions:
REMARK  status: ('A' for Active; 'I' for Inactive)
REMARK    1  A    between atoms: C_7  and  C_8 
REMARK    2  A    between atoms: C_8  and  O_9 
REMARK    3  A    between atoms: O_9  and  C_10 
REMARK    4  A    between atoms: C_13  and  C_14 
REMARK       I    between atoms: C_14  and  N_15 
REMARK    5  A    between atoms: N_15  and  C_16 
REMARK    6  A    between atoms: C_16  and  C_17 
REMARK    7  A    between atoms: C_20  and  C_21 
REMARK    8  A    between atoms: C_21  and  N_22 
ROOT
HETATM    1  C   UNL     1      41.234 -13.925   5.692  1.00  0.00     0.251 C 
HETATM    2  N   UNL     1      40.174 -13.679   6.539  1.00  0.00    -0.353 N 
HETATM    3  O   UNL     1      41.717 -13.077   4.951  1.00  0.00    -0.268 OA
HETATM    4  H   UNL     1      39.913 -14.361   7.236  1.00  0.00     0.163 HD
ENDROOT
BRANCH   1   5
HETATM    5  C   UNL     1      41.777 -15.311   5.699  1.00  0.00     0.032 A 
HETATM    6  C   UNL     1      41.001 -16.409   5.313  1.00  0.00     0.020 A 
HETATM    7  C   UNL     1      41.571 -17.683   5.265  1.00  0.00     0.038 A 
HETATM    8  C   UNL     1      42.918 -17.874   5.584  1.00  0.00     0.069 A 
HETATM    9  C   UNL     1      43.689 -16.786   5.991  1.00  0.00     0.038 A 
HETATM   10  C   UNL     1      43.123 -15.505   6.037  1.00  0.00     0.020 A 
BRANCH   8  11
HETATM   11  O   UNL     1      43.350 -19.163   5.457  1.00  0.00    -0.347 OA
BRANCH  11  12
HETATM   12  C   UNL     1      44.594 -19.374   4.789  1.00  0.00     0.219 C 
BRANCH  12  13
HETATM   13  C   UNL     1      44.441 -20.443   3.768  1.00  0.00     0.024 A 
HETATM   14  C   UNL     1      43.975 -20.304   2.433  1.00  0.00     0.069 A 
HETATM   15  C   UNL     1      43.528 -19.072   1.742  1.00  0.00     0.073 C 
HETATM   16  N   UNL     1      43.966 -21.478   1.791  1.00  0.00    -0.133 NA
HETATM   17  O   UNL     1      44.412 -22.410   2.707  1.00  0.00    -0.217 OA
HETATM   18  C   UNL     1      44.692 -21.794   3.885  1.00  0.00     0.085 A 
HETATM   19  C   UNL     1      45.164 -22.662   4.979  1.00  0.00     0.079 C 
ENDBRANCH  12  13
ENDBRANCH  11  12
ENDBRANCH   8  11
ENDBRANCH   1   5
BRANCH   2  20
HETATM   20  C   UNL     1      39.464 -12.419   6.516  1.00  0.00     0.161 C 
BRANCH  20  21
HETATM   21  C   UNL     1      39.898 -11.474   7.618  1.00  0.00    -0.041 A 
HETATM   22  C   UNL     1      41.024 -10.648   7.494  1.00  0.00     0.009 A 
HETATM   23  C   UNL     1      41.421  -9.816   8.541  1.00  0.00     0.009 A 
HETATM   24  C   UNL     1      40.684  -9.764   9.731  1.00  0.00    -0.033 A 
HETATM   25  C   UNL     1      39.533 -10.554   9.845  1.00  0.00     0.009 A 
HETATM   26  C   UNL     1      39.147 -11.399   8.800  1.00  0.00     0.009 A 
BRANCH  24  27
HETATM   27  C   UNL     1      41.131  -8.881  10.863  1.00  0.00     0.273 C 
BRANCH  27  28
HETATM   28  N   UNL     1      42.481  -9.254  11.426  1.00  0.00    -0.067 N 
HETATM   29  H   UNL     1      43.162  -9.089  10.674  1.00  0.00     0.280 HD
HETATM   30  C   UNL     1      42.615 -10.702  11.852  1.00  0.00     0.235 C 
HETATM   31  C   UNL     1      42.507 -10.648  13.360  1.00  0.00     0.029 C 
HETATM   32  C   UNL     1      43.280  -9.392  13.700  1.00  0.00     0.029 C 
HETATM   33  C   UNL     1      42.858  -8.402  12.627  1.00  0.00     0.235 C 
ENDBRANCH  27  28
ENDBRANCH  24  27
ENDBRANCH  20  21
ENDBRANCH   2  20
TORSDOF 8
ENDMDL
MODEL 3
REMARK VINA RESULT:      -8.2      5.104      9.777
REMARK  8 active torsions:
REMARK  status: ('A' for Active; 'I' for Inactive)
REMARK    1  A    between atoms: C_7  and  C_8 
REMARK    2  A    between atoms: C_8  and  O_9 
REMARK    3  A    between atoms: O_9  and  C_10 
REMARK    4  A    between atoms: C_13  and  C_14 
REMARK       I    between atoms: C_14  and  N_15 
REMARK    5  A    between atoms: N_15  and  C_16 
REMARK    6  A    between atoms: C_16  and  C_17 
REMARK    7  A    between atoms: C_20  and  C_21 
REMARK    8  A    between atoms: C_21  and  N_22 
ROOT
HETATM    1  C   UNL     1      40.523 -14.259   4.194  1.00  0.00     0.251 C 
HETATM    2  N   UNL     1      41.885 -14.453   4.294  1.00  0.00    -0.353 N 
HETATM    3  O   UNL     1      39.760 -14.318   5.152  1.00  0.00    -0.268 OA
HETATM    4  H   UNL     1      42.486 -14.245   3.510  1.00  0.00     0.163 HD
ENDROOT
BRANCH   1   5
HETATM    5  C   UNL     1      39.994 -13.983   2.831  1.00  0.00     0.032 A 
HETATM    6  C   UNL     1      39.115 -14.862   2.190  1.00  0.00     0.020 A 
HETATM    7  C   UNL     1      38.585 -14.530   0.941  1.00  0.00     0.038 A 
HETATM    8  C   UNL     1      38.911 -13.318   0.328  1.00  0.00     0.069 A 
HETATM    9  C   UNL     1      39.805 -12.450   0.953  1.00  0.00     0.038 A 
HETATM   10  C   UNL     1      40.336 -12.776   2.207  1.00  0.00     0.020 A 
BRANCH   8  11
HETATM   11  O   UNL     1      38.292 -13.109  -0.871  1.00  0.00    -0.347 OA
BRANCH  11  12
HETATM   12  C   UNL     1      39.076 -12.548  -1.925  1.00  0.00     0.219 C 
BRANCH  12  13
HETATM   13  C   UNL     1      39.785 -13.632  -2.656  1.00  0.00     0.024 A 
HETATM   14  C   UNL     1      39.205 -14.709  -3.379  1.00  0.00     0.069 A 
HETATM   15  C   UNL     1      37.769 -15.015  -3.573  1.00  0.00     0.073 C 
HETATM   16  N   UNL     1      40.141 -15.501  -3.914  1.00  0.00    -0.133 NA
HETATM   17  O   UNL     1      41.353 -14.960  -3.533  1.00  0.00    -0.217 OA
HETATM   18  C   UNL     1      41.140 -13.849  -2.781  1.00  0.00     0.085 A 
HETATM   19  C   UNL     1      42.343 -13.161  -2.278  1.00  0.00     0.079 C 
ENDBRANCH  12  13
ENDBRANCH  11  12
ENDBRANCH   8  11
ENDBRANCH   1   5
BRANCH   2  20
HETATM   20  C   UNL     1      42.500 -14.875   5.534  1.00  0.00     0.161 C 
BRANCH  20  21
HETATM   21  C   UNL     1      42.968 -16.316   5.503  1.00  0.00    -0.041 A 
HETATM   22  C   UNL     1      44.178 -16.720   6.082  1.00  0.00     0.009 A 
HETATM   23  C   UNL     1      44.602 -18.048   6.004  1.00  0.00     0.009 A 
HETATM   24  C   UNL     1      43.810 -19.014   5.371  1.00  0.00    -0.033 A 
HETATM   25  C   UNL     1      42.578 -18.625   4.829  1.00  0.00     0.009 A 
HETATM   26  C   UNL     1      42.164 -17.291   4.894  1.00  0.00     0.009 A 
BRANCH  24  27
HETATM   27  C   UNL     1      44.282 -20.438   5.271  1.00  0.00     0.273 C 
BRANCH  27  28
HETATM   28  N   UNL     1      44.958 -20.762   3.961  1.00  0.00    -0.067 N 
HETATM   29  H   UNL     1      45.970 -20.699   4.135  1.00  0.00     0.280 HD
HETATM   30  C   UNL     1      44.632 -19.813   2.825  1.00  0.00     0.235 C 
HETATM   31  C   UNL     1      43.639 -20.584   1.982  1.00  0.00     0.029 C 
HETATM   32  C   UNL     1      44.192 -21.993   2.031  1.00  0.00     0.029 C 
HETATM   33  C   UNL     1      44.629 -22.164   3.476  1.00  0.00     0.235 C 
ENDBRANCH  27  28
ENDBRANCH  24  27
ENDBRANCH  20  21
ENDBRANCH   2  20
TORSDOF 8
ENDMDL
MODEL 4
REMARK VINA RESULT:      -8.1      5.331      8.562
REMARK  8 active torsions:
REMARK  status: ('A' for Active; 'I' for Inactive)
REMARK    1  A    between atoms: C_7  and  C_8 
REMARK    2  A    between atoms: C_8  and  O_9 
REMARK    3  A    between atoms: O_9  and  C_10 
REMARK    4  A    between atoms: C_13  and  C_14 
REMARK       I    between atoms: C_14  and  N_15 
REMARK    5  A    between atoms: N_15  and  C_16 
REMARK    6  A    between atoms: C_16  and  C_17 
REMARK    7  A    between atoms: C_20  and  C_21 
REMARK    8  A    between atoms: C_21  and  N_22 
ROOT
HETATM    1  C   UNL     1      41.221 -14.035   3.572  1.00  0.00     0.251 C 
HETATM    2  N   UNL     1      39.867 -14.018   3.310  1.00  0.00    -0.353 N 
HETATM    3  O   UNL     1      41.942 -13.049   3.468  1.00  0.00    -0.268 OA
HETATM    4  H   UNL     1      39.293 -14.811   3.556  1.00  0.00     0.163 HD
ENDROOT
BRANCH   1   5
HETATM    5  C   UNL     1      41.797 -15.344   3.983  1.00  0.00     0.032 A 
HETATM    6  C   UNL     1      43.121 -15.462   4.418  1.00  0.00     0.020 A 
HETATM    7  C   UNL     1      43.601 -16.696   4.864  1.00  0.00     0.038 A 
HETATM    8  C   UNL     1      42.767 -17.815   4.895  1.00  0.00     0.069 A 
HETATM    9  C   UNL     1      41.454 -17.708   4.440  1.00  0.00     0.038 A 
HETATM   10  C   UNL     1      40.966 -16.472   3.996  1.00  0.00     0.020 A 
BRANCH   8  11
HETATM   11  O   UNL     1      43.357 -18.944   5.388  1.00  0.00    -0.347 OA
BRANCH  11  12
HETATM   12  C   UNL     1      44.630 -19.306   4.851  1.00  0.00     0.219 C 
BRANCH  12  13
HETATM   13  C   UNL     1      44.455 -20.330   3.787  1.00  0.00     0.024 A 
HETATM   14  C   UNL     1      44.663 -21.731   3.893  1.00  0.00     0.069 A 
HETATM   15  C   UNL     1      45.105 -22.505   5.076  1.00  0.00     0.073 C 
HETATM   16  N   UNL     1      44.412 -22.354   2.736  1.00  0.00    -0.133 NA
HETATM   17  O   UNL     1      44.050 -21.361   1.847  1.00  0.00    -0.217 OA
HETATM   18  C   UNL     1      44.080 -20.155   2.473  1.00  0.00     0.085 A 
HETATM   19  C   UNL     1      43.734 -18.984   1.648  1.00  0.00     0.079 C 
ENDBRANCH  12  13
ENDBRANCH  11  12
ENDBRANCH   8  11
ENDBRANCH   1   5
BRANCH   2  20
HETATM   20  C   UNL     1      39.218 -12.847   2.760  1.00  0.00     0.161 C 
BRANCH  20  21
HETATM   21  C   UNL     1      39.019 -12.930   1.261  1.00  0.00    -0.041 A 
HETATM   22  C   UNL     1      39.724 -12.112   0.368  1.00  0.00     0.009 A 
HETATM   23  C   UNL     1      39.491 -12.185  -1.007  1.00  0.00     0.009 A 
HETATM   24  C   UNL     1      38.569 -13.101  -1.528  1.00  0.00    -0.033 A 
HETATM   25  C   UNL     1      37.894 -13.953  -0.644  1.00  0.00     0.009 A 
HETATM   26  C   UNL     1      38.116 -13.866   0.734  1.00  0.00     0.009 A 
BRANCH  24  27
HETATM   27  C   UNL     1      38.308 -13.159  -3.008  1.00  0.00     0.273 C 
BRANCH  27  28
HETATM   28  N   UNL     1      39.376 -13.892  -3.783  1.00  0.00    -0.067 N 
HETATM   29  H   UNL     1      39.150 -13.763  -4.778  1.00  0.00     0.280 HD
HETATM   30  C   UNL     1      39.441 -15.383  -3.522  1.00  0.00     0.235 C 
HETATM   31  C   UNL     1      40.638 -15.539  -2.609  1.00  0.00     0.029 C 
HETATM   32  C   UNL     1      41.621 -14.543  -3.184  1.00  0.00     0.029 C 
HETATM   33  C   UNL     1      40.764 -13.334  -3.519  1.00  0.00     0.235 C 
ENDBRANCH  27  28
ENDBRANCH  24  27
ENDBRANCH  20  21
ENDBRANCH   2  20
TORSDOF 8
ENDMDL
MODEL 5
REMARK VINA RESULT:      -8.1      1.608      2.061
REMARK  8 active torsions:
REMARK  status: ('A' for Active; 'I' for Inactive)
REMARK    1  A    between atoms: C_7  and  C_8 
REMARK    2  A    between atoms: C_8  and  O_9 
REMARK    3  A    between atoms: O_9  and  C_10 
REMARK    4  A    between atoms: C_13  and  C_14 
REMARK       I    between atoms: C_14  and  N_15 
REMARK    5  A    between atoms: N_15  and  C_16 
REMARK    6  A    between atoms: C_16  and  C_17 
REMARK    7  A    between atoms: C_20  and  C_21 
REMARK    8  A    between atoms: C_21  and  N_22 
ROOT
HETATM    1  C   UNL     1      41.609 -13.148   4.564  1.00  0.00     0.251 C 
HETATM    2  N   UNL     1      40.366 -12.944   5.126  1.00  0.00    -0.353 N 
HETATM    3  O   UNL     1      42.426 -12.252   4.389  1.00  0.00    -0.268 OA
HETATM    4  H   UNL     1      39.793 -13.732   5.389  1.00  0.00     0.163 HD
ENDROOT
BRANCH   1   5
HETATM    5  C   UNL     1      41.924 -14.542   4.147  1.00  0.00     0.032 A 
HETATM    6  C   UNL     1      41.096 -15.617   4.484  1.00  0.00     0.020 A 
HETATM    7  C   UNL     1      41.390 -16.898   4.012  1.00  0.00     0.038 A 
HETATM    8  C   UNL     1      42.498 -17.118   3.190  1.00  0.00     0.069 A 
HETATM    9  C   UNL     1      43.340 -16.053   2.872  1.00  0.00     0.038 A 
HETATM   10  C   UNL     1      43.047 -14.765   3.339  1.00  0.00     0.020 A 
BRANCH   8  11
HETATM   11  O   UNL     1      42.643 -18.409   2.773  1.00  0.00    -0.347 OA
BRANCH  11  12
HETATM   12  C   UNL     1      43.959 -18.843   2.428  1.00  0.00     0.219 C 
BRANCH  12  13
HETATM   13  C   UNL     1      44.322 -20.040   3.232  1.00  0.00     0.024 A 
HETATM   14  C   UNL     1      44.702 -20.080   4.601  1.00  0.00     0.069 A 
HETATM   15  C   UNL     1      44.833 -18.949   5.548  1.00  0.00     0.073 C 
HETATM   16  N   UNL     1      44.961 -21.329   5.002  1.00  0.00    -0.133 NA
HETATM   17  O   UNL     1      44.769 -22.127   3.892  1.00  0.00    -0.217 OA
HETATM   18  C   UNL     1      44.392 -21.359   2.837  1.00  0.00     0.085 A 
HETATM   19  C   UNL     1      44.165 -22.065   1.563  1.00  0.00     0.079 C 
ENDBRANCH  12  13
ENDBRANCH  11  12
ENDBRANCH   8  11
ENDBRANCH   1   5
BRANCH   2  20
HETATM   20  C   UNL     1      39.884 -11.615   5.434  1.00  0.00     0.161 C 
BRANCH  20  21
HETATM   21  C   UNL     1      40.128 -11.215   6.874  1.00  0.00    -0.041 A 
HETATM   22  C   UNL     1      41.202 -10.397   7.251  1.00  0.00     0.009 A 
HETATM   23  C   UNL     1      41.423 -10.077   8.591  1.00  0.00     0.009 A 
HETATM   24  C   UNL     1      40.557 -10.541   9.589  1.00  0.00    -0.033 A 
HETATM   25  C   UNL     1      39.455 -11.322   9.215  1.00  0.00     0.009 A 
HETATM   26  C   UNL     1      39.246 -11.655   7.873  1.00  0.00     0.009 A 
BRANCH  24  27
HETATM   27  C   UNL     1      40.814 -10.209  11.033  1.00  0.00     0.273 C 
BRANCH  27  28
HETATM   28  N   UNL     1      42.256 -10.375  11.445  1.00  0.00    -0.067 N 
HETATM   29  H   UNL     1      42.762 -10.684  10.605  1.00  0.00     0.280 HD
HETATM   30  C   UNL     1      42.495 -11.409  12.526  1.00  0.00     0.235 C 
HETATM   31  C   UNL     1      42.706 -10.584  13.777  1.00  0.00     0.029 C 
HETATM   32  C   UNL     1      43.517  -9.413  13.265  1.00  0.00     0.029 C 
HETATM   33  C   UNL     1      42.867  -9.072  11.935  1.00  0.00     0.235 C 
ENDBRANCH  27  28
ENDBRANCH  24  27
ENDBRANCH  20  21
ENDBRANCH   2  20
TORSDOF 8
ENDMDL
MODEL 6
REMARK VINA RESULT:      -8.0      2.964     10.407
REMARK  8 active torsions:
REMARK  status: ('A' for Active; 'I' for Inactive)
REMARK    1  A    between atoms: C_7  and  C_8 
REMARK    2  A    between atoms: C_8  and  O_9 
REMARK    3  A    between atoms: O_9  and  C_10 
REMARK    4  A    between atoms: C_13  and  C_14 
REMARK       I    between atoms: C_14  and  N_15 
REMARK    5  A    between atoms: N_15  and  C_16 
REMARK    6  A    between atoms: C_16  and  C_17 
REMARK    7  A    between atoms: C_20  and  C_21 
REMARK    8  A    between atoms: C_21  and  N_22 
ROOT
HETATM    1  C   UNL     1      39.676 -12.081   6.696  1.00  0.00     0.251 C 
HETATM    2  N   UNL     1      40.393 -13.256   6.608  1.00  0.00    -0.353 N 
HETATM    3  O   UNL     1      38.765 -11.787   5.930  1.00  0.00    -0.268 OA
HETATM    4  H   UNL     1      41.026 -13.520   7.348  1.00  0.00     0.163 HD
ENDROOT
BRANCH   1   5
HETATM    5  C   UNL     1      40.074 -11.145   7.782  1.00  0.00     0.032 A 
HETATM    6  C   UNL     1      39.432 -11.143   9.025  1.00  0.00     0.020 A 
HETATM    7  C   UNL     1      39.884 -10.297  10.041  1.00  0.00     0.038 A 
HETATM    8  C   UNL     1      40.984  -9.461   9.836  1.00  0.00     0.069 A 
HETATM    9  C   UNL     1      41.611  -9.443   8.591  1.00  0.00     0.038 A 
HETATM   10  C   UNL     1      41.165 -10.292   7.570  1.00  0.00     0.020 A 
BRANCH   8  11
HETATM   11  O   UNL     1      41.338  -8.718  10.925  1.00  0.00    -0.347 OA
BRANCH  11  12
HETATM   12  C   UNL     1      42.706  -8.765  11.334  1.00  0.00     0.219 C 
BRANCH  12  13
HETATM   13  C   UNL     1      43.064 -10.151  11.736  1.00  0.00     0.024 A 
HETATM   14  C   UNL     1      44.003 -11.017  11.113  1.00  0.00     0.069 A 
HETATM   15  C   UNL     1      44.843 -10.753   9.922  1.00  0.00     0.073 C 
HETATM   16  N   UNL     1      44.074 -12.197  11.739  1.00  0.00    -0.133 NA
HETATM   17  O   UNL     1      43.164 -12.126  12.776  1.00  0.00    -0.217 OA
HETATM   18  C   UNL     1      42.560 -10.909  12.771  1.00  0.00     0.085 A 
HETATM   19  C   UNL     1      41.542 -10.682  13.813  1.00  0.00     0.079 C 
ENDBRANCH  12  13
ENDBRANCH  11  12
ENDBRANCH   8  11
ENDBRANCH   1   5
BRANCH   2  20
HETATM   20  C   UNL     1      40.204 -14.177   5.508  1.00  0.00     0.161 C 
BRANCH  20  21
HETATM   21  C   UNL     1      41.113 -15.386   5.585  1.00  0.00    -0.041 A 
HETATM   22  C   UNL     1      42.465 -15.282   5.940  1.00  0.00     0.009 A 
HETATM   23  C   UNL     1      43.288 -16.410   5.966  1.00  0.00     0.009 A 
HETATM   24  C   UNL     1      42.772 -17.677   5.668  1.00  0.00    -0.033 A 
HETATM   25  C   UNL     1      41.411 -17.794   5.356  1.00  0.00     0.009 A 
HETATM   26  C   UNL     1      40.593 -16.660   5.314  1.00  0.00     0.009 A 
BRANCH  24  27
HETATM   27  C   UNL     1      43.669 -18.884   5.677  1.00  0.00     0.273 C 
BRANCH  27  28
HETATM   28  N   UNL     1      44.523 -19.013   4.439  1.00  0.00    -0.067 N 
HETATM   29  H   UNL     1      45.390 -18.494   4.632  1.00  0.00     0.280 HD
HETATM   30  C   UNL     1      43.913 -18.429   3.181  1.00  0.00     0.235 C 
HETATM   31  C   UNL     1      43.425 -19.641   2.418  1.00  0.00     0.029 C 
HETATM   32  C   UNL     1      44.527 -20.649   2.665  1.00  0.00     0.029 C 
HETATM   33  C   UNL     1      44.875 -20.459   4.131  1.00  0.00     0.235 C 
ENDBRANCH  27  28
ENDBRANCH  24  27
ENDBRANCH  20  21
ENDBRANCH   2  20
TORSDOF 8
ENDMDL
MODEL 7
REMARK VINA RESULT:      -8.0      1.519      2.157
REMARK  8 active torsions:
REMARK  status: ('A' for Active; 'I' for Inactive)
REMARK    1  A    between atoms: C_7  and  C_8 
REMARK    2  A    between atoms: C_8  and  O_9 
REMARK    3  A    between atoms: O_9  and  C_10 
REMARK    4  A    between atoms: C_13  and  C_14 
REMARK       I    between atoms: C_14  and  N_15 
REMARK    5  A    between atoms: N_15  and  C_16 
REMARK    6  A    between atoms: C_16  and  C_17 
REMARK    7  A    between atoms: C_20  and  C_21 
REMARK    8  A    between atoms: C_21  and  N_22 
ROOT
HETATM    1  C   UNL     1      39.882 -13.009   5.544  1.00  0.00     0.251 C 
HETATM    2  N   UNL     1      40.812 -11.992   5.598  1.00  0.00    -0.353 N 
HETATM    3  O   UNL     1      38.722 -12.884   5.920  1.00  0.00    -0.268 OA
HETATM    4  H   UNL     1      41.705 -12.097   5.139  1.00  0.00     0.163 HD
ENDROOT
BRANCH   1   5
HETATM    5  C   UNL     1      40.360 -14.314   5.012  1.00  0.00     0.032 A 
HETATM    6  C   UNL     1      40.244 -14.644   3.658  1.00  0.00     0.020 A 
HETATM    7  C   UNL     1      40.771 -15.849   3.187  1.00  0.00     0.038 A 
HETATM    8  C   UNL     1      41.429 -16.726   4.052  1.00  0.00     0.069 A 
HETATM    9  C   UNL     1      41.526 -16.411   5.407  1.00  0.00     0.038 A 
HETATM   10  C   UNL     1      41.004 -15.202   5.884  1.00  0.00     0.020 A 
BRANCH   8  11
HETATM   11  O   UNL     1      41.926 -17.846   3.450  1.00  0.00    -0.347 OA
BRANCH  11  12
HETATM   12  C   UNL     1      43.319 -17.857   3.135  1.00  0.00     0.219 C 
BRANCH  12  13
HETATM   13  C   UNL     1      43.949 -19.087   3.684  1.00  0.00     0.024 A 
HETATM   14  C   UNL     1      44.591 -19.242   4.942  1.00  0.00     0.069 A 
HETATM   15  C   UNL     1      44.790 -18.225   6.000  1.00  0.00     0.073 C 
HETATM   16  N   UNL     1      45.047 -20.488   5.110  1.00  0.00    -0.133 NA
HETATM   17  O   UNL     1      44.723 -21.166   3.952  1.00  0.00    -0.217 OA
HETATM   18  C   UNL     1      44.072 -20.330   3.101  1.00  0.00     0.085 A 
HETATM   19  C   UNL     1      43.673 -20.902   1.802  1.00  0.00     0.079 C 
ENDBRANCH  12  13
ENDBRANCH  11  12
ENDBRANCH   8  11
ENDBRANCH   1   5
BRANCH   2  20
HETATM   20  C   UNL     1      40.513 -10.726   6.231  1.00  0.00     0.161 C 
BRANCH  20  21
HETATM   21  C   UNL     1      40.781 -10.732   7.722  1.00  0.00    -0.041 A 
HETATM   22  C   UNL     1      42.062 -10.525   8.251  1.00  0.00     0.009 A 
HETATM   23  C   UNL     1      42.286 -10.574   9.628  1.00  0.00     0.009 A 
HETATM   24  C   UNL     1      41.226 -10.800  10.516  1.00  0.00    -0.033 A 
HETATM   25  C   UNL     1      39.935 -10.964   9.996  1.00  0.00     0.009 A 
HETATM   26  C   UNL     1      39.718 -10.931   8.615  1.00  0.00     0.009 A 
BRANCH  24  27
HETATM   27  C   UNL     1      41.478 -10.873  11.997  1.00  0.00     0.273 C 
BRANCH  27  28
HETATM   28  N   UNL     1      41.929  -9.565  12.600  1.00  0.00    -0.067 N 
HETATM   29  H   UNL     1      42.141  -8.942  11.810  1.00  0.00     0.280 HD
HETATM   30  C   UNL     1      43.177  -9.656  13.454  1.00  0.00     0.235 C 
HETATM   31  C   UNL     1      42.651  -9.605  14.872  1.00  0.00     0.029 C 
HETATM   32  C   UNL     1      41.534  -8.588  14.771  1.00  0.00     0.029 C 
HETATM   33  C   UNL     1      40.851  -8.925  13.457  1.00  0.00     0.235 C 
ENDBRANCH  27  28
ENDBRANCH  24  27
ENDBRANCH  20  21
ENDBRANCH   2  20
TORSDOF 8
ENDMDL
MODEL 8
REMARK VINA RESULT:      -7.8      5.484     10.084
REMARK  8 active torsions:
REMARK  status: ('A' for Active; 'I' for Inactive)
REMARK    1  A    between atoms: C_7  and  C_8 
REMARK    2  A    between atoms: C_8  and  O_9 
REMARK    3  A    between atoms: O_9  and  C_10 
REMARK    4  A    between atoms: C_13  and  C_14 
REMARK       I    between atoms: C_14  and  N_15 
REMARK    5  A    between atoms: N_15  and  C_16 
REMARK    6  A    between atoms: C_16  and  C_17 
REMARK    7  A    between atoms: C_20  and  C_21 
REMARK    8  A    between atoms: C_21  and  N_22 
ROOT
HETATM    1  C   UNL     1      42.167 -13.843   2.911  1.00  0.00     0.251 C 
HETATM    2  N   UNL     1      41.493 -14.497   3.920  1.00  0.00    -0.353 N 
HETATM    3  O   UNL     1      43.354 -13.542   2.975  1.00  0.00    -0.268 OA
HETATM    4  H   UNL     1      40.563 -14.856   3.759  1.00  0.00     0.163 HD
ENDROOT
BRANCH   1   5
HETATM    5  C   UNL     1      41.370 -13.487   1.706  1.00  0.00     0.032 A 
HETATM    6  C   UNL     1      40.466 -14.385   1.129  1.00  0.00     0.020 A 
HETATM    7  C   UNL     1      39.684 -13.986   0.042  1.00  0.00     0.038 A 
HETATM    8  C   UNL     1      39.783 -12.690  -0.468  1.00  0.00     0.069 A 
HETATM    9  C   UNL     1      40.699 -11.799   0.089  1.00  0.00     0.038 A 
HETATM   10  C   UNL     1      41.482 -12.193   1.182  1.00  0.00     0.020 A 
BRANCH   8  11
HETATM   11  O   UNL     1      38.934 -12.426  -1.505  1.00  0.00    -0.347 OA
BRANCH  11  12
HETATM   12  C   UNL     1      39.413 -12.682  -2.826  1.00  0.00     0.219 C 
BRANCH  12  13
HETATM   13  C   UNL     1      38.676 -13.831  -3.415  1.00  0.00     0.024 A 
HETATM   14  C   UNL     1      39.133 -15.168  -3.563  1.00  0.00     0.069 A 
HETATM   15  C   UNL     1      40.445 -15.736  -3.175  1.00  0.00     0.073 C 
HETATM   16  N   UNL     1      38.207 -15.943  -4.137  1.00  0.00    -0.133 NA
HETATM   17  O   UNL     1      37.130 -15.117  -4.390  1.00  0.00    -0.217 OA
HETATM   18  C   UNL     1      37.411 -13.858  -3.963  1.00  0.00     0.085 A 
HETATM   19  C   UNL     1      36.361 -12.846  -4.179  1.00  0.00     0.079 C 
ENDBRANCH  12  13
ENDBRANCH  11  12
ENDBRANCH   8  11
ENDBRANCH   1   5
BRANCH   2  20
HETATM   20  C   UNL     1      42.116 -14.763   5.198  1.00  0.00     0.161 C 
BRANCH  20  21
HETATM   21  C   UNL     1      42.665 -16.171   5.308  1.00  0.00    -0.041 A 
HETATM   22  C   UNL     1      43.915 -16.442   5.879  1.00  0.00     0.009 A 
HETATM   23  C   UNL     1      44.411 -17.746   5.932  1.00  0.00     0.009 A 
HETATM   24  C   UNL     1      43.654 -18.818   5.444  1.00  0.00    -0.033 A 
HETATM   25  C   UNL     1      42.384 -18.559   4.912  1.00  0.00     0.009 A 
HETATM   26  C   UNL     1      41.897 -17.250   4.845  1.00  0.00     0.009 A 
BRANCH  24  27
HETATM   27  C   UNL     1      44.203 -20.218   5.485  1.00  0.00     0.273 C 
BRANCH  27  28
HETATM   28  N   UNL     1      44.946 -20.614   4.232  1.00  0.00    -0.067 N 
HETATM   29  H   UNL     1      45.946 -20.489   4.438  1.00  0.00     0.280 HD
HETATM   30  C   UNL     1      44.626 -19.776   3.011  1.00  0.00     0.235 C 
HETATM   31  C   UNL     1      43.704 -20.657   2.197  1.00  0.00     0.029 C 
HETATM   32  C   UNL     1      44.316 -22.030   2.382  1.00  0.00     0.029 C 
HETATM   33  C   UNL     1      44.700 -22.064   3.851  1.00  0.00     0.235 C 
ENDBRANCH  27  28
ENDBRANCH  24  27
ENDBRANCH  20  21
ENDBRANCH   2  20
TORSDOF 8
ENDMDL
MODEL 9
REMARK VINA RESULT:      -7.6      1.952      3.222
REMARK  8 active torsions:
REMARK  status: ('A' for Active; 'I' for Inactive)
REMARK    1  A    between atoms: C_7  and  C_8 
REMARK    2  A    between atoms: C_8  and  O_9 
REMARK    3  A    between atoms: O_9  and  C_10 
REMARK    4  A    between atoms: C_13  and  C_14 
REMARK       I    between atoms: C_14  and  N_15 
REMARK    5  A    between atoms: N_15  and  C_16 
REMARK    6  A    between atoms: C_16  and  C_17 
REMARK    7  A    between atoms: C_20  and  C_21 
REMARK    8  A    between atoms: C_21  and  N_22 
ROOT
HETATM    1  C   UNL     1      39.792 -11.898   6.715  1.00  0.00     0.251 C 
HETATM    2  N   UNL     1      39.921 -11.875   8.088  1.00  0.00    -0.353 N 
HETATM    3  O   UNL     1      39.073 -11.126   6.091  1.00  0.00    -0.268 OA
HETATM    4  H   UNL     1      40.637 -12.426   8.540  1.00  0.00     0.163 HD
ENDROOT
BRANCH   1   5
HETATM    5  C   UNL     1      40.571 -12.943   5.996  1.00  0.00     0.032 A 
HETATM    6  C   UNL     1      41.959 -12.851   5.842  1.00  0.00     0.020 A 
HETATM    7  C   UNL     1      42.661 -13.888   5.224  1.00  0.00     0.038 A 
HETATM    8  C   UNL     1      41.994 -15.029   4.769  1.00  0.00     0.069 A 
HETATM    9  C   UNL     1      40.609 -15.113   4.900  1.00  0.00     0.038 A 
HETATM   10  C   UNL     1      39.900 -14.078   5.523  1.00  0.00     0.020 A 
BRANCH   8  11
HETATM   11  O   UNL     1      42.809 -15.977   4.221  1.00  0.00    -0.347 OA
BRANCH  11  12
HETATM   12  C   UNL     1      42.272 -17.291   4.062  1.00  0.00     0.219 C 
BRANCH  12  13
HETATM   13  C   UNL     1      43.184 -18.286   4.686  1.00  0.00     0.024 A 
HETATM   14  C   UNL     1      43.454 -18.463   6.070  1.00  0.00     0.069 A 
HETATM   15  C   UNL     1      42.902 -17.704   7.216  1.00  0.00     0.073 C 
HETATM   16  N   UNL     1      44.328 -19.454   6.277  1.00  0.00    -0.133 NA
HETATM   17  O   UNL     1      44.657 -19.931   5.024  1.00  0.00    -0.217 OA
HETATM   18  C   UNL     1      43.978 -19.233   4.077  1.00  0.00     0.085 A 
HETATM   19  C   UNL     1      44.236 -19.612   2.676  1.00  0.00     0.079 C 
ENDBRANCH  12  13
ENDBRANCH  11  12
ENDBRANCH   8  11
ENDBRANCH   1   5
BRANCH   2  20
HETATM   20  C   UNL     1      39.104 -11.009   8.910  1.00  0.00     0.161 C 
BRANCH  20  21
HETATM   21  C   UNL     1      39.919 -10.134   9.841  1.00  0.00    -0.041 A 
HETATM   22  C   UNL     1      39.348  -9.476  10.938  1.00  0.00     0.009 A 
HETATM   23  C   UNL     1      40.116  -8.646  11.755  1.00  0.00     0.009 A 
HETATM   24  C   UNL     1      41.486  -8.477  11.516  1.00  0.00    -0.033 A 
HETATM   25  C   UNL     1      42.073  -9.168  10.447  1.00  0.00     0.009 A 
HETATM   26  C   UNL     1      41.296  -9.985   9.620  1.00  0.00     0.009 A 
BRANCH  24  27
HETATM   27  C   UNL     1      42.303  -7.564  12.387  1.00  0.00     0.273 C 
BRANCH  27  28
HETATM   28  N   UNL     1      42.888  -8.247  13.600  1.00  0.00    -0.067 N 
HETATM   29  H   UNL     1      43.678  -7.665  13.906  1.00  0.00     0.280 HD
HETATM   30  C   UNL     1      43.422  -9.643  13.348  1.00  0.00     0.235 C 
HETATM   31  C   UNL     1      42.352 -10.549  13.917  1.00  0.00     0.029 C 
HETATM   32  C   UNL     1      41.928  -9.810  15.169  1.00  0.00     0.029 C 
HETATM   33  C   UNL     1      41.887  -8.355  14.738  1.00  0.00     0.235 C 
ENDBRANCH  27  28
ENDBRANCH  24  27
ENDBRANCH  20  21
ENDBRANCH   2  20
TORSDOF 8
ENDMDL
MODEL 10
REMARK VINA RESULT:      -7.6      1.608      2.399
REMARK  8 active torsions:
REMARK  status: ('A' for Active; 'I' for Inactive)
REMARK    1  A    between atoms: C_7  and  C_8 
REMARK    2  A    between atoms: C_8  and  O_9 
REMARK    3  A    between atoms: O_9  and  C_10 
REMARK    4  A    between atoms: C_13  and  C_14 
REMARK       I    between atoms: C_14  and  N_15 
REMARK    5  A    between atoms: N_15  and  C_16 
REMARK    6  A    between atoms: C_16  and  C_17 
REMARK    7  A    between atoms: C_20  and  C_21 
REMARK    8  A    between atoms: C_21  and  N_22 
ROOT
HETATM    1  C   UNL     1      41.867 -12.801   5.070  1.00  0.00     0.251 C 
HETATM    2  N   UNL     1      41.564 -12.426   6.362  1.00  0.00    -0.353 N 
HETATM    3  O   UNL     1      42.031 -12.003   4.155  1.00  0.00    -0.268 OA
HETATM    4  H   UNL     1      41.589 -13.106   7.107  1.00  0.00     0.163 HD
ENDROOT
BRANCH   1   5
HETATM    5  C   UNL     1      41.974 -14.264   4.816  1.00  0.00     0.032 A 
HETATM    6  C   UNL     1      41.516 -14.840   3.626  1.00  0.00     0.020 A 
HETATM    7  C   UNL     1      41.701 -16.205   3.397  1.00  0.00     0.038 A 
HETATM    8  C   UNL     1      42.354 -17.004   4.338  1.00  0.00     0.069 A 
HETATM    9  C   UNL     1      42.791 -16.438   5.535  1.00  0.00     0.038 A 
HETATM   10  C   UNL     1      42.612 -15.068   5.768  1.00  0.00     0.020 A 
BRANCH   8  11
HETATM   11  O   UNL     1      42.498 -18.310   3.967  1.00  0.00    -0.347 OA
BRANCH  11  12
HETATM   12  C   UNL     1      43.765 -18.704   3.436  1.00  0.00     0.219 C 
BRANCH  12  13
HETATM   13  C   UNL     1      44.194 -19.984   4.059  1.00  0.00     0.024 A 
HETATM   14  C   UNL     1      44.451 -21.220   3.406  1.00  0.00     0.069 A 
HETATM   15  C   UNL     1      44.350 -21.532   1.962  1.00  0.00     0.073 C 
HETATM   16  N   UNL     1      44.820 -22.167   4.276  1.00  0.00    -0.133 NA
HETATM   17  O   UNL     1      44.793 -21.566   5.519  1.00  0.00    -0.217 OA
HETATM   18  C   UNL     1      44.417 -20.267   5.389  1.00  0.00     0.085 A 
HETATM   19  C   UNL     1      44.321 -19.488   6.637  1.00  0.00     0.079 C 
ENDBRANCH  12  13
ENDBRANCH  11  12
ENDBRANCH   8  11
ENDBRANCH   1   5
BRANCH   2  20
HETATM   20  C   UNL     1      41.286 -11.047   6.704  1.00  0.00     0.161 C 
BRANCH  20  21
HETATM   21  C   UNL     1      41.805 -10.661   8.073  1.00  0.00    -0.041 A 
HETATM   22  C   UNL     1      43.000 -11.177   8.592  1.00  0.00     0.009 A 
HETATM   23  C   UNL     1      43.434 -10.832   9.873  1.00  0.00     0.009 A 
HETATM   24  C   UNL     1      42.698  -9.935  10.658  1.00  0.00    -0.033 A 
HETATM   25  C   UNL     1      41.526  -9.381  10.128  1.00  0.00     0.009 A 
HETATM   26  C   UNL     1      41.085  -9.742   8.851  1.00  0.00     0.009 A 
BRANCH  24  27
HETATM   27  C   UNL     1      43.160  -9.584  12.046  1.00  0.00     0.273 C 
BRANCH  27  28
HETATM   28  N   UNL     1      42.031  -9.291  13.004  1.00  0.00    -0.067 N 
HETATM   29  H   UNL     1      41.217  -9.047  12.425  1.00  0.00     0.280 HD
HETATM   30  C   UNL     1      42.282  -8.132  13.947  1.00  0.00     0.235 C 
HETATM   31  C   UNL     1      42.619  -8.801  15.262  1.00  0.00     0.029 C 
HETATM   32  C   UNL     1      41.660  -9.971  15.290  1.00  0.00     0.029 C 
HETATM   33  C   UNL     1      41.680 -10.494  13.863  1.00  0.00     0.235 C 
ENDBRANCH  27  28
ENDBRANCH  24  27
ENDBRANCH  20  21
ENDBRANCH   2  20
TORSDOF 8
ENDMDL
