MODEL 1
REMARK VINA RESULT:      -8.9      0.000      0.000
REMARK  8 active torsions:
REMARK  status: ('A' for Active; 'I' for Inactive)
REMARK    1  A    between atoms: C_2  and  O_3 
REMARK    2  A    between atoms: O_3  and  C_4 
REMARK    3  A    between atoms: C_4  and  C_5 
REMARK    4  A    between atoms: C_6  and  C_8 
REMARK    5  A    between atoms: C_6  and  O_7 
REMARK    6  A    between atoms: C_16  and  C_17 
REMARK    7  A    between atoms: C_18  and  C_19 
REMARK    8  A    between atoms: N_26  and  C_27 
ROOT
HETATM    1  C   UNL     1      41.300 -15.785   4.099  1.00  0.00     0.177 C 
HETATM    2  C   UNL     1      40.866 -16.039   2.633  1.00  0.00     0.250 C 
HETATM    3  N   UNL     1      41.062 -14.826   1.867  1.00  0.00    -0.303 N 
HETATM    4  C   UNL     1      42.187 -14.070   1.979  1.00  0.00     0.319 C 
HETATM    5  O   UNL     1      42.484 -13.241   1.133  1.00  0.00    -0.247 OA
HETATM    6  N   UNL     1      42.931 -14.250   3.102  1.00  0.00    -0.333 N 
HETATM    7  C   UNL     1      42.759 -15.327   4.059  1.00  0.00     0.142 C 
HETATM    8  H   UNL     1      40.586 -14.742   0.977  1.00  0.00     0.167 HD
HETATM    9  H   UNL     1      43.784 -13.700   3.110  1.00  0.00     0.165 HD
ENDROOT
BRANCH   7  10
HETATM   10  C   UNL     1      43.447 -15.013   5.363  1.00  0.00     0.015 A 
HETATM   11  C   UNL     1      43.982 -15.937   6.321  1.00  0.00     0.097 A 
HETATM   12  N   UNL     1      44.544 -15.300   7.354  1.00  0.00    -0.167 NA
HETATM   13  N   UNL     1      44.361 -13.984   7.125  1.00  0.00    -0.244 N 
HETATM   14  C   UNL     1      43.656 -13.780   5.958  1.00  0.00     0.130 A 
BRANCH  11  15
HETATM   15  C   UNL     1      43.998 -17.400   6.282  1.00  0.00    -0.005 A 
HETATM   16  C   UNL     1      43.637 -18.129   7.423  1.00  0.00     0.014 A 
HETATM   17  C   UNL     1      43.660 -19.525   7.409  1.00  0.00     0.001 A 
HETATM   18  C   UNL     1      44.040 -20.205   6.253  1.00  0.00     0.000 A 
HETATM   19  C   UNL     1      44.386 -19.489   5.108  1.00  0.00     0.001 A 
HETATM   20  C   UNL     1      44.358 -18.093   5.118  1.00  0.00     0.014 A 
ENDBRANCH  11  15
BRANCH  13  21
HETATM   21  C   UNL     1      44.867 -13.009   8.029  1.00  0.00     0.058 A 
HETATM   22  C   UNL     1      46.160 -12.499   7.837  1.00  0.00     0.031 A 
HETATM   23  C   UNL     1      46.678 -11.536   8.706  1.00  0.00     0.002 A 
HETATM   24  C   UNL     1      45.908 -11.074   9.771  1.00  0.00     0.000 A 
HETATM   25  C   UNL     1      44.621 -11.573   9.969  1.00  0.00     0.002 A 
HETATM   26  C   UNL     1      44.098 -12.539   9.104  1.00  0.00     0.031 A 
ENDBRANCH  13  21
ENDBRANCH   7  10
BRANCH   1  27
HETATM   27  C   UNL     1      40.316 -14.807   4.716  1.00  0.00     0.270 C 
HETATM   28  O   UNL     1      39.958 -14.920   5.885  1.00  0.00    -0.265 OA
BRANCH  27  29
HETATM   29  O   UNL     1      39.843 -13.862   3.872  1.00  0.00    -0.321 OA
BRANCH  29  30
HETATM   30  C   UNL     1      39.573 -12.568   4.437  1.00  0.00     0.174 C 
HETATM   31  C   UNL     1      40.812 -11.694   4.376  1.00  0.00     0.034 C 
ENDBRANCH  29  30
ENDBRANCH  27  29
ENDBRANCH   1  27
BRANCH   2  32
HETATM   32  C   UNL     1      41.654 -17.261   2.013  1.00  0.00     0.439 C 
HETATM   33  F   UNL     1      42.030 -18.134   2.980  1.00  0.00    -0.166 F 
HETATM   34  F   UNL     1      40.896 -17.941   1.119  1.00  0.00    -0.166 F 
HETATM   35  F   UNL     1      42.778 -16.892   1.359  1.00  0.00    -0.166 F 
ENDBRANCH   2  32
BRANCH   2  36
HETATM   36  O   UNL     1      39.467 -16.334   2.508  1.00  0.00    -0.363 OA
HETATM   37  H   UNL     1      39.240 -17.099   3.073  1.00  0.00     0.213 HD
ENDBRANCH   2  36
TORSDOF 8
ENDMDL
MODEL 2
REMARK VINA RESULT:      -8.8      3.102      7.057
REMARK  8 active torsions:
REMARK  status: ('A' for Active; 'I' for Inactive)
REMARK    1  A    between atoms: C_2  and  O_3 
REMARK    2  A    between atoms: O_3  and  C_4 
REMARK    3  A    between atoms: C_4  and  C_5 
REMARK    4  A    between atoms: C_6  and  C_8 
REMARK    5  A    between atoms: C_6  and  O_7 
REMARK    6  A    between atoms: C_16  and  C_17 
REMARK    7  A    between atoms: C_18  and  C_19 
REMARK    8  A    between atoms: N_26  and  C_27 
ROOT
HETATM    1  C   UNL     1      41.169 -14.934   5.097  1.00  0.00     0.177 C 
HETATM    2  C   UNL     1      41.269 -13.517   5.718  1.00  0.00     0.250 C 
HETATM    3  N   UNL     1      42.545 -13.387   6.389  1.00  0.00    -0.303 N 
HETATM    4  C   UNL     1      43.706 -13.820   5.831  1.00  0.00     0.319 C 
HETATM    5  O   UNL     1      44.792 -13.441   6.246  1.00  0.00    -0.247 OA
HETATM    6  N   UNL     1      43.597 -14.730   4.828  1.00  0.00    -0.333 N 
HETATM    7  C   UNL     1      42.364 -15.093   4.155  1.00  0.00     0.142 C 
HETATM    8  H   UNL     1      42.654 -12.637   7.061  1.00  0.00     0.167 HD
HETATM    9  H   UNL     1      44.490 -14.979   4.415  1.00  0.00     0.165 HD
ENDROOT
BRANCH   7  10
HETATM   10  C   UNL     1      42.515 -16.390   3.402  1.00  0.00     0.015 A 
HETATM   11  C   UNL     1      42.012 -16.714   2.098  1.00  0.00     0.097 A 
HETATM   12  N   UNL     1      42.357 -17.954   1.735  1.00  0.00    -0.167 NA
HETATM   13  N   UNL     1      43.041 -18.471   2.777  1.00  0.00    -0.244 N 
HETATM   14  C   UNL     1      43.107 -17.570   3.818  1.00  0.00     0.130 A 
BRANCH  11  15
HETATM   15  C   UNL     1      41.234 -15.885   1.177  1.00  0.00    -0.005 A 
HETATM   16  C   UNL     1      40.028 -15.315   1.606  1.00  0.00     0.014 A 
HETATM   17  C   UNL     1      39.265 -14.531   0.737  1.00  0.00     0.001 A 
HETATM   18  C   UNL     1      39.703 -14.309  -0.567  1.00  0.00     0.000 A 
HETATM   19  C   UNL     1      40.909 -14.858  -0.999  1.00  0.00     0.001 A 
HETATM   20  C   UNL     1      41.676 -15.637  -0.129  1.00  0.00     0.014 A 
ENDBRANCH  11  15
BRANCH  13  21
HETATM   21  C   UNL     1      43.583 -19.785   2.714  1.00  0.00     0.058 A 
HETATM   22  C   UNL     1      44.364 -20.258   3.781  1.00  0.00     0.031 A 
HETATM   23  C   UNL     1      44.902 -21.546   3.747  1.00  0.00     0.002 A 
HETATM   24  C   UNL     1      44.663 -22.371   2.651  1.00  0.00     0.000 A 
HETATM   25  C   UNL     1      43.888 -21.911   1.587  1.00  0.00     0.002 A 
HETATM   26  C   UNL     1      43.348 -20.622   1.613  1.00  0.00     0.031 A 
ENDBRANCH  13  21
ENDBRANCH   7  10
BRANCH   1  27
HETATM   27  C   UNL     1      41.082 -15.938   6.232  1.00  0.00     0.270 C 
HETATM   28  O   UNL     1      40.022 -16.494   6.508  1.00  0.00    -0.265 OA
BRANCH  27  29
HETATM   29  O   UNL     1      42.229 -16.119   6.924  1.00  0.00    -0.321 OA
BRANCH  29  30
HETATM   30  C   UNL     1      42.504 -17.453   7.384  1.00  0.00     0.174 C 
HETATM   31  C   UNL     1      43.588 -17.435   8.445  1.00  0.00     0.034 C 
ENDBRANCH  29  30
ENDBRANCH  27  29
ENDBRANCH   1  27
BRANCH   2  32
HETATM   32  C   UNL     1      41.064 -12.400   4.617  1.00  0.00     0.439 C 
HETATM   33  F   UNL     1      40.548 -11.272   5.165  1.00  0.00    -0.166 F 
HETATM   34  F   UNL     1      42.233 -12.069   4.019  1.00  0.00    -0.166 F 
HETATM   35  F   UNL     1      40.222 -12.777   3.629  1.00  0.00    -0.166 F 
ENDBRANCH   2  32
BRANCH   2  36
HETATM   36  O   UNL     1      40.286 -13.285   6.739  1.00  0.00    -0.363 OA
HETATM   37  H   UNL     1      39.524 -12.806   6.359  1.00  0.00     0.213 HD
ENDBRANCH   2  36
TORSDOF 8
ENDMDL
MODEL 3
REMARK VINA RESULT:      -8.7      3.267      6.559
REMARK  8 active torsions:
REMARK  status: ('A' for Active; 'I' for Inactive)
REMARK    1  A    between atoms: C_2  and  O_3 
REMARK    2  A    between atoms: O_3  and  C_4 
REMARK    3  A    between atoms: C_4  and  C_5 
REMARK    4  A    between atoms: C_6  and  C_8 
REMARK    5  A    between atoms: C_6  and  O_7 
REMARK    6  A    between atoms: C_16  and  C_17 
REMARK    7  A    between atoms: C_18  and  C_19 
REMARK    8  A    between atoms: N_26  and  C_27 
ROOT
HETATM    1  C   UNL     1      43.515 -15.969   5.337  1.00  0.00     0.177 C 
HETATM    2  C   UNL     1      43.452 -16.330   6.844  1.00  0.00     0.250 C 
HETATM    3  N   UNL     1      42.071 -16.307   7.276  1.00  0.00    -0.303 N 
HETATM    4  C   UNL     1      41.070 -16.862   6.541  1.00  0.00     0.319 C 
HETATM    5  O   UNL     1      39.981 -17.112   7.036  1.00  0.00    -0.247 OA
HETATM    6  N   UNL     1      41.329 -17.074   5.224  1.00  0.00    -0.333 N 
HETATM    7  C   UNL     1      42.635 -16.981   4.600  1.00  0.00     0.142 C 
HETATM    8  H   UNL     1      41.884 -16.255   8.270  1.00  0.00     0.167 HD
HETATM    9  H   UNL     1      40.568 -17.536   4.737  1.00  0.00     0.165 HD
ENDROOT
BRANCH   7  10
HETATM   10  C   UNL     1      42.517 -16.869   3.102  1.00  0.00     0.015 A 
HETATM   11  C   UNL     1      42.879 -17.846   2.115  1.00  0.00     0.097 A 
HETATM   12  N   UNL     1      42.613 -17.413   0.878  1.00  0.00    -0.167 NA
HETATM   13  N   UNL     1      42.122 -16.165   1.017  1.00  0.00    -0.244 N 
HETATM   14  C   UNL     1      42.101 -15.789   2.343  1.00  0.00     0.130 A 
BRANCH  11  15
HETATM   15  C   UNL     1      43.448 -19.181   2.304  1.00  0.00    -0.005 A 
HETATM   16  C   UNL     1      42.965 -20.255   1.544  1.00  0.00     0.014 A 
HETATM   17  C   UNL     1      43.487 -21.539   1.719  1.00  0.00     0.001 A 
HETATM   18  C   UNL     1      44.497 -21.759   2.653  1.00  0.00     0.000 A 
HETATM   19  C   UNL     1      44.995 -20.695   3.403  1.00  0.00     0.001 A 
HETATM   20  C   UNL     1      44.479 -19.409   3.225  1.00  0.00     0.014 A 
ENDBRANCH  11  15
BRANCH  13  21
HETATM   21  C   UNL     1      41.706 -15.413  -0.118  1.00  0.00     0.058 A 
HETATM   22  C   UNL     1      41.775 -14.012  -0.076  1.00  0.00     0.031 A 
HETATM   23  C   UNL     1      41.381 -13.251  -1.179  1.00  0.00     0.002 A 
HETATM   24  C   UNL     1      40.918 -13.883  -2.330  1.00  0.00     0.000 A 
HETATM   25  C   UNL     1      40.847 -15.275  -2.382  1.00  0.00     0.002 A 
HETATM   26  C   UNL     1      41.239 -16.043  -1.281  1.00  0.00     0.031 A 
ENDBRANCH  13  21
ENDBRANCH   7  10
BRANCH   1  27
HETATM   27  C   UNL     1      43.115 -14.513   5.188  1.00  0.00     0.270 C 
HETATM   28  O   UNL     1      43.952 -13.646   4.947  1.00  0.00    -0.265 OA
BRANCH  27  29
HETATM   29  O   UNL     1      41.803 -14.255   5.389  1.00  0.00    -0.321 OA
BRANCH  29  30
HETATM   30  C   UNL     1      41.273 -13.072   4.769  1.00  0.00     0.174 C 
HETATM   31  C   UNL     1      39.934 -13.369   4.120  1.00  0.00     0.034 C 
ENDBRANCH  29  30
ENDBRANCH  27  29
ENDBRANCH   1  27
BRANCH   2  32
HETATM   32  C   UNL     1      44.134 -17.730   7.120  1.00  0.00     0.439 C 
HETATM   33  F   UNL     1      45.349 -17.801   6.523  1.00  0.00    -0.166 F 
HETATM   34  F   UNL     1      44.313 -17.944   8.445  1.00  0.00    -0.166 F 
HETATM   35  F   UNL     1      43.408 -18.773   6.658  1.00  0.00    -0.166 F 
ENDBRANCH   2  32
BRANCH   2  36
HETATM   36  O   UNL     1      44.118 -15.368   7.675  1.00  0.00    -0.363 OA
HETATM   37  H   UNL     1      43.915 -15.548   8.614  1.00  0.00     0.213 HD
ENDBRANCH   2  36
TORSDOF 8
ENDMDL
MODEL 4
REMARK VINA RESULT:      -8.1      4.609      7.347
REMARK  8 active torsions:
REMARK  status: ('A' for Active; 'I' for Inactive)
REMARK    1  A    between atoms: C_2  and  O_3 
REMARK    2  A    between atoms: O_3  and  C_4 
REMARK    3  A    between atoms: C_4  and  C_5 
REMARK    4  A    between atoms: C_6  and  C_8 
REMARK    5  A    between atoms: C_6  and  O_7 
REMARK    6  A    between atoms: C_16  and  C_17 
REMARK    7  A    between atoms: C_18  and  C_19 
REMARK    8  A    between atoms: N_26  and  C_27 
ROOT
HETATM    1  C   UNL     1      40.627 -13.188  -0.931  1.00  0.00     0.177 C 
HETATM    2  C   UNL     1      39.762 -12.846  -2.171  1.00  0.00     0.250 C 
HETATM    3  N   UNL     1      40.100 -13.756  -3.245  1.00  0.00    -0.303 N 
HETATM    4  C   UNL     1      40.257 -15.091  -3.043  1.00  0.00     0.319 C 
HETATM    5  O   UNL     1      40.235 -15.882  -3.974  1.00  0.00    -0.247 OA
HETATM    6  N   UNL     1      40.491 -15.490  -1.765  1.00  0.00    -0.333 N 
HETATM    7  C   UNL     1      40.352 -14.654  -0.588  1.00  0.00     0.142 C 
HETATM    8  H   UNL     1      39.828 -13.501  -4.187  1.00  0.00     0.167 HD
HETATM    9  H   UNL     1      40.549 -16.498  -1.665  1.00  0.00     0.165 HD
ENDROOT
BRANCH   7  10
HETATM   10  C   UNL     1      41.064 -15.257   0.596  1.00  0.00     0.015 A 
HETATM   11  C   UNL     1      41.182 -14.719   1.921  1.00  0.00     0.097 A 
HETATM   12  N   UNL     1      41.867 -15.541   2.724  1.00  0.00    -0.167 NA
HETATM   13  N   UNL     1      42.237 -16.587   1.957  1.00  0.00    -0.244 N 
HETATM   14  C   UNL     1      41.813 -16.420   0.657  1.00  0.00     0.130 A 
BRANCH  11  15
HETATM   15  C   UNL     1      40.652 -13.465   2.457  1.00  0.00    -0.005 A 
HETATM   16  C   UNL     1      41.535 -12.476   2.911  1.00  0.00     0.014 A 
HETATM   17  C   UNL     1      41.048 -11.278   3.439  1.00  0.00     0.001 A 
HETATM   18  C   UNL     1      39.674 -11.058   3.514  1.00  0.00     0.000 A 
HETATM   19  C   UNL     1      38.788 -12.028   3.052  1.00  0.00     0.001 A 
HETATM   20  C   UNL     1      39.273 -13.224   2.518  1.00  0.00     0.014 A 
ENDBRANCH  11  15
BRANCH  13  21
HETATM   21  C   UNL     1      42.970 -17.674   2.512  1.00  0.00     0.058 A 
HETATM   22  C   UNL     1      43.362 -17.622   3.859  1.00  0.00     0.031 A 
HETATM   23  C   UNL     1      44.075 -18.678   4.429  1.00  0.00     0.002 A 
HETATM   24  C   UNL     1      44.399 -19.794   3.661  1.00  0.00     0.000 A 
HETATM   25  C   UNL     1      44.012 -19.856   2.324  1.00  0.00     0.002 A 
HETATM   26  C   UNL     1      43.300 -18.801   1.745  1.00  0.00     0.031 A 
ENDBRANCH  13  21
ENDBRANCH   7  10
BRANCH   1  27
HETATM   27  C   UNL     1      42.069 -12.843  -1.255  1.00  0.00     0.270 C 
HETATM   28  O   UNL     1      42.603 -13.251  -2.284  1.00  0.00    -0.265 OA
BRANCH  27  29
HETATM   29  O   UNL     1      42.709 -12.114  -0.313  1.00  0.00    -0.321 OA
BRANCH  29  30
HETATM   30  C   UNL     1      42.518 -10.691  -0.357  1.00  0.00     0.174 C 
HETATM   31  C   UNL     1      43.591 -10.038  -1.209  1.00  0.00     0.034 C 
ENDBRANCH  29  30
ENDBRANCH  27  29
ENDBRANCH   1  27
BRANCH   2  32
HETATM   32  C   UNL     1      38.222 -12.894  -1.819  1.00  0.00     0.439 C 
HETATM   33  F   UNL     1      38.014 -12.576  -0.517  1.00  0.00    -0.166 F 
HETATM   34  F   UNL     1      37.510 -12.022  -2.573  1.00  0.00    -0.166 F 
HETATM   35  F   UNL     1      37.670 -14.112  -2.018  1.00  0.00    -0.166 F 
ENDBRANCH   2  32
BRANCH   2  36
HETATM   36  O   UNL     1      40.032 -11.537  -2.695  1.00  0.00    -0.363 OA
HETATM   37  H   UNL     1      39.495 -11.386  -3.497  1.00  0.00     0.213 HD
ENDBRANCH   2  36
TORSDOF 8
ENDMDL
MODEL 5
REMARK VINA RESULT:      -8.0      3.829      6.745
REMARK  8 active torsions:
REMARK  status: ('A' for Active; 'I' for Inactive)
REMARK    1  A    between atoms: C_2  and  O_3 
REMARK    2  A    between atoms: O_3  and  C_4 
REMARK    3  A    between atoms: C_4  and  C_5 
REMARK    4  A    between atoms: C_6  and  C_8 
REMARK    5  A    between atoms: C_6  and  O_7 
REMARK    6  A    between atoms: C_16  and  C_17 
REMARK    7  A    between atoms: C_18  and  C_19 
REMARK    8  A    between atoms: N_26  and  C_27 
ROOT
HETATM    1  C   UNL     1      40.387 -13.048   1.240  1.00  0.00     0.177 C 
HETATM    2  C   UNL     1      39.323 -12.347   0.357  1.00  0.00     0.250 C 
HETATM    3  N   UNL     1      39.358 -12.924  -0.969  1.00  0.00    -0.303 N 
HETATM    4  C   UNL     1      39.438 -14.266  -1.176  1.00  0.00     0.319 C 
HETATM    5  O   UNL     1      39.162 -14.761  -2.258  1.00  0.00    -0.247 OA
HETATM    6  N   UNL     1      39.890 -15.015  -0.136  1.00  0.00    -0.333 N 
HETATM    7  C   UNL     1      40.063 -14.543   1.225  1.00  0.00     0.142 C 
HETATM    8  H   UNL     1      38.925 -12.407  -1.725  1.00  0.00     0.167 HD
HETATM    9  H   UNL     1      39.881 -16.012  -0.327  1.00  0.00     0.165 HD
ENDROOT
BRANCH   7  10
HETATM   10  C   UNL     1      40.945 -15.475   2.017  1.00  0.00     0.015 A 
HETATM   11  C   UNL     1      41.381 -15.330   3.376  1.00  0.00     0.097 A 
HETATM   12  N   UNL     1      42.138 -16.364   3.759  1.00  0.00    -0.167 NA
HETATM   13  N   UNL     1      42.246 -17.167   2.680  1.00  0.00    -0.244 N 
HETATM   14  C   UNL     1      41.581 -16.631   1.599  1.00  0.00     0.130 A 
BRANCH  11  15
HETATM   15  C   UNL     1      41.090 -14.260   4.329  1.00  0.00    -0.005 A 
HETATM   16  C   UNL     1      39.850 -14.230   4.982  1.00  0.00     0.014 A 
HETATM   17  C   UNL     1      39.549 -13.208   5.886  1.00  0.00     0.001 A 
HETATM   18  C   UNL     1      40.485 -12.210   6.147  1.00  0.00     0.000 A 
HETATM   19  C   UNL     1      41.727 -12.239   5.515  1.00  0.00     0.001 A 
HETATM   20  C   UNL     1      42.033 -13.263   4.616  1.00  0.00     0.014 A 
ENDBRANCH  11  15
BRANCH  13  21
HETATM   21  C   UNL     1      42.974 -18.388   2.749  1.00  0.00     0.058 A 
HETATM   22  C   UNL     1      43.799 -18.634   3.858  1.00  0.00     0.031 A 
HETATM   23  C   UNL     1      44.519 -19.827   3.953  1.00  0.00     0.002 A 
HETATM   24  C   UNL     1      44.417 -20.783   2.946  1.00  0.00     0.000 A 
HETATM   25  C   UNL     1      43.598 -20.549   1.842  1.00  0.00     0.002 A 
HETATM   26  C   UNL     1      42.877 -19.356   1.739  1.00  0.00     0.031 A 
ENDBRANCH  13  21
ENDBRANCH   7  10
BRANCH   1  27
HETATM   27  C   UNL     1      41.758 -12.662   0.716  1.00  0.00     0.270 C 
HETATM   28  O   UNL     1      42.471 -11.870   1.327  1.00  0.00    -0.265 OA
BRANCH  27  29
HETATM   29  O   UNL     1      42.091 -13.211  -0.474  1.00  0.00    -0.321 OA
BRANCH  29  30
HETATM   30  C   UNL     1      42.708 -12.341  -1.438  1.00  0.00     0.174 C 
HETATM   31  C   UNL     1      42.685 -12.976  -2.815  1.00  0.00     0.034 C 
ENDBRANCH  29  30
ENDBRANCH  27  29
ENDBRANCH   1  27
BRANCH   2  32
HETATM   32  C   UNL     1      37.887 -12.453   1.010  1.00  0.00     0.439 C 
HETATM   33  F   UNL     1      37.969 -12.440   2.363  1.00  0.00    -0.166 F 
HETATM   34  F   UNL     1      37.091 -11.422   0.636  1.00  0.00    -0.166 F 
HETATM   35  F   UNL     1      37.231 -13.585   0.667  1.00  0.00    -0.166 F 
ENDBRANCH   2  32
BRANCH   2  36
HETATM   36  O   UNL     1      39.593 -10.950   0.162  1.00  0.00    -0.363 OA
HETATM   37  H   UNL     1      39.109 -10.425   0.830  1.00  0.00     0.213 HD
ENDBRANCH   2  36
TORSDOF 8
ENDMDL
MODEL 6
REMARK VINA RESULT:      -8.0      5.156      7.818
REMARK  8 active torsions:
REMARK  status: ('A' for Active; 'I' for Inactive)
REMARK    1  A    between atoms: C_2  and  O_3 
REMARK    2  A    between atoms: O_3  and  C_4 
REMARK    3  A    between atoms: C_4  and  C_5 
REMARK    4  A    between atoms: C_6  and  C_8 
REMARK    5  A    between atoms: C_6  and  O_7 
REMARK    6  A    between atoms: C_16  and  C_17 
REMARK    7  A    between atoms: C_18  and  C_19 
REMARK    8  A    between atoms: N_26  and  C_27 
ROOT
HETATM    1  C   UNL     1      40.452 -13.017  -1.648  1.00  0.00     0.177 C 
HETATM    2  C   UNL     1      39.575 -12.740  -2.896  1.00  0.00     0.250 C 
HETATM    3  N   UNL     1      39.771 -13.805  -3.856  1.00  0.00    -0.303 N 
HETATM    4  C   UNL     1      39.801 -15.115  -3.492  1.00  0.00     0.319 C 
HETATM    5  O   UNL     1      39.659 -16.007  -4.314  1.00  0.00    -0.247 OA
HETATM    6  N   UNL     1      40.048 -15.376  -2.182  1.00  0.00    -0.333 N 
HETATM    7  C   UNL     1      40.046 -14.392  -1.115  1.00  0.00     0.142 C 
HETATM    8  H   UNL     1      39.487 -13.640  -4.814  1.00  0.00     0.167 HD
HETATM    9  H   UNL     1      40.008 -16.365  -1.956  1.00  0.00     0.165 HD
ENDROOT
BRANCH   7  10
HETATM   10  C   UNL     1      40.743 -14.919   0.113  1.00  0.00     0.015 A 
HETATM   11  C   UNL     1      40.861 -14.288   1.397  1.00  0.00     0.097 A 
HETATM   12  N   UNL     1      41.530 -15.059   2.261  1.00  0.00    -0.167 NA
HETATM   13  N   UNL     1      41.891 -16.162   1.574  1.00  0.00    -0.244 N 
HETATM   14  C   UNL     1      41.476 -16.083   0.262  1.00  0.00     0.130 A 
BRANCH  11  15
HETATM   15  C   UNL     1      40.345 -12.992   1.838  1.00  0.00    -0.005 A 
HETATM   16  C   UNL     1      38.993 -12.865   2.184  1.00  0.00     0.014 A 
HETATM   17  C   UNL     1      38.479 -11.633   2.596  1.00  0.00     0.001 A 
HETATM   18  C   UNL     1      39.313 -10.519   2.667  1.00  0.00     0.000 A 
HETATM   19  C   UNL     1      40.662 -10.638   2.340  1.00  0.00     0.001 A 
HETATM   20  C   UNL     1      41.179 -11.871   1.935  1.00  0.00     0.014 A 
ENDBRANCH  11  15
BRANCH  13  21
HETATM   21  C   UNL     1      42.605 -17.216   2.210  1.00  0.00     0.058 A 
HETATM   22  C   UNL     1      43.392 -18.080   1.432  1.00  0.00     0.031 A 
HETATM   23  C   UNL     1      44.108 -19.117   2.032  1.00  0.00     0.002 A 
HETATM   24  C   UNL     1      44.047 -19.298   3.411  1.00  0.00     0.000 A 
HETATM   25  C   UNL     1      43.270 -18.444   4.193  1.00  0.00     0.002 A 
HETATM   26  C   UNL     1      42.548 -17.405   3.599  1.00  0.00     0.031 A 
ENDBRANCH  13  21
ENDBRANCH   7  10
BRANCH   1  27
HETATM   27  C   UNL     1      41.906 -12.869  -2.057  1.00  0.00     0.270 C 
HETATM   28  O   UNL     1      42.390 -13.567  -2.945  1.00  0.00    -0.265 OA
BRANCH  27  29
HETATM   29  O   UNL     1      42.613 -11.966  -1.341  1.00  0.00    -0.321 OA
BRANCH  29  30
HETATM   30  C   UNL     1      43.000 -10.761  -2.022  1.00  0.00     0.174 C 
HETATM   31  C   UNL     1      43.749  -9.837  -1.080  1.00  0.00     0.034 C 
ENDBRANCH  29  30
ENDBRANCH  27  29
ENDBRANCH   1  27
BRANCH   2  32
HETATM   32  C   UNL     1      38.053 -12.581  -2.494  1.00  0.00     0.439 C 
HETATM   33  F   UNL     1      37.352 -13.698  -2.809  1.00  0.00    -0.166 F 
HETATM   34  F   UNL     1      37.908 -12.366  -1.165  1.00  0.00    -0.166 F 
HETATM   35  F   UNL     1      37.445 -11.547  -3.117  1.00  0.00    -0.166 F 
ENDBRANCH   2  32
BRANCH   2  36
HETATM   36  O   UNL     1      39.953 -11.540  -3.588  1.00  0.00    -0.363 OA
HETATM   37  H   UNL     1      40.755 -11.162  -3.177  1.00  0.00     0.213 HD
ENDBRANCH   2  36
TORSDOF 8
ENDMDL
MODEL 7
REMARK VINA RESULT:      -8.0      2.832      6.262
REMARK  8 active torsions:
REMARK  status: ('A' for Active; 'I' for Inactive)
REMARK    1  A    between atoms: C_2  and  O_3 
REMARK    2  A    between atoms: O_3  and  C_4 
REMARK    3  A    between atoms: C_4  and  C_5 
REMARK    4  A    between atoms: C_6  and  C_8 
REMARK    5  A    between atoms: C_6  and  O_7 
REMARK    6  A    between atoms: C_16  and  C_17 
REMARK    7  A    between atoms: C_18  and  C_19 
REMARK    8  A    between atoms: N_26  and  C_27 
ROOT
HETATM    1  C   UNL     1      41.568 -14.015   3.481  1.00  0.00     0.177 C 
HETATM    2  C   UNL     1      40.328 -13.087   3.452  1.00  0.00     0.250 C 
HETATM    3  N   UNL     1      39.402 -13.569   2.450  1.00  0.00    -0.303 N 
HETATM    4  C   UNL     1      39.098 -14.888   2.316  1.00  0.00     0.319 C 
HETATM    5  O   UNL     1      38.111 -15.254   1.696  1.00  0.00    -0.247 OA
HETATM    6  N   UNL     1      39.974 -15.772   2.862  1.00  0.00    -0.333 N 
HETATM    7  C   UNL     1      41.059 -15.430   3.762  1.00  0.00     0.142 C 
HETATM    8  H   UNL     1      38.682 -12.936   2.123  1.00  0.00     0.167 HD
HETATM    9  H   UNL     1      39.672 -16.737   2.778  1.00  0.00     0.165 HD
ENDROOT
BRANCH   7  10
HETATM   10  C   UNL     1      42.065 -16.549   3.852  1.00  0.00     0.015 A 
HETATM   11  C   UNL     1      43.216 -16.631   4.705  1.00  0.00     0.097 A 
HETATM   12  N   UNL     1      43.872 -17.784   4.531  1.00  0.00    -0.167 NA
HETATM   13  N   UNL     1      43.210 -18.447   3.561  1.00  0.00    -0.244 N 
HETATM   14  C   UNL     1      42.147 -17.705   3.094  1.00  0.00     0.130 A 
BRANCH  11  15
HETATM   15  C   UNL     1      43.703 -15.668   5.692  1.00  0.00    -0.005 A 
HETATM   16  C   UNL     1      43.570 -15.946   7.059  1.00  0.00     0.014 A 
HETATM   17  C   UNL     1      44.017 -15.033   8.016  1.00  0.00     0.001 A 
HETATM   18  C   UNL     1      44.604 -13.835   7.615  1.00  0.00     0.000 A 
HETATM   19  C   UNL     1      44.756 -13.555   6.258  1.00  0.00     0.001 A 
HETATM   20  C   UNL     1      44.315 -14.470   5.299  1.00  0.00     0.014 A 
ENDBRANCH  11  15
BRANCH  13  21
HETATM   21  C   UNL     1      43.632 -19.740   3.143  1.00  0.00     0.058 A 
HETATM   22  C   UNL     1      44.433 -20.512   4.000  1.00  0.00     0.031 A 
HETATM   23  C   UNL     1      44.855 -21.787   3.616  1.00  0.00     0.002 A 
HETATM   24  C   UNL     1      44.480 -22.301   2.377  1.00  0.00     0.000 A 
HETATM   25  C   UNL     1      43.683 -21.542   1.520  1.00  0.00     0.002 A 
HETATM   26  C   UNL     1      43.259 -20.265   1.896  1.00  0.00     0.031 A 
ENDBRANCH  13  21
ENDBRANCH   7  10
BRANCH   1  27
HETATM   27  C   UNL     1      42.322 -13.830   2.176  1.00  0.00     0.270 C 
HETATM   28  O   UNL     1      42.972 -12.811   1.958  1.00  0.00    -0.265 OA
BRANCH  27  29
HETATM   29  O   UNL     1      42.175 -14.834   1.283  1.00  0.00    -0.321 OA
BRANCH  29  30
HETATM   30  C   UNL     1      41.818 -14.460  -0.058  1.00  0.00     0.174 C 
HETATM   31  C   UNL     1      41.093 -15.599  -0.751  1.00  0.00     0.034 C 
ENDBRANCH  29  30
ENDBRANCH  27  29
ENDBRANCH   1  27
BRANCH   2  32
HETATM   32  C   UNL     1      39.656 -12.995   4.880  1.00  0.00     0.439 C 
HETATM   33  F   UNL     1      40.562 -12.618   5.817  1.00  0.00    -0.166 F 
HETATM   34  F   UNL     1      38.646 -12.092   4.900  1.00  0.00    -0.166 F 
HETATM   35  F   UNL     1      39.128 -14.168   5.295  1.00  0.00    -0.166 F 
ENDBRANCH   2  32
BRANCH   2  36
HETATM   36  O   UNL     1      40.644 -11.745   3.050  1.00  0.00    -0.363 OA
HETATM   37  H   UNL     1      39.844 -11.188   3.105  1.00  0.00     0.213 HD
ENDBRANCH   2  36
TORSDOF 8
ENDMDL
MODEL 8
REMARK VINA RESULT:      -7.9      3.030      6.239
REMARK  8 active torsions:
REMARK  status: ('A' for Active; 'I' for Inactive)
REMARK    1  A    between atoms: C_2  and  O_3 
REMARK    2  A    between atoms: O_3  and  C_4 
REMARK    3  A    between atoms: C_4  and  C_5 
REMARK    4  A    between atoms: C_6  and  C_8 
REMARK    5  A    between atoms: C_6  and  O_7 
REMARK    6  A    between atoms: C_16  and  C_17 
REMARK    7  A    between atoms: C_18  and  C_19 
REMARK    8  A    between atoms: N_26  and  C_27 
ROOT
HETATM    1  C   UNL     1      42.232 -12.443   4.672  1.00  0.00     0.177 C 
HETATM    2  C   UNL     1      41.221 -11.269   4.707  1.00  0.00     0.250 C 
HETATM    3  N   UNL     1      39.879 -11.806   4.787  1.00  0.00    -0.303 N 
HETATM    4  C   UNL     1      39.554 -12.829   5.621  1.00  0.00     0.319 C 
HETATM    5  O   UNL     1      38.392 -13.070   5.910  1.00  0.00    -0.247 OA
HETATM    6  N   UNL     1      40.582 -13.596   6.071  1.00  0.00    -0.333 N 
HETATM    7  C   UNL     1      41.990 -13.277   5.932  1.00  0.00     0.142 C 
HETATM    8  H   UNL     1      39.107 -11.194   4.550  1.00  0.00     0.167 HD
HETATM    9  H   UNL     1      40.289 -14.311   6.729  1.00  0.00     0.165 HD
ENDROOT
BRANCH   7  10
HETATM   10  C   UNL     1      42.850 -14.494   6.161  1.00  0.00     0.015 A 
HETATM   11  C   UNL     1      44.088 -14.573   6.882  1.00  0.00     0.097 A 
HETATM   12  N   UNL     1      44.562 -15.824   6.902  1.00  0.00    -0.167 NA
HETATM   13  N   UNL     1      43.694 -16.563   6.182  1.00  0.00    -0.244 N 
HETATM   14  C   UNL     1      42.679 -15.779   5.677  1.00  0.00     0.130 A 
BRANCH  11  15
HETATM   15  C   UNL     1      44.824 -13.513   7.571  1.00  0.00    -0.005 A 
HETATM   16  C   UNL     1      46.097 -13.143   7.115  1.00  0.00     0.014 A 
HETATM   17  C   UNL     1      46.821 -12.143   7.767  1.00  0.00     0.001 A 
HETATM   18  C   UNL     1      46.277 -11.501   8.878  1.00  0.00     0.000 A 
HETATM   19  C   UNL     1      45.006 -11.850   9.330  1.00  0.00     0.001 A 
HETATM   20  C   UNL     1      44.278 -12.846   8.675  1.00  0.00     0.014 A 
ENDBRANCH  11  15
BRANCH  13  21
HETATM   21  C   UNL     1      43.889 -17.964   6.020  1.00  0.00     0.058 A 
HETATM   22  C   UNL     1      43.642 -18.821   7.104  1.00  0.00     0.031 A 
HETATM   23  C   UNL     1      43.818 -20.200   6.970  1.00  0.00     0.002 A 
HETATM   24  C   UNL     1      44.238 -20.733   5.754  1.00  0.00     0.000 A 
HETATM   25  C   UNL     1      44.484 -19.889   4.671  1.00  0.00     0.002 A 
HETATM   26  C   UNL     1      44.312 -18.508   4.798  1.00  0.00     0.031 A 
ENDBRANCH  13  21
ENDBRANCH   7  10
BRANCH   1  27
HETATM   27  C   UNL     1      42.058 -13.172   3.352  1.00  0.00     0.270 C 
HETATM   28  O   UNL     1      42.828 -12.980   2.415  1.00  0.00    -0.265 OA
BRANCH  27  29
HETATM   29  O   UNL     1      40.980 -13.986   3.286  1.00  0.00    -0.321 OA
BRANCH  29  30
HETATM   30  C   UNL     1      40.883 -14.836   2.131  1.00  0.00     0.174 C 
HETATM   31  C   UNL     1      40.649 -16.275   2.553  1.00  0.00     0.034 C 
ENDBRANCH  29  30
ENDBRANCH  27  29
ENDBRANCH   1  27
BRANCH   2  32
HETATM   32  C   UNL     1      41.535 -10.286   5.906  1.00  0.00     0.439 C 
HETATM   33  F   UNL     1      42.092  -9.135   5.453  1.00  0.00    -0.166 F 
HETATM   34  F   UNL     1      40.412  -9.958   6.589  1.00  0.00    -0.166 F 
HETATM   35  F   UNL     1      42.393 -10.809   6.809  1.00  0.00    -0.166 F 
ENDBRANCH   2  32
BRANCH   2  36
HETATM   36  O   UNL     1      41.236 -10.483   3.506  1.00  0.00    -0.363 OA
HETATM   37  H   UNL     1      41.392  -9.544   3.728  1.00  0.00     0.213 HD
ENDBRANCH   2  36
TORSDOF 8
ENDMDL
MODEL 9
REMARK VINA RESULT:      -7.9      3.574      6.228
REMARK  8 active torsions:
REMARK  status: ('A' for Active; 'I' for Inactive)
REMARK    1  A    between atoms: C_2  and  O_3 
REMARK    2  A    between atoms: O_3  and  C_4 
REMARK    3  A    between atoms: C_4  and  C_5 
REMARK    4  A    between atoms: C_6  and  C_8 
REMARK    5  A    between atoms: C_6  and  O_7 
REMARK    6  A    between atoms: C_16  and  C_17 
REMARK    7  A    between atoms: C_18  and  C_19 
REMARK    8  A    between atoms: N_26  and  C_27 
ROOT
HETATM    1  C   UNL     1      40.355 -15.028   0.125  1.00  0.00     0.177 C 
HETATM    2  C   UNL     1      40.180 -13.930  -0.955  1.00  0.00     0.250 C 
HETATM    3  N   UNL     1      40.777 -12.701  -0.476  1.00  0.00    -0.303 N 
HETATM    4  C   UNL     1      41.990 -12.673   0.136  1.00  0.00     0.319 C 
HETATM    5  O   UNL     1      42.618 -11.632   0.258  1.00  0.00    -0.247 OA
HETATM    6  N   UNL     1      42.440 -13.848   0.649  1.00  0.00    -0.333 N 
HETATM    7  C   UNL     1      41.856 -15.152   0.395  1.00  0.00     0.142 C 
HETATM    8  H   UNL     1      40.517 -11.836  -0.935  1.00  0.00     0.167 HD
HETATM    9  H   UNL     1      43.370 -13.781   1.049  1.00  0.00     0.165 HD
ENDROOT
BRANCH   7  10
HETATM   10  C   UNL     1      42.320 -16.165   1.411  1.00  0.00     0.015 A 
HETATM   11  C   UNL     1      42.345 -16.030   2.839  1.00  0.00     0.097 A 
HETATM   12  N   UNL     1      42.800 -17.143   3.427  1.00  0.00    -0.167 NA
HETATM   13  N   UNL     1      43.112 -17.992   2.427  1.00  0.00    -0.244 N 
HETATM   14  C   UNL     1      42.883 -17.411   1.198  1.00  0.00     0.130 A 
BRANCH  11  15
HETATM   15  C   UNL     1      41.935 -14.896   3.666  1.00  0.00    -0.005 A 
HETATM   16  C   UNL     1      40.812 -15.012   4.497  1.00  0.00     0.014 A 
HETATM   17  C   UNL     1      40.397 -13.935   5.284  1.00  0.00     0.001 A 
HETATM   18  C   UNL     1      41.102 -12.734   5.249  1.00  0.00     0.000 A 
HETATM   19  C   UNL     1      42.229 -12.613   4.439  1.00  0.00     0.001 A 
HETATM   20  C   UNL     1      42.649 -13.691   3.656  1.00  0.00     0.014 A 
ENDBRANCH  11  15
BRANCH  13  21
HETATM   21  C   UNL     1      43.607 -19.297   2.706  1.00  0.00     0.058 A 
HETATM   22  C   UNL     1      44.267 -19.536   3.921  1.00  0.00     0.031 A 
HETATM   23  C   UNL     1      44.756 -20.808   4.222  1.00  0.00     0.002 A 
HETATM   24  C   UNL     1      44.588 -21.851   3.315  1.00  0.00     0.000 A 
HETATM   25  C   UNL     1      43.931 -21.624   2.106  1.00  0.00     0.002 A 
HETATM   26  C   UNL     1      43.441 -20.352   1.796  1.00  0.00     0.031 A 
ENDBRANCH  13  21
ENDBRANCH   7  10
BRANCH   1  27
HETATM   27  C   UNL     1      39.497 -14.652   1.319  1.00  0.00     0.270 C 
HETATM   28  O   UNL     1      38.718 -15.460   1.821  1.00  0.00    -0.265 OA
BRANCH  27  29
HETATM   29  O   UNL     1      39.624 -13.372   1.735  1.00  0.00    -0.321 OA
BRANCH  29  30
HETATM   30  C   UNL     1      38.429 -12.719   2.195  1.00  0.00     0.174 C 
HETATM   31  C   UNL     1      38.754 -11.338   2.733  1.00  0.00     0.034 C 
ENDBRANCH  29  30
ENDBRANCH  27  29
ENDBRANCH   1  27
BRANCH   2  32
HETATM   32  C   UNL     1      40.799 -14.389  -2.335  1.00  0.00     0.439 C 
HETATM   33  F   UNL     1      40.928 -15.738  -2.382  1.00  0.00    -0.166 F 
HETATM   34  F   UNL     1      40.023 -14.014  -3.380  1.00  0.00    -0.166 F 
HETATM   35  F   UNL     1      42.026 -13.870  -2.565  1.00  0.00    -0.166 F 
ENDBRANCH   2  32
BRANCH   2  36
HETATM   36  O   UNL     1      38.804 -13.604  -1.200  1.00  0.00    -0.363 OA
HETATM   37  H   UNL     1      38.236 -14.059  -0.547  1.00  0.00     0.213 HD
ENDBRANCH   2  36
TORSDOF 8
ENDMDL
MODEL 10
REMARK VINA RESULT:      -7.4      3.050      6.098
REMARK  8 active torsions:
REMARK  status: ('A' for Active; 'I' for Inactive)
REMARK    1  A    between atoms: C_2  and  O_3 
REMARK    2  A    between atoms: O_3  and  C_4 
REMARK    3  A    between atoms: C_4  and  C_5 
REMARK    4  A    between atoms: C_6  and  C_8 
REMARK    5  A    between atoms: C_6  and  O_7 
REMARK    6  A    between atoms: C_16  and  C_17 
REMARK    7  A    between atoms: C_18  and  C_19 
REMARK    8  A    between atoms: N_26  and  C_27 
ROOT
HETATM    1  C   UNL     1      42.218 -14.983   2.789  1.00  0.00     0.177 C 
HETATM    2  C   UNL     1      42.535 -16.432   2.339  1.00  0.00     0.250 C 
HETATM    3  N   UNL     1      42.438 -17.313   3.484  1.00  0.00    -0.303 N 
HETATM    4  C   UNL     1      41.417 -17.231   4.378  1.00  0.00     0.319 C 
HETATM    5  O   UNL     1      41.171 -18.147   5.149  1.00  0.00    -0.247 OA
HETATM    6  N   UNL     1      40.722 -16.064   4.403  1.00  0.00    -0.333 N 
HETATM    7  C   UNL     1      40.822 -15.006   3.415  1.00  0.00     0.142 C 
HETATM    8  H   UNL     1      42.869 -18.227   3.419  1.00  0.00     0.167 HD
HETATM    9  H   UNL     1      39.941 -16.076   5.051  1.00  0.00     0.165 HD
ENDROOT
BRANCH   7  10
HETATM   10  C   UNL     1      40.251 -13.714   3.939  1.00  0.00     0.015 A 
HETATM   11  C   UNL     1      39.470 -12.744   3.227  1.00  0.00     0.097 A 
HETATM   12  N   UNL     1      39.113 -11.727   4.019  1.00  0.00    -0.167 NA
HETATM   13  N   UNL     1      39.668 -11.978   5.222  1.00  0.00    -0.244 N 
HETATM   14  C   UNL     1      40.405 -13.143   5.190  1.00  0.00     0.130 A 
BRANCH  11  15
HETATM   15  C   UNL     1      39.033 -12.757   1.831  1.00  0.00    -0.005 A 
HETATM   16  C   UNL     1      38.144 -13.747   1.391  1.00  0.00     0.014 A 
HETATM   17  C   UNL     1      37.725 -13.784   0.059  1.00  0.00     0.001 A 
HETATM   18  C   UNL     1      38.190 -12.829  -0.844  1.00  0.00     0.000 A 
HETATM   19  C   UNL     1      39.061 -11.831  -0.414  1.00  0.00     0.001 A 
HETATM   20  C   UNL     1      39.476 -11.789   0.920  1.00  0.00     0.014 A 
ENDBRANCH  11  15
BRANCH  13  21
HETATM   21  C   UNL     1      39.463 -11.095   6.319  1.00  0.00     0.058 A 
HETATM   22  C   UNL     1      39.258  -9.728   6.071  1.00  0.00     0.031 A 
HETATM   23  C   UNL     1      39.047  -8.842   7.129  1.00  0.00     0.002 A 
HETATM   24  C   UNL     1      39.037  -9.313   8.440  1.00  0.00     0.000 A 
HETATM   25  C   UNL     1      39.238 -10.668   8.695  1.00  0.00     0.002 A 
HETATM   26  C   UNL     1      39.451 -11.561   7.641  1.00  0.00     0.031 A 
ENDBRANCH  13  21
ENDBRANCH   7  10
BRANCH   1  27
HETATM   27  C   UNL     1      43.343 -14.519   3.696  1.00  0.00     0.270 C 
HETATM   28  O   UNL     1      44.189 -13.721   3.300  1.00  0.00    -0.265 OA
BRANCH  27  29
HETATM   29  O   UNL     1      43.358 -15.084   4.924  1.00  0.00    -0.321 OA
BRANCH  29  30
HETATM   30  C   UNL     1      43.800 -14.256   6.013  1.00  0.00     0.174 C 
HETATM   31  C   UNL     1      44.310 -15.112   7.157  1.00  0.00     0.034 C 
ENDBRANCH  29  30
ENDBRANCH  27  29
ENDBRANCH   1  27
BRANCH   2  32
HETATM   32  C   UNL     1      41.576 -16.883   1.165  1.00  0.00     0.439 C 
HETATM   33  F   UNL     1      42.173 -16.707  -0.040  1.00  0.00    -0.166 F 
HETATM   34  F   UNL     1      41.240 -18.192   1.270  1.00  0.00    -0.166 F 
HETATM   35  F   UNL     1      40.415 -16.192   1.133  1.00  0.00    -0.166 F 
ENDBRANCH   2  32
BRANCH   2  36
HETATM   36  O   UNL     1      43.881 -16.587   1.864  1.00  0.00    -0.363 OA
HETATM   37  H   UNL     1      44.253 -17.428   2.197  1.00  0.00     0.213 HD
ENDBRANCH   2  36
TORSDOF 8
ENDMDL
