MODEL 1
REMARK VINA RESULT:      -9.3      0.000      0.000
REMARK  2 active torsions:
REMARK  status: ('A' for Active; 'I' for Inactive)
REMARK    1  A    between atoms: C_4  and  C_5 
REMARK       I    between atoms: N_12  and  C_13 
REMARK    2  A    between atoms: C_13  and  C_14 
ROOT
HETATM    1  C   UNL     1      43.942 -19.230   5.356  1.00  0.00     0.070 A 
HETATM    2  N   UNL     1      44.108 -19.808   6.592  1.00  0.00    -0.277 N 
HETATM    3  H   UNL     1      44.288 -20.785   6.796  1.00  0.00     0.189 HD
HETATM    4  N   UNL     1      44.038 -18.945   7.623  1.00  0.00    -0.178 NA
HETATM    5  C   UNL     1      43.815 -17.775   7.024  1.00  0.00     0.066 A 
HETATM    6  C   UNL     1      43.748 -17.885   5.617  1.00  0.00     0.015 A 
HETATM    7  C   UNL     1      43.503 -16.736   4.706  1.00  0.00     0.169 C 
HETATM    8  N   UNL     1      43.205 -15.515   5.481  1.00  0.00    -0.343 N 
HETATM    9  C   UNL     1      42.346 -14.507   5.052  1.00  0.00     0.254 C 
HETATM   10  O   UNL     1      42.027 -13.542   5.741  1.00  0.00    -0.267 OA
HETATM   11  C   UNL     1      43.915 -15.336   6.762  1.00  0.00     0.132 C 
HETATM   12  C   UNL     1      43.641 -16.489   7.742  1.00  0.00     0.081 C 
ENDROOT
BRANCH   9  13
HETATM   13  C   UNL     1      41.762 -14.589   3.695  1.00  0.00     0.035 A 
HETATM   14  C   UNL     1      42.305 -13.847   2.639  1.00  0.00     0.056 A 
HETATM   15  C   UNL     1      41.713 -13.989   1.402  1.00  0.00     0.106 A 
HETATM   16  C   UNL     1      40.618 -14.800   1.206  1.00  0.00     0.105 A 
HETATM   17  O   UNL     1      42.115 -13.374   0.257  1.00  0.00    -0.323 OA
HETATM   18  O   UNL     1      40.197 -14.797  -0.087  1.00  0.00    -0.323 OA
HETATM   19  C   UNL     1      40.044 -15.513   2.238  1.00  0.00     0.041 A 
HETATM   20  C   UNL     1      41.153 -13.897  -0.684  1.00  0.00     0.352 A 
HETATM   21  C   UNL     1      40.625 -15.402   3.503  1.00  0.00     0.020 A 
ENDBRANCH   9  13
BRANCH   1  22
HETATM   22  C   UNL     1      43.994 -19.982   4.109  1.00  0.00    -0.007 A 
HETATM   23  C   UNL     1      44.575 -21.257   4.068  1.00  0.00     0.014 A 
HETATM   24  C   UNL     1      44.617 -21.978   2.872  1.00  0.00     0.001 A 
HETATM   25  C   UNL     1      44.080 -21.432   1.708  1.00  0.00     0.000 A 
HETATM   26  C   UNL     1      43.502 -20.165   1.737  1.00  0.00     0.001 A 
HETATM   27  C   UNL     1      43.459 -19.444   2.932  1.00  0.00     0.014 A 
ENDBRANCH   1  22
TORSDOF 2
ENDMDL
MODEL 2
REMARK VINA RESULT:      -8.7      3.033      6.028
REMARK  2 active torsions:
REMARK  status: ('A' for Active; 'I' for Inactive)
REMARK    1  A    between atoms: C_4  and  C_5 
REMARK       I    between atoms: N_12  and  C_13 
REMARK    2  A    between atoms: C_13  and  C_14 
ROOT
HETATM    1  C   UNL     1      42.976 -14.955   3.509  1.00  0.00     0.070 A 
HETATM    2  N   UNL     1      43.279 -13.648   3.811  1.00  0.00    -0.277 N 
HETATM    3  H   UNL     1      43.186 -12.839   3.208  1.00  0.00     0.189 HD
HETATM    4  N   UNL     1      43.728 -13.459   5.066  1.00  0.00    -0.178 NA
HETATM    5  C   UNL     1      43.715 -14.688   5.581  1.00  0.00     0.066 A 
HETATM    6  C   UNL     1      43.255 -15.660   4.665  1.00  0.00     0.015 A 
HETATM    7  C   UNL     1      43.147 -17.110   4.979  1.00  0.00     0.169 C 
HETATM    8  N   UNL     1      43.714 -17.395   6.312  1.00  0.00    -0.343 N 
HETATM    9  C   UNL     1      44.354 -18.583   6.652  1.00  0.00     0.254 C 
HETATM   10  O   UNL     1      44.907 -18.777   7.731  1.00  0.00    -0.267 OA
HETATM   11  C   UNL     1      43.529 -16.371   7.359  1.00  0.00     0.132 C 
HETATM   12  C   UNL     1      44.145 -15.019   6.962  1.00  0.00     0.081 C 
ENDROOT
BRANCH   9  13
HETATM   13  C   UNL     1      44.394 -19.686   5.666  1.00  0.00     0.035 A 
HETATM   14  C   UNL     1      44.352 -19.415   4.292  1.00  0.00     0.056 A 
HETATM   15  C   UNL     1      44.408 -20.495   3.438  1.00  0.00     0.106 A 
HETATM   16  C   UNL     1      44.473 -21.790   3.902  1.00  0.00     0.105 A 
HETATM   17  O   UNL     1      44.408 -20.430   2.079  1.00  0.00    -0.323 OA
HETATM   18  O   UNL     1      44.522 -22.699   2.892  1.00  0.00    -0.323 OA
HETATM   19  C   UNL     1      44.479 -22.083   5.250  1.00  0.00     0.041 A 
HETATM   20  C   UNL     1      44.488 -21.832   1.740  1.00  0.00     0.352 A 
HETATM   21  C   UNL     1      44.434 -21.011   6.145  1.00  0.00     0.020 A 
ENDBRANCH   9  13
BRANCH   1  22
HETATM   22  C   UNL     1      42.464 -15.376   2.210  1.00  0.00    -0.007 A 
HETATM   23  C   UNL     1      42.590 -16.707   1.792  1.00  0.00     0.014 A 
HETATM   24  C   UNL     1      42.092 -17.109   0.549  1.00  0.00     0.001 A 
HETATM   25  C   UNL     1      41.465 -16.184  -0.284  1.00  0.00     0.000 A 
HETATM   26  C   UNL     1      41.337 -14.858   0.122  1.00  0.00     0.001 A 
HETATM   27  C   UNL     1      41.834 -14.456   1.364  1.00  0.00     0.014 A 
ENDBRANCH   1  22
TORSDOF 2
ENDMDL
MODEL 3
REMARK VINA RESULT:      -8.3      2.297      3.313
REMARK  2 active torsions:
REMARK  status: ('A' for Active; 'I' for Inactive)
REMARK    1  A    between atoms: C_4  and  C_5 
REMARK       I    between atoms: N_12  and  C_13 
REMARK    2  A    between atoms: C_13  and  C_14 
ROOT
HETATM    1  C   UNL     1      41.800 -17.103   4.619  1.00  0.00     0.070 A 
HETATM    2  N   UNL     1      41.231 -17.493   5.808  1.00  0.00    -0.277 N 
HETATM    3  H   UNL     1      41.293 -18.402   6.252  1.00  0.00     0.189 HD
HETATM    4  N   UNL     1      40.537 -16.524   6.435  1.00  0.00    -0.178 NA
HETATM    5  C   UNL     1      40.665 -15.481   5.615  1.00  0.00     0.066 A 
HETATM    6  C   UNL     1      41.440 -15.776   4.472  1.00  0.00     0.015 A 
HETATM    7  C   UNL     1      41.734 -14.795   3.393  1.00  0.00     0.169 C 
HETATM    8  N   UNL     1      40.992 -13.538   3.621  1.00  0.00    -0.343 N 
HETATM    9  C   UNL     1      40.512 -12.719   2.603  1.00  0.00     0.254 C 
HETATM   10  O   UNL     1      39.815 -11.727   2.796  1.00  0.00    -0.267 OA
HETATM   11  C   UNL     1      40.809 -13.104   5.019  1.00  0.00     0.132 C 
HETATM   12  C   UNL     1      40.055 -14.150   5.857  1.00  0.00     0.081 C 
ENDROOT
BRANCH   9  13
HETATM   13  C   UNL     1      40.839 -13.051   1.198  1.00  0.00     0.035 A 
HETATM   14  C   UNL     1      41.812 -12.324   0.502  1.00  0.00     0.056 A 
HETATM   15  C   UNL     1      42.069 -12.703  -0.798  1.00  0.00     0.106 A 
HETATM   16  C   UNL     1      41.386 -13.732  -1.406  1.00  0.00     0.105 A 
HETATM   17  O   UNL     1      42.994 -12.138  -1.620  1.00  0.00    -0.323 OA
HETATM   18  O   UNL     1      41.797 -13.941  -2.685  1.00  0.00    -0.323 OA
HETATM   19  C   UNL     1      40.398 -14.440  -0.752  1.00  0.00     0.041 A 
HETATM   20  C   UNL     1      42.820 -12.933  -2.812  1.00  0.00     0.352 A 
HETATM   21  C   UNL     1      40.119 -14.089   0.571  1.00  0.00     0.020 A 
ENDBRANCH   9  13
BRANCH   1  22
HETATM   22  C   UNL     1      42.602 -17.993   3.788  1.00  0.00    -0.007 A 
HETATM   23  C   UNL     1      42.417 -18.031   2.399  1.00  0.00     0.014 A 
HETATM   24  C   UNL     1      43.193 -18.880   1.605  1.00  0.00     0.001 A 
HETATM   25  C   UNL     1      44.157 -19.698   2.191  1.00  0.00     0.000 A 
HETATM   26  C   UNL     1      44.347 -19.669   3.571  1.00  0.00     0.001 A 
HETATM   27  C   UNL     1      43.573 -18.820   4.366  1.00  0.00     0.014 A 
ENDBRANCH   1  22
TORSDOF 2
ENDMDL
MODEL 4
REMARK VINA RESULT:      -8.2      2.536      5.196
REMARK  2 active torsions:
REMARK  status: ('A' for Active; 'I' for Inactive)
REMARK    1  A    between atoms: C_4  and  C_5 
REMARK       I    between atoms: N_12  and  C_13 
REMARK    2  A    between atoms: C_13  and  C_14 
ROOT
HETATM    1  C   UNL     1      42.985 -18.379   4.185  1.00  0.00     0.070 A 
HETATM    2  N   UNL     1      43.500 -19.235   3.241  1.00  0.00    -0.277 N 
HETATM    3  H   UNL     1      44.174 -19.978   3.386  1.00  0.00     0.189 HD
HETATM    4  N   UNL     1      43.015 -19.048   1.999  1.00  0.00    -0.178 NA
HETATM    5  C   UNL     1      42.164 -18.034   2.156  1.00  0.00     0.066 A 
HETATM    6  C   UNL     1      42.098 -17.577   3.490  1.00  0.00     0.015 A 
HETATM    7  C   UNL     1      41.234 -16.453   3.940  1.00  0.00     0.169 C 
HETATM    8  N   UNL     1      40.577 -15.810   2.785  1.00  0.00    -0.343 N 
HETATM    9  C   UNL     1      40.267 -14.455   2.717  1.00  0.00     0.254 C 
HETATM   10  O   UNL     1      39.809 -13.908   1.717  1.00  0.00    -0.267 OA
HETATM   11  C   UNL     1      40.176 -16.681   1.663  1.00  0.00     0.132 C 
HETATM   12  C   UNL     1      41.372 -17.432   1.055  1.00  0.00     0.081 C 
ENDROOT
BRANCH   9  13
HETATM   13  C   UNL     1      40.506 -13.602   3.902  1.00  0.00     0.035 A 
HETATM   14  C   UNL     1      39.488 -13.383   4.839  1.00  0.00     0.056 A 
HETATM   15  C   UNL     1      39.793 -12.589   5.923  1.00  0.00     0.106 A 
HETATM   16  C   UNL     1      41.032 -12.006   6.075  1.00  0.00     0.105 A 
HETATM   17  O   UNL     1      38.949 -12.287   6.947  1.00  0.00    -0.323 OA
HETATM   18  O   UNL     1      41.119 -11.267   7.213  1.00  0.00    -0.323 OA
HETATM   19  C   UNL     1      42.038 -12.178   5.147  1.00  0.00     0.041 A 
HETATM   20  C   UNL     1      39.800 -11.454   7.764  1.00  0.00     0.352 A 
HETATM   21  C   UNL     1      41.767 -12.986   4.041  1.00  0.00     0.020 A 
ENDBRANCH   9  13
BRANCH   1  22
HETATM   22  C   UNL     1      43.366 -18.418   5.592  1.00  0.00    -0.007 A 
HETATM   23  C   UNL     1      43.546 -17.233   6.316  1.00  0.00     0.014 A 
HETATM   24  C   UNL     1      43.905 -17.275   7.666  1.00  0.00     0.001 A 
HETATM   25  C   UNL     1      44.086 -18.501   8.303  1.00  0.00     0.000 A 
HETATM   26  C   UNL     1      43.911 -19.685   7.591  1.00  0.00     0.001 A 
HETATM   27  C   UNL     1      43.553 -19.644   6.242  1.00  0.00     0.014 A 
ENDBRANCH   1  22
TORSDOF 2
ENDMDL
MODEL 5
REMARK VINA RESULT:      -8.2      2.331      3.627
REMARK  2 active torsions:
REMARK  status: ('A' for Active; 'I' for Inactive)
REMARK    1  A    between atoms: C_4  and  C_5 
REMARK       I    between atoms: N_12  and  C_13 
REMARK    2  A    between atoms: C_13  and  C_14 
ROOT
HETATM    1  C   UNL     1      41.746 -16.950   4.502  1.00  0.00     0.070 A 
HETATM    2  N   UNL     1      41.116 -17.313   5.669  1.00  0.00    -0.277 N 
HETATM    3  H   UNL     1      41.143 -18.216   6.128  1.00  0.00     0.189 HD
HETATM    4  N   UNL     1      40.410 -16.324   6.249  1.00  0.00    -0.178 NA
HETATM    5  C   UNL     1      40.593 -15.295   5.421  1.00  0.00     0.066 A 
HETATM    6  C   UNL     1      41.415 -15.619   4.319  1.00  0.00     0.015 A 
HETATM    7  C   UNL     1      41.774 -14.659   3.241  1.00  0.00     0.169 C 
HETATM    8  N   UNL     1      41.043 -13.388   3.416  1.00  0.00    -0.343 N 
HETATM    9  C   UNL     1      40.624 -12.578   2.365  1.00  0.00     0.254 C 
HETATM   10  O   UNL     1      39.934 -11.572   2.512  1.00  0.00    -0.267 OA
HETATM   11  C   UNL     1      40.803 -12.930   4.798  1.00  0.00     0.132 C 
HETATM   12  C   UNL     1      39.994 -13.952   5.615  1.00  0.00     0.081 C 
ENDROOT
BRANCH   9  13
HETATM   13  C   UNL     1      41.009 -12.936   0.982  1.00  0.00     0.035 A 
HETATM   14  C   UNL     1      40.399 -14.015   0.329  1.00  0.00     0.056 A 
HETATM   15  C   UNL     1      40.802 -14.276  -0.963  1.00  0.00     0.106 A 
HETATM   16  C   UNL     1      41.781 -13.534  -1.585  1.00  0.00     0.105 A 
HETATM   17  O   UNL     1      40.308 -15.259  -1.763  1.00  0.00    -0.323 OA
HETATM   18  O   UNL     1      42.022 -13.959  -2.855  1.00  0.00    -0.323 OA
HETATM   19  C   UNL     1      42.420 -12.490  -0.951  1.00  0.00     0.041 A 
HETATM   20  C   UNL     1      41.081 -15.046  -2.963  1.00  0.00     0.352 A 
HETATM   21  C   UNL     1      42.029 -12.190   0.356  1.00  0.00     0.020 A 
ENDBRANCH   9  13
BRANCH   1  22
HETATM   22  C   UNL     1      42.571 -17.865   3.722  1.00  0.00    -0.007 A 
HETATM   23  C   UNL     1      42.445 -17.926   2.328  1.00  0.00     0.014 A 
HETATM   24  C   UNL     1      43.242 -18.799   1.582  1.00  0.00     0.001 A 
HETATM   25  C   UNL     1      44.170 -19.617   2.224  1.00  0.00     0.000 A 
HETATM   26  C   UNL     1      44.301 -19.565   3.609  1.00  0.00     0.001 A 
HETATM   27  C   UNL     1      43.505 -18.693   4.355  1.00  0.00     0.014 A 
ENDBRANCH   1  22
TORSDOF 2
ENDMDL
MODEL 6
REMARK VINA RESULT:      -8.0      2.934      5.636
REMARK  2 active torsions:
REMARK  status: ('A' for Active; 'I' for Inactive)
REMARK    1  A    between atoms: C_4  and  C_5 
REMARK       I    between atoms: N_12  and  C_13 
REMARK    2  A    between atoms: C_13  and  C_14 
ROOT
HETATM    1  C   UNL     1      42.507 -17.423   3.953  1.00  0.00     0.070 A 
HETATM    2  N   UNL     1      42.895 -18.157   2.858  1.00  0.00    -0.277 N 
HETATM    3  H   UNL     1      43.579 -18.904   2.827  1.00  0.00     0.189 HD
HETATM    4  N   UNL     1      42.257 -17.831   1.717  1.00  0.00    -0.178 NA
HETATM    5  C   UNL     1      41.436 -16.852   2.099  1.00  0.00     0.066 A 
HETATM    6  C   UNL     1      41.542 -16.555   3.476  1.00  0.00     0.015 A 
HETATM    7  C   UNL     1      40.746 -15.502   4.160  1.00  0.00     0.169 C 
HETATM    8  N   UNL     1      39.951 -14.735   3.181  1.00  0.00    -0.343 N 
HETATM    9  C   UNL     1      39.639 -13.385   3.313  1.00  0.00     0.254 C 
HETATM   10  O   UNL     1      39.060 -12.730   2.451  1.00  0.00    -0.267 OA
HETATM   11  C   UNL     1      39.407 -15.473   2.025  1.00  0.00     0.132 C 
HETATM   12  C   UNL     1      40.514 -16.133   1.186  1.00  0.00     0.081 C 
ENDROOT
BRANCH   9  13
HETATM   13  C   UNL     1      40.029 -12.674   4.551  1.00  0.00     0.035 A 
HETATM   14  C   UNL     1      39.180 -12.663   5.664  1.00  0.00     0.056 A 
HETATM   15  C   UNL     1      39.621 -11.992   6.784  1.00  0.00     0.106 A 
HETATM   16  C   UNL     1      40.830 -11.333   6.811  1.00  0.00     0.105 A 
HETATM   17  O   UNL     1      38.952 -11.894   7.965  1.00  0.00    -0.323 OA
HETATM   18  O   UNL     1      41.070 -10.741   8.011  1.00  0.00    -0.323 OA
HETATM   19  C   UNL     1      41.668 -11.300   5.715  1.00  0.00     0.041 A 
HETATM   20  C   UNL     1      39.880 -11.106   8.740  1.00  0.00     0.352 A 
HETATM   21  C   UNL     1      41.257 -11.980   4.566  1.00  0.00     0.020 A 
ENDBRANCH   9  13
BRANCH   1  22
HETATM   22  C   UNL     1      43.063 -17.623   5.286  1.00  0.00    -0.007 A 
HETATM   23  C   UNL     1      44.374 -18.091   5.450  1.00  0.00     0.014 A 
HETATM   24  C   UNL     1      44.906 -18.275   6.729  1.00  0.00     0.001 A 
HETATM   25  C   UNL     1      44.133 -17.995   7.853  1.00  0.00     0.000 A 
HETATM   26  C   UNL     1      42.828 -17.531   7.702  1.00  0.00     0.001 A 
HETATM   27  C   UNL     1      42.296 -17.346   6.424  1.00  0.00     0.014 A 
ENDBRANCH   1  22
TORSDOF 2
ENDMDL
MODEL 7
REMARK VINA RESULT:      -7.8      2.412      5.144
REMARK  2 active torsions:
REMARK  status: ('A' for Active; 'I' for Inactive)
REMARK    1  A    between atoms: C_4  and  C_5 
REMARK       I    between atoms: N_12  and  C_13 
REMARK    2  A    between atoms: C_13  and  C_14 
ROOT
HETATM    1  C   UNL     1      43.980 -19.107   4.183  1.00  0.00     0.070 A 
HETATM    2  N   UNL     1      44.469 -19.948   3.212  1.00  0.00    -0.277 N 
HETATM    3  H   UNL     1      44.850 -20.879   3.338  1.00  0.00     0.189 HD
HETATM    4  N   UNL     1      44.398 -19.452   1.962  1.00  0.00    -0.178 NA
HETATM    5  C   UNL     1      43.848 -18.252   2.143  1.00  0.00     0.066 A 
HETATM    6  C   UNL     1      43.562 -17.980   3.499  1.00  0.00     0.015 A 
HETATM    7  C   UNL     1      42.953 -16.711   3.980  1.00  0.00     0.169 C 
HETATM    8  N   UNL     1      42.826 -15.744   2.871  1.00  0.00    -0.343 N 
HETATM    9  C   UNL     1      42.928 -14.365   3.022  1.00  0.00     0.254 C 
HETATM   10  O   UNL     1      42.918 -13.573   2.083  1.00  0.00    -0.267 OA
HETATM   11  C   UNL     1      42.510 -16.285   1.535  1.00  0.00     0.132 C 
HETATM   12  C   UNL     1      43.570 -17.288   1.050  1.00  0.00     0.081 C 
ENDROOT
BRANCH   9  13
HETATM   13  C   UNL     1      43.072 -13.798   4.381  1.00  0.00     0.035 A 
HETATM   14  C   UNL     1      44.188 -14.110   5.168  1.00  0.00     0.056 A 
HETATM   15  C   UNL     1      44.256 -13.531   6.417  1.00  0.00     0.106 A 
HETATM   16  C   UNL     1      43.264 -12.703   6.893  1.00  0.00     0.105 A 
HETATM   17  O   UNL     1      45.271 -13.691   7.310  1.00  0.00    -0.323 OA
HETATM   18  O   UNL     1      43.532 -12.240   8.143  1.00  0.00    -0.323 OA
HETATM   19  C   UNL     1      42.139 -12.411   6.150  1.00  0.00     0.041 A 
HETATM   20  C   UNL     1      44.807 -12.863   8.399  1.00  0.00     0.352 A 
HETATM   21  C   UNL     1      42.042 -12.972   4.875  1.00  0.00     0.020 A 
ENDBRANCH   9  13
BRANCH   1  22
HETATM   22  C   UNL     1      43.952 -19.453   5.599  1.00  0.00    -0.007 A 
HETATM   23  C   UNL     1      44.127 -18.467   6.579  1.00  0.00     0.014 A 
HETATM   24  C   UNL     1      44.093 -18.801   7.935  1.00  0.00     0.001 A 
HETATM   25  C   UNL     1      43.884 -20.123   8.323  1.00  0.00     0.000 A 
HETATM   26  C   UNL     1      43.711 -21.111   7.357  1.00  0.00     0.001 A 
HETATM   27  C   UNL     1      43.744 -20.778   6.002  1.00  0.00     0.014 A 
ENDBRANCH   1  22
TORSDOF 2
ENDMDL
MODEL 8
REMARK VINA RESULT:      -7.8      2.574      3.801
REMARK  2 active torsions:
REMARK  status: ('A' for Active; 'I' for Inactive)
REMARK    1  A    between atoms: C_4  and  C_5 
REMARK       I    between atoms: N_12  and  C_13 
REMARK    2  A    between atoms: C_13  and  C_14 
ROOT
HETATM    1  C   UNL     1      42.811 -15.743   4.298  1.00  0.00     0.070 A 
HETATM    2  N   UNL     1      43.110 -15.862   5.635  1.00  0.00    -0.277 N 
HETATM    3  H   UNL     1      43.551 -16.647   6.100  1.00  0.00     0.189 HD
HETATM    4  N   UNL     1      42.786 -14.783   6.374  1.00  0.00    -0.178 NA
HETATM    5  C   UNL     1      42.258 -13.950   5.478  1.00  0.00     0.066 A 
HETATM    6  C   UNL     1      42.248 -14.486   4.171  1.00  0.00     0.015 A 
HETATM    7  C   UNL     1      41.708 -13.770   2.985  1.00  0.00     0.169 C 
HETATM    8  N   UNL     1      41.070 -12.502   3.391  1.00  0.00    -0.343 N 
HETATM    9  C   UNL     1      39.973 -11.937   2.747  1.00  0.00     0.254 C 
HETATM   10  O   UNL     1      39.388 -10.935   3.147  1.00  0.00    -0.267 OA
HETATM   11  C   UNL     1      41.682 -11.767   4.515  1.00  0.00     0.132 C 
HETATM   12  C   UNL     1      41.722 -12.605   5.803  1.00  0.00     0.081 C 
ENDROOT
BRANCH   9  13
HETATM   13  C   UNL     1      39.457 -12.573   1.515  1.00  0.00     0.035 A 
HETATM   14  C   UNL     1      40.073 -12.337   0.280  1.00  0.00     0.056 A 
HETATM   15  C   UNL     1      39.543 -12.978  -0.819  1.00  0.00     0.106 A 
HETATM   16  C   UNL     1      38.438 -13.793  -0.725  1.00  0.00     0.105 A 
HETATM   17  O   UNL     1      40.019 -12.895  -2.091  1.00  0.00    -0.323 OA
HETATM   18  O   UNL     1      38.083 -14.325  -1.926  1.00  0.00    -0.323 OA
HETATM   19  C   UNL     1      37.792 -14.012   0.474  1.00  0.00     0.041 A 
HETATM   20  C   UNL     1      39.093 -13.758  -2.785  1.00  0.00     0.352 A 
HETATM   21  C   UNL     1      38.310 -13.388   1.611  1.00  0.00     0.020 A 
ENDBRANCH   9  13
BRANCH   1  22
HETATM   22  C   UNL     1      43.090 -16.789   3.322  1.00  0.00    -0.007 A 
HETATM   23  C   UNL     1      43.767 -16.491   2.131  1.00  0.00     0.014 A 
HETATM   24  C   UNL     1      44.039 -17.497   1.201  1.00  0.00     0.001 A 
HETATM   25  C   UNL     1      43.638 -18.807   1.451  1.00  0.00     0.000 A 
HETATM   26  C   UNL     1      42.963 -19.114   2.631  1.00  0.00     0.001 A 
HETATM   27  C   UNL     1      42.691 -18.109   3.562  1.00  0.00     0.014 A 
ENDBRANCH   1  22
TORSDOF 2
ENDMDL
MODEL 9
REMARK VINA RESULT:      -7.7      2.728      5.483
REMARK  2 active torsions:
REMARK  status: ('A' for Active; 'I' for Inactive)
REMARK    1  A    between atoms: C_4  and  C_5 
REMARK       I    between atoms: N_12  and  C_13 
REMARK    2  A    between atoms: C_13  and  C_14 
ROOT
HETATM    1  C   UNL     1      42.372 -17.648   2.722  1.00  0.00     0.070 A 
HETATM    2  N   UNL     1      41.942 -17.903   1.441  1.00  0.00    -0.277 N 
HETATM    3  H   UNL     1      42.196 -18.686   0.850  1.00  0.00     0.189 HD
HETATM    4  N   UNL     1      41.069 -16.997   0.959  1.00  0.00    -0.178 NA
HETATM    5  C   UNL     1      40.942 -16.133   1.966  1.00  0.00     0.066 A 
HETATM    6  C   UNL     1      41.722 -16.484   3.090  1.00  0.00     0.015 A 
HETATM    7  C   UNL     1      41.771 -15.690   4.346  1.00  0.00     0.169 C 
HETATM    8  N   UNL     1      41.010 -14.433   4.194  1.00  0.00    -0.343 N 
HETATM    9  C   UNL     1      41.340 -13.239   4.827  1.00  0.00     0.254 C 
HETATM   10  O   UNL     1      40.762 -12.175   4.623  1.00  0.00    -0.267 OA
HETATM   11  C   UNL     1      39.790 -14.477   3.365  1.00  0.00     0.132 C 
HETATM   12  C   UNL     1      40.085 -14.922   1.923  1.00  0.00     0.081 C 
ENDROOT
BRANCH   9  13
HETATM   13  C   UNL     1      42.458 -13.223   5.797  1.00  0.00     0.035 A 
HETATM   14  C   UNL     1      42.529 -12.235   6.787  1.00  0.00     0.056 A 
HETATM   15  C   UNL     1      43.592 -12.298   7.661  1.00  0.00     0.106 A 
HETATM   16  C   UNL     1      44.565 -13.266   7.558  1.00  0.00     0.105 A 
HETATM   17  O   UNL     1      43.815 -11.447   8.700  1.00  0.00    -0.323 OA
HETATM   18  O   UNL     1      45.519 -13.146   8.520  1.00  0.00    -0.323 OA
HETATM   19  C   UNL     1      44.536 -14.228   6.570  1.00  0.00     0.041 A 
HETATM   20  C   UNL     1      45.034 -11.996   9.244  1.00  0.00     0.352 A 
HETATM   21  C   UNL     1      43.466 -14.202   5.673  1.00  0.00     0.020 A 
ENDBRANCH   9  13
BRANCH   1  22
HETATM   22  C   UNL     1      43.308 -18.509   3.436  1.00  0.00    -0.007 A 
HETATM   23  C   UNL     1      43.669 -18.226   4.759  1.00  0.00     0.014 A 
HETATM   24  C   UNL     1      44.561 -19.058   5.443  1.00  0.00     0.001 A 
HETATM   25  C   UNL     1      45.098 -20.176   4.809  1.00  0.00     0.000 A 
HETATM   26  C   UNL     1      44.747 -20.465   3.493  1.00  0.00     0.001 A 
HETATM   27  C   UNL     1      43.855 -19.635   2.809  1.00  0.00     0.014 A 
ENDBRANCH   1  22
TORSDOF 2
ENDMDL
MODEL 10
REMARK VINA RESULT:      -7.4      3.331      7.051
REMARK  2 active torsions:
REMARK  status: ('A' for Active; 'I' for Inactive)
REMARK    1  A    between atoms: C_4  and  C_5 
REMARK       I    between atoms: N_12  and  C_13 
REMARK    2  A    between atoms: C_13  and  C_14 
ROOT
HETATM    1  C   UNL     1      39.913 -13.467   0.149  1.00  0.00     0.070 A 
HETATM    2  N   UNL     1      39.743 -12.104   0.203  1.00  0.00    -0.277 N 
HETATM    3  H   UNL     1      39.584 -11.472  -0.573  1.00  0.00     0.189 HD
HETATM    4  N   UNL     1      39.779 -11.589   1.447  1.00  0.00    -0.178 NA
HETATM    5  C   UNL     1      39.982 -12.661   2.213  1.00  0.00     0.066 A 
HETATM    6  C   UNL     1      40.071 -13.857   1.467  1.00  0.00     0.015 A 
HETATM    7  C   UNL     1      40.301 -15.197   2.071  1.00  0.00     0.169 C 
HETATM    8  N   UNL     1      40.560 -15.074   3.520  1.00  0.00    -0.343 N 
HETATM    9  C   UNL     1      41.400 -15.919   4.238  1.00  0.00     0.254 C 
HETATM   10  O   UNL     1      41.685 -15.754   5.421  1.00  0.00    -0.267 OA
HETATM   11  C   UNL     1      39.827 -14.021   4.251  1.00  0.00     0.132 C 
HETATM   12  C   UNL     1      40.115 -12.619   3.690  1.00  0.00     0.081 C 
ENDROOT
BRANCH   9  13
HETATM   13  C   UNL     1      42.004 -17.083   3.554  1.00  0.00     0.035 A 
HETATM   14  C   UNL     1      42.951 -17.882   4.209  1.00  0.00     0.056 A 
HETATM   15  C   UNL     1      43.457 -18.957   3.510  1.00  0.00     0.106 A 
HETATM   16  C   UNL     1      43.078 -19.227   2.214  1.00  0.00     0.105 A 
HETATM   17  O   UNL     1      44.359 -19.857   3.985  1.00  0.00    -0.323 OA
HETATM   18  O   UNL     1      43.695 -20.331   1.715  1.00  0.00    -0.323 OA
HETATM   19  C   UNL     1      42.175 -18.434   1.536  1.00  0.00     0.041 A 
HETATM   20  C   UNL     1      44.499 -20.730   2.844  1.00  0.00     0.352 A 
HETATM   21  C   UNL     1      41.633 -17.342   2.219  1.00  0.00     0.020 A 
ENDBRANCH   9  13
BRANCH   1  22
HETATM   22  C   UNL     1      39.896 -14.226  -1.096  1.00  0.00    -0.007 A 
HETATM   23  C   UNL     1      38.832 -14.093  -1.997  1.00  0.00     0.014 A 
HETATM   24  C   UNL     1      38.823 -14.816  -3.193  1.00  0.00     0.001 A 
HETATM   25  C   UNL     1      39.875 -15.677  -3.497  1.00  0.00     0.000 A 
HETATM   26  C   UNL     1      40.937 -15.817  -2.607  1.00  0.00     0.001 A 
HETATM   27  C   UNL     1      40.947 -15.095  -1.411  1.00  0.00     0.014 A 
ENDBRANCH   1  22
TORSDOF 2
ENDMDL
