MODEL 1
REMARK VINA RESULT:      -9.1      0.000      0.000
REMARK  6 active torsions:
REMARK  status: ('A' for Active; 'I' for Inactive)
REMARK    1  A    between atoms: O_2  and  C_3 
REMARK    2  A    between atoms: C_6  and  C_7 
REMARK    3  A    between atoms: C_13  and  C_14 
REMARK       I    between atoms: C_14  and  N_15 
REMARK    4  A    between atoms: N_15  and  C_16 
REMARK    5  A    between atoms: C_18  and  O_19 
REMARK    6  A    between atoms: C_24  and  C_25 
ROOT
HETATM    1  C   UNL     1      40.786 -14.261   1.527  1.00  0.00     0.118 C 
HETATM    2  N   UNL     1      41.337 -15.439   2.216  1.00  0.00    -0.365 N 
HETATM    3  C   UNL     1      42.151 -15.276   3.300  1.00  0.00     0.138 A 
HETATM    4  N   UNL     1      42.550 -14.022   3.702  1.00  0.00    -0.240 N 
HETATM    5  N   UNL     1      43.358 -14.014   4.769  1.00  0.00    -0.181 NA
HETATM    6  C   UNL     1      43.454 -15.308   5.084  1.00  0.00     0.160 A 
HETATM    7  C   UNL     1      42.752 -16.154   4.187  1.00  0.00     0.096 A 
HETATM    8  C   UNL     1      42.172 -12.785   3.048  1.00  0.00     0.221 C 
HETATM    9  C   UNL     1      41.773 -13.084   1.597  1.00  0.00     0.066 C 
HETATM   10  H   UNL     1      40.659 -16.205   2.233  1.00  0.00     0.161 HD
ENDROOT
BRANCH   7  11
HETATM   11  C   UNL     1      42.740 -17.608   4.246  1.00  0.00     0.261 C 
HETATM   12  N   UNL     1      43.727 -18.209   3.489  1.00  0.00    -0.323 N 
HETATM   13  H   UNL     1      44.362 -17.573   3.020  1.00  0.00     0.169 HD
HETATM   14  O   UNL     1      41.921 -18.186   4.950  1.00  0.00    -0.267 OA
BRANCH  12  15
HETATM   15  C   UNL     1      43.996 -19.586   3.356  1.00  0.00     0.037 A 
HETATM   16  C   UNL     1      44.559 -20.375   4.362  1.00  0.00     0.066 A 
HETATM   17  C   UNL     1      44.805 -21.729   4.134  1.00  0.00     0.067 A 
HETATM   18  C   UNL     1      44.485 -22.322   2.918  1.00  0.00     0.036 A 
HETATM   19  C   UNL     1      43.917 -21.545   1.913  1.00  0.00     0.005 A 
HETATM   20  C   UNL     1      43.678 -20.184   2.128  1.00  0.00     0.029 A 
BRANCH  17  21
HETATM   21  O   UNL     1      45.375 -22.450   5.143  1.00  0.00    -0.361 OA
HETATM   22  H   UNL     1      44.713 -22.599   5.836  1.00  0.00     0.217 HD
ENDBRANCH  17  21
ENDBRANCH  12  15
ENDBRANCH   7  11
BRANCH   1  23
HETATM   23  C   UNL     1      40.482 -14.586   0.075  1.00  0.00    -0.035 A 
HETATM   24  C   UNL     1      39.469 -13.883  -0.598  1.00  0.00     0.012 A 
HETATM   25  C   UNL     1      39.234 -14.090  -1.962  1.00  0.00     0.037 A 
HETATM   26  C   UNL     1      40.008 -15.002  -2.676  1.00  0.00     0.068 A 
HETATM   27  C   UNL     1      40.999 -15.724  -2.010  1.00  0.00     0.037 A 
HETATM   28  C   UNL     1      41.242 -15.514  -0.649  1.00  0.00     0.012 A 
BRANCH  26  29
HETATM   29  O   UNL     1      39.894 -15.277  -4.011  1.00  0.00    -0.356 OA
HETATM   30  C   UNL     1      38.888 -16.212  -4.384  1.00  0.00     0.210 C 
ENDBRANCH  26  29
ENDBRANCH   1  23
BRANCH   8  31
HETATM   31  C   UNL     1      41.066 -12.103   3.823  1.00  0.00     0.409 C 
HETATM   32  F   UNL     1      40.241 -11.376   3.038  1.00  0.00    -0.169 F 
HETATM   33  F   UNL     1      40.308 -12.964   4.532  1.00  0.00    -0.169 F 
HETATM   34  F   UNL     1      41.604 -11.235   4.719  1.00  0.00    -0.169 F 
ENDBRANCH   8  31
TORSDOF 6
ENDMDL
MODEL 2
REMARK VINA RESULT:      -9.0      2.292      7.165
REMARK  6 active torsions:
REMARK  status: ('A' for Active; 'I' for Inactive)
REMARK    1  A    between atoms: O_2  and  C_3 
REMARK    2  A    between atoms: C_6  and  C_7 
REMARK    3  A    between atoms: C_13  and  C_14 
REMARK       I    between atoms: C_14  and  N_15 
REMARK    4  A    between atoms: N_15  and  C_16 
REMARK    5  A    between atoms: C_18  and  O_19 
REMARK    6  A    between atoms: C_24  and  C_25 
ROOT
HETATM    1  C   UNL     1      43.874 -16.463   4.263  1.00  0.00     0.118 C 
HETATM    2  N   UNL     1      43.285 -15.581   3.243  1.00  0.00    -0.365 N 
HETATM    3  C   UNL     1      42.699 -14.405   3.616  1.00  0.00     0.138 A 
HETATM    4  N   UNL     1      42.560 -14.075   4.943  1.00  0.00    -0.240 N 
HETATM    5  N   UNL     1      41.954 -12.900   5.161  1.00  0.00    -0.181 NA
HETATM    6  C   UNL     1      41.729 -12.444   3.926  1.00  0.00     0.160 A 
HETATM    7  C   UNL     1      42.138 -13.350   2.914  1.00  0.00     0.096 A 
HETATM    8  C   UNL     1      42.995 -14.902   6.051  1.00  0.00     0.221 C 
HETATM    9  C   UNL     1      43.094 -16.359   5.584  1.00  0.00     0.066 C 
HETATM   10  H   UNL     1      43.838 -15.593   2.383  1.00  0.00     0.161 HD
ENDROOT
BRANCH   7  11
HETATM   11  C   UNL     1      41.950 -13.147   1.485  1.00  0.00     0.261 C 
HETATM   12  N   UNL     1      41.124 -14.081   0.889  1.00  0.00    -0.323 N 
HETATM   13  H   UNL     1      40.718 -14.765   1.517  1.00  0.00     0.169 HD
HETATM   14  O   UNL     1      42.480 -12.194   0.927  1.00  0.00    -0.267 OA
BRANCH  12  15
HETATM   15  C   UNL     1      40.727 -14.145  -0.462  1.00  0.00     0.037 A 
HETATM   16  C   UNL     1      41.558 -14.557  -1.505  1.00  0.00     0.066 A 
HETATM   17  C   UNL     1      41.083 -14.571  -2.816  1.00  0.00     0.067 A 
HETATM   18  C   UNL     1      39.778 -14.194  -3.110  1.00  0.00     0.036 A 
HETATM   19  C   UNL     1      38.939 -13.788  -2.076  1.00  0.00     0.005 A 
HETATM   20  C   UNL     1      39.411 -13.759  -0.760  1.00  0.00     0.029 A 
BRANCH  17  21
HETATM   21  O   UNL     1      41.943 -14.964  -3.800  1.00  0.00    -0.361 OA
HETATM   22  H   UNL     1      42.780 -14.484  -3.696  1.00  0.00     0.217 HD
ENDBRANCH  17  21
ENDBRANCH  12  15
ENDBRANCH   7  11
BRANCH   1  23
HETATM   23  C   UNL     1      43.877 -17.905   3.784  1.00  0.00    -0.035 A 
HETATM   24  C   UNL     1      43.441 -18.207   2.484  1.00  0.00     0.012 A 
HETATM   25  C   UNL     1      43.525 -19.511   1.981  1.00  0.00     0.037 A 
HETATM   26  C   UNL     1      44.049 -20.533   2.769  1.00  0.00     0.068 A 
HETATM   27  C   UNL     1      44.460 -20.247   4.072  1.00  0.00     0.037 A 
HETATM   28  C   UNL     1      44.384 -18.945   4.575  1.00  0.00     0.012 A 
BRANCH  26  29
HETATM   29  O   UNL     1      44.206 -21.837   2.388  1.00  0.00    -0.356 OA
HETATM   30  C   UNL     1      44.631 -22.747   3.397  1.00  0.00     0.210 C 
ENDBRANCH  26  29
ENDBRANCH   1  23
BRANCH   8  31
HETATM   31  C   UNL     1      44.303 -14.382   6.606  1.00  0.00     0.409 C 
HETATM   32  F   UNL     1      45.023 -13.686   5.698  1.00  0.00    -0.169 F 
HETATM   33  F   UNL     1      44.145 -13.602   7.694  1.00  0.00    -0.169 F 
HETATM   34  F   UNL     1      45.083 -15.427   6.991  1.00  0.00    -0.169 F 
ENDBRANCH   8  31
TORSDOF 6
ENDMDL
MODEL 3
REMARK VINA RESULT:      -9.0      2.054      7.243
REMARK  6 active torsions:
REMARK  status: ('A' for Active; 'I' for Inactive)
REMARK    1  A    between atoms: O_2  and  C_3 
REMARK    2  A    between atoms: C_6  and  C_7 
REMARK    3  A    between atoms: C_13  and  C_14 
REMARK       I    between atoms: C_14  and  N_15 
REMARK    4  A    between atoms: N_15  and  C_16 
REMARK    5  A    between atoms: C_18  and  O_19 
REMARK    6  A    between atoms: C_24  and  C_25 
ROOT
HETATM    1  C   UNL     1      43.120 -16.544   3.907  1.00  0.00     0.118 C 
HETATM    2  N   UNL     1      42.051 -16.075   3.010  1.00  0.00    -0.365 N 
HETATM    3  C   UNL     1      41.231 -15.056   3.403  1.00  0.00     0.138 A 
HETATM    4  N   UNL     1      41.322 -14.523   4.667  1.00  0.00    -0.240 N 
HETATM    5  N   UNL     1      40.447 -13.541   4.918  1.00  0.00    -0.181 NA
HETATM    6  C   UNL     1      39.795 -13.415   3.760  1.00  0.00     0.160 A 
HETATM    7  C   UNL     1      40.211 -14.354   2.781  1.00  0.00     0.096 A 
HETATM    8  C   UNL     1      42.254 -14.964   5.686  1.00  0.00     0.221 C 
HETATM    9  C   UNL     1      42.694 -16.401   5.377  1.00  0.00     0.066 C 
HETATM   10  H   UNL     1      42.352 -16.103   2.033  1.00  0.00     0.161 HD
ENDROOT
BRANCH   7  11
HETATM   11  C   UNL     1      39.626 -14.495   1.456  1.00  0.00     0.261 C 
HETATM   12  N   UNL     1      40.540 -14.391   0.425  1.00  0.00    -0.323 N 
HETATM   13  H   UNL     1      41.504 -14.272   0.710  1.00  0.00     0.169 HD
HETATM   14  O   UNL     1      38.427 -14.716   1.337  1.00  0.00    -0.267 OA
BRANCH  12  15
HETATM   15  C   UNL     1      40.296 -14.506  -0.959  1.00  0.00     0.037 A 
HETATM   16  C   UNL     1      39.499 -13.623  -1.691  1.00  0.00     0.066 A 
HETATM   17  C   UNL     1      39.300 -13.826  -3.056  1.00  0.00     0.067 A 
HETATM   18  C   UNL     1      39.898 -14.893  -3.718  1.00  0.00     0.036 A 
HETATM   19  C   UNL     1      40.701 -15.774  -2.998  1.00  0.00     0.005 A 
HETATM   20  C   UNL     1      40.895 -15.585  -1.626  1.00  0.00     0.029 A 
BRANCH  17  21
HETATM   21  O   UNL     1      38.496 -12.945  -3.720  1.00  0.00    -0.361 OA
HETATM   22  H   UNL     1      37.740 -12.722  -3.154  1.00  0.00     0.217 HD
ENDBRANCH  17  21
ENDBRANCH  12  15
ENDBRANCH   7  11
BRANCH   1  23
HETATM   23  C   UNL     1      43.464 -17.994   3.614  1.00  0.00    -0.035 A 
HETATM   24  C   UNL     1      43.139 -18.548   2.365  1.00  0.00     0.012 A 
HETATM   25  C   UNL     1      43.531 -19.849   2.030  1.00  0.00     0.037 A 
HETATM   26  C   UNL     1      44.257 -20.617   2.937  1.00  0.00     0.068 A 
HETATM   27  C   UNL     1      44.563 -20.084   4.191  1.00  0.00     0.037 A 
HETATM   28  C   UNL     1      44.179 -18.783   4.526  1.00  0.00     0.012 A 
BRANCH  26  29
HETATM   29  O   UNL     1      44.718 -21.886   2.723  1.00  0.00    -0.356 OA
HETATM   30  C   UNL     1      44.692 -22.770   3.839  1.00  0.00     0.210 C 
ENDBRANCH  26  29
ENDBRANCH   1  23
BRANCH   8  31
HETATM   31  C   UNL     1      43.423 -14.008   5.772  1.00  0.00     0.409 C 
HETATM   32  F   UNL     1      44.557 -14.598   6.210  1.00  0.00    -0.169 F 
HETATM   33  F   UNL     1      43.699 -13.402   4.600  1.00  0.00    -0.169 F 
HETATM   34  F   UNL     1      43.140 -13.018   6.660  1.00  0.00    -0.169 F 
ENDBRANCH   8  31
TORSDOF 6
ENDMDL
MODEL 4
REMARK VINA RESULT:      -9.0      4.090      6.461
REMARK  6 active torsions:
REMARK  status: ('A' for Active; 'I' for Inactive)
REMARK    1  A    between atoms: O_2  and  C_3 
REMARK    2  A    between atoms: C_6  and  C_7 
REMARK    3  A    between atoms: C_13  and  C_14 
REMARK       I    between atoms: C_14  and  N_15 
REMARK    4  A    between atoms: N_15  and  C_16 
REMARK    5  A    between atoms: C_18  and  O_19 
REMARK    6  A    between atoms: C_24  and  C_25 
ROOT
HETATM    1  C   UNL     1      42.654 -16.432   1.667  1.00  0.00     0.118 C 
HETATM    2  N   UNL     1      42.957 -15.656   2.880  1.00  0.00    -0.365 N 
HETATM    3  C   UNL     1      43.086 -16.293   4.082  1.00  0.00     0.138 A 
HETATM    4  N   UNL     1      42.838 -17.641   4.197  1.00  0.00    -0.240 N 
HETATM    5  N   UNL     1      42.990 -18.128   5.435  1.00  0.00    -0.181 NA
HETATM    6  C   UNL     1      43.384 -17.059   6.132  1.00  0.00     0.160 A 
HETATM    7  C   UNL     1      43.432 -15.873   5.355  1.00  0.00     0.096 A 
HETATM    8  C   UNL     1      42.425 -18.502   3.107  1.00  0.00     0.221 C 
HETATM    9  C   UNL     1      41.778 -17.649   2.008  1.00  0.00     0.066 C 
HETATM   10  H   UNL     1      43.595 -14.884   2.673  1.00  0.00     0.161 HD
ENDROOT
BRANCH   7  11
HETATM   11  C   UNL     1      43.758 -14.551   5.869  1.00  0.00     0.261 C 
HETATM   12  N   UNL     1      44.559 -14.567   6.994  1.00  0.00    -0.323 N 
HETATM   13  H   UNL     1      44.856 -15.485   7.302  1.00  0.00     0.169 HD
HETATM   14  O   UNL     1      43.353 -13.552   5.288  1.00  0.00    -0.267 OA
BRANCH  12  15
HETATM   15  C   UNL     1      45.066 -13.463   7.710  1.00  0.00     0.037 A 
HETATM   16  C   UNL     1      46.283 -12.839   7.430  1.00  0.00     0.066 A 
HETATM   17  C   UNL     1      46.712 -11.761   8.204  1.00  0.00     0.067 A 
HETATM   18  C   UNL     1      45.939 -11.278   9.253  1.00  0.00     0.036 A 
HETATM   19  C   UNL     1      44.720 -11.889   9.535  1.00  0.00     0.005 A 
HETATM   20  C   UNL     1      44.288 -12.978   8.772  1.00  0.00     0.029 A 
BRANCH  17  21
HETATM   21  O   UNL     1      47.919 -11.201   7.900  1.00  0.00    -0.361 OA
HETATM   22  H   UNL     1      47.769 -10.386   7.395  1.00  0.00     0.217 HD
ENDBRANCH  17  21
ENDBRANCH  12  15
ENDBRANCH   7  11
BRANCH   1  23
HETATM   23  C   UNL     1      41.943 -15.564   0.642  1.00  0.00    -0.035 A 
HETATM   24  C   UNL     1      41.863 -14.177   0.843  1.00  0.00     0.012 A 
HETATM   25  C   UNL     1      41.303 -13.340  -0.130  1.00  0.00     0.037 A 
HETATM   26  C   UNL     1      40.818 -13.877  -1.320  1.00  0.00     0.068 A 
HETATM   27  C   UNL     1      40.870 -15.258  -1.517  1.00  0.00     0.037 A 
HETATM   28  C   UNL     1      41.435 -16.095  -0.551  1.00  0.00     0.012 A 
BRANCH  26  29
HETATM   29  O   UNL     1      40.272 -13.168  -2.355  1.00  0.00    -0.356 OA
HETATM   30  C   UNL     1      39.962 -13.902  -3.535  1.00  0.00     0.210 C 
ENDBRANCH  26  29
ENDBRANCH   1  23
BRANCH   8  31
HETATM   31  C   UNL     1      43.605 -19.301   2.598  1.00  0.00     0.409 C 
HETATM   32  F   UNL     1      44.701 -18.543   2.378  1.00  0.00    -0.169 F 
HETATM   33  F   UNL     1      43.958 -20.308   3.423  1.00  0.00    -0.169 F 
HETATM   34  F   UNL     1      43.291 -19.873   1.406  1.00  0.00    -0.169 F 
ENDBRANCH   8  31
TORSDOF 6
ENDMDL
MODEL 5
REMARK VINA RESULT:      -9.0      2.161      7.271
REMARK  6 active torsions:
REMARK  status: ('A' for Active; 'I' for Inactive)
REMARK    1  A    between atoms: O_2  and  C_3 
REMARK    2  A    between atoms: C_6  and  C_7 
REMARK    3  A    between atoms: C_13  and  C_14 
REMARK       I    between atoms: C_14  and  N_15 
REMARK    4  A    between atoms: N_15  and  C_16 
REMARK    5  A    between atoms: C_18  and  O_19 
REMARK    6  A    between atoms: C_24  and  C_25 
ROOT
HETATM    1  C   UNL     1      43.271 -16.775   4.092  1.00  0.00     0.118 C 
HETATM    2  N   UNL     1      42.171 -16.273   3.253  1.00  0.00    -0.365 N 
HETATM    3  C   UNL     1      41.380 -15.255   3.704  1.00  0.00     0.138 A 
HETATM    4  N   UNL     1      41.530 -14.755   4.976  1.00  0.00    -0.240 N 
HETATM    5  N   UNL     1      40.677 -13.770   5.287  1.00  0.00    -0.181 NA
HETATM    6  C   UNL     1      39.979 -13.609   4.161  1.00  0.00     0.160 A 
HETATM    7  C   UNL     1      40.344 -14.527   3.142  1.00  0.00     0.096 A 
HETATM    8  C   UNL     1      42.497 -15.232   5.944  1.00  0.00     0.221 C 
HETATM    9  C   UNL     1      42.907 -16.665   5.582  1.00  0.00     0.066 C 
HETATM   10  H   UNL     1      42.432 -16.279   2.263  1.00  0.00     0.161 HD
ENDROOT
BRANCH   7  11
HETATM   11  C   UNL     1      39.703 -14.628   1.840  1.00  0.00     0.261 C 
HETATM   12  N   UNL     1      40.462 -14.127   0.800  1.00  0.00    -0.323 N 
HETATM   13  H   UNL     1      41.382 -13.790   1.057  1.00  0.00     0.169 HD
HETATM   14  O   UNL     1      38.600 -15.151   1.739  1.00  0.00    -0.267 OA
BRANCH  12  15
HETATM   15  C   UNL     1      40.138 -14.100  -0.572  1.00  0.00     0.037 A 
HETATM   16  C   UNL     1      41.011 -14.484  -1.592  1.00  0.00     0.066 A 
HETATM   17  C   UNL     1      40.607 -14.408  -2.925  1.00  0.00     0.067 A 
HETATM   18  C   UNL     1      39.334 -13.967  -3.265  1.00  0.00     0.036 A 
HETATM   19  C   UNL     1      38.454 -13.589  -2.255  1.00  0.00     0.005 A 
HETATM   20  C   UNL     1      38.854 -13.650  -0.916  1.00  0.00     0.029 A 
BRANCH  17  21
HETATM   21  O   UNL     1      41.507 -14.776  -3.883  1.00  0.00    -0.361 OA
HETATM   22  H   UNL     1      42.304 -15.121  -3.451  1.00  0.00     0.217 HD
ENDBRANCH  17  21
ENDBRANCH  12  15
ENDBRANCH   7  11
BRANCH   1  23
HETATM   23  C   UNL     1      43.585 -18.221   3.749  1.00  0.00    -0.035 A 
HETATM   24  C   UNL     1      43.215 -18.736   2.496  1.00  0.00     0.012 A 
HETATM   25  C   UNL     1      43.579 -20.032   2.114  1.00  0.00     0.037 A 
HETATM   26  C   UNL     1      44.321 -20.835   2.978  1.00  0.00     0.068 A 
HETATM   27  C   UNL     1      44.671 -20.342   4.236  1.00  0.00     0.037 A 
HETATM   28  C   UNL     1      44.315 -19.045   4.618  1.00  0.00     0.012 A 
BRANCH  26  29
HETATM   29  O   UNL     1      44.757 -22.104   2.715  1.00  0.00    -0.356 OA
HETATM   30  C   UNL     1      44.721 -23.026   3.799  1.00  0.00     0.210 C 
ENDBRANCH  26  29
ENDBRANCH   1  23
BRANCH   8  31
HETATM   31  C   UNL     1      43.680 -14.290   6.005  1.00  0.00     0.409 C 
HETATM   32  F   UNL     1      43.995 -13.759   4.804  1.00  0.00    -0.169 F 
HETATM   33  F   UNL     1      43.503 -13.274   6.873  1.00  0.00    -0.169 F 
HETATM   34  F   UNL     1      44.782 -14.967   6.424  1.00  0.00    -0.169 F 
ENDBRANCH   8  31
TORSDOF 6
ENDMDL
MODEL 6
REMARK VINA RESULT:      -8.6      3.477      8.186
REMARK  6 active torsions:
REMARK  status: ('A' for Active; 'I' for Inactive)
REMARK    1  A    between atoms: O_2  and  C_3 
REMARK    2  A    between atoms: C_6  and  C_7 
REMARK    3  A    between atoms: C_13  and  C_14 
REMARK       I    between atoms: C_14  and  N_15 
REMARK    4  A    between atoms: N_15  and  C_16 
REMARK    5  A    between atoms: C_18  and  O_19 
REMARK    6  A    between atoms: C_24  and  C_25 
ROOT
HETATM    1  C   UNL     1      42.545 -17.042   2.758  1.00  0.00     0.118 C 
HETATM    2  N   UNL     1      42.458 -15.932   3.720  1.00  0.00    -0.365 N 
HETATM    3  C   UNL     1      42.252 -14.657   3.273  1.00  0.00     0.138 A 
HETATM    4  N   UNL     1      42.225 -14.377   1.927  1.00  0.00    -0.240 N 
HETATM    5  N   UNL     1      42.029 -13.085   1.634  1.00  0.00    -0.181 NA
HETATM    6  C   UNL     1      41.892 -12.522   2.837  1.00  0.00     0.160 A 
HETATM    7  C   UNL     1      42.053 -13.441   3.905  1.00  0.00     0.096 A 
HETATM    8  C   UNL     1      42.407 -15.357   0.874  1.00  0.00     0.221 C 
HETATM    9  C   UNL     1      43.168 -16.564   1.436  1.00  0.00     0.066 C 
HETATM   10  H   UNL     1      41.982 -16.224   4.578  1.00  0.00     0.161 HD
ENDROOT
BRANCH   7  11
HETATM   11  C   UNL     1      42.026 -13.094   5.318  1.00  0.00     0.261 C 
HETATM   12  N   UNL     1      41.216 -12.014   5.615  1.00  0.00    -0.323 N 
HETATM   13  H   UNL     1      40.710 -11.622   4.830  1.00  0.00     0.169 HD
HETATM   14  O   UNL     1      42.662 -13.760   6.125  1.00  0.00    -0.267 OA
BRANCH  12  15
HETATM   15  C   UNL     1      40.958 -11.451   6.882  1.00  0.00     0.037 A 
HETATM   16  C   UNL     1      39.705 -11.448   7.498  1.00  0.00     0.066 A 
HETATM   17  C   UNL     1      39.541 -10.851   8.748  1.00  0.00     0.067 A 
HETATM   18  C   UNL     1      40.613 -10.263   9.409  1.00  0.00     0.036 A 
HETATM   19  C   UNL     1      41.868 -10.267   8.805  1.00  0.00     0.005 A 
HETATM   20  C   UNL     1      42.039 -10.852   7.547  1.00  0.00     0.029 A 
BRANCH  17  21
HETATM   21  O   UNL     1      38.292 -10.859   9.296  1.00  0.00    -0.361 OA
HETATM   22  H   UNL     1      37.635 -10.786   8.586  1.00  0.00     0.217 HD
ENDBRANCH  17  21
ENDBRANCH  12  15
ENDBRANCH   7  11
BRANCH   1  23
HETATM   23  C   UNL     1      43.373 -18.180   3.331  1.00  0.00    -0.035 A 
HETATM   24  C   UNL     1      43.617 -18.236   4.713  1.00  0.00     0.012 A 
HETATM   25  C   UNL     1      44.291 -19.323   5.281  1.00  0.00     0.037 A 
HETATM   26  C   UNL     1      44.730 -20.373   4.478  1.00  0.00     0.068 A 
HETATM   27  C   UNL     1      44.515 -20.313   3.100  1.00  0.00     0.037 A 
HETATM   28  C   UNL     1      43.836 -19.233   2.530  1.00  0.00     0.012 A 
BRANCH  26  29
HETATM   29  O   UNL     1      45.376 -21.497   4.912  1.00  0.00    -0.356 OA
HETATM   30  C   UNL     1      44.718 -22.738   4.681  1.00  0.00     0.210 C 
ENDBRANCH  26  29
ENDBRANCH   1  23
BRANCH   8  31
HETATM   31  C   UNL     1      41.069 -15.741   0.282  1.00  0.00     0.409 C 
HETATM   32  F   UNL     1      41.037 -17.013  -0.172  1.00  0.00    -0.169 F 
HETATM   33  F   UNL     1      40.044 -15.585   1.145  1.00  0.00    -0.169 F 
HETATM   34  F   UNL     1      40.796 -14.946  -0.787  1.00  0.00    -0.169 F 
ENDBRANCH   8  31
TORSDOF 6
ENDMDL
MODEL 7
REMARK VINA RESULT:      -8.3      2.451      7.852
REMARK  6 active torsions:
REMARK  status: ('A' for Active; 'I' for Inactive)
REMARK    1  A    between atoms: O_2  and  C_3 
REMARK    2  A    between atoms: C_6  and  C_7 
REMARK    3  A    between atoms: C_13  and  C_14 
REMARK       I    between atoms: C_14  and  N_15 
REMARK    4  A    between atoms: N_15  and  C_16 
REMARK    5  A    between atoms: C_18  and  O_19 
REMARK    6  A    between atoms: C_24  and  C_25 
ROOT
HETATM    1  C   UNL     1      43.604 -16.530   3.760  1.00  0.00     0.118 C 
HETATM    2  N   UNL     1      42.975 -15.895   2.591  1.00  0.00    -0.365 N 
HETATM    3  C   UNL     1      42.173 -14.802   2.758  1.00  0.00     0.138 A 
HETATM    4  N   UNL     1      41.859 -14.342   4.016  1.00  0.00    -0.240 N 
HETATM    5  N   UNL     1      41.053 -13.273   4.029  1.00  0.00    -0.181 NA
HETATM    6  C   UNL     1      40.870 -13.017   2.731  1.00  0.00     0.160 A 
HETATM    7  C   UNL     1      41.515 -13.954   1.882  1.00  0.00     0.096 A 
HETATM    8  C   UNL     1      42.319 -14.939   5.254  1.00  0.00     0.221 C 
HETATM    9  C   UNL     1      42.698 -16.403   4.996  1.00  0.00     0.066 C 
HETATM   10  H   UNL     1      43.600 -15.914   1.781  1.00  0.00     0.161 HD
ENDROOT
BRANCH   7  11
HETATM   11  C   UNL     1      41.429 -13.963   0.429  1.00  0.00     0.261 C 
HETATM   12  N   UNL     1      41.408 -12.703  -0.139  1.00  0.00    -0.323 N 
HETATM   13  H   UNL     1      41.495 -11.932   0.511  1.00  0.00     0.169 HD
HETATM   14  O   UNL     1      41.412 -15.027  -0.177  1.00  0.00    -0.267 OA
BRANCH  12  15
HETATM   15  C   UNL     1      41.355 -12.376  -1.509  1.00  0.00     0.037 A 
HETATM   16  C   UNL     1      40.187 -12.386  -2.274  1.00  0.00     0.066 A 
HETATM   17  C   UNL     1      40.234 -12.063  -3.630  1.00  0.00     0.067 A 
HETATM   18  C   UNL     1      41.431 -11.712  -4.243  1.00  0.00     0.036 A 
HETATM   19  C   UNL     1      42.600 -11.692  -3.487  1.00  0.00     0.005 A 
HETATM   20  C   UNL     1      42.564 -12.026  -2.130  1.00  0.00     0.029 A 
BRANCH  17  21
HETATM   21  O   UNL     1      39.066 -12.108  -4.335  1.00  0.00    -0.361 OA
HETATM   22  H   UNL     1      38.691 -13.000  -4.266  1.00  0.00     0.217 HD
ENDBRANCH  17  21
ENDBRANCH  12  15
ENDBRANCH   7  11
BRANCH   1  23
HETATM   23  C   UNL     1      43.886 -17.996   3.483  1.00  0.00    -0.035 A 
HETATM   24  C   UNL     1      44.413 -18.808   4.501  1.00  0.00     0.012 A 
HETATM   25  C   UNL     1      44.590 -20.183   4.306  1.00  0.00     0.037 A 
HETATM   26  C   UNL     1      44.240 -20.769   3.092  1.00  0.00     0.068 A 
HETATM   27  C   UNL     1      43.739 -19.966   2.066  1.00  0.00     0.037 A 
HETATM   28  C   UNL     1      43.555 -18.594   2.259  1.00  0.00     0.012 A 
BRANCH  26  29
HETATM   29  O   UNL     1      44.341 -22.098   2.786  1.00  0.00    -0.356 OA
HETATM   30  C   UNL     1      44.670 -22.974   3.859  1.00  0.00     0.210 C 
ENDBRANCH  26  29
ENDBRANCH   1  23
BRANCH   8  31
HETATM   31  C   UNL     1      43.469 -14.136   5.823  1.00  0.00     0.409 C 
HETATM   32  F   UNL     1      43.061 -13.095   6.582  1.00  0.00    -0.169 F 
HETATM   33  F   UNL     1      44.318 -14.878   6.562  1.00  0.00    -0.169 F 
HETATM   34  F   UNL     1      44.202 -13.605   4.810  1.00  0.00    -0.169 F 
ENDBRANCH   8  31
TORSDOF 6
ENDMDL
MODEL 8
REMARK VINA RESULT:      -8.1      5.537      9.083
REMARK  6 active torsions:
REMARK  status: ('A' for Active; 'I' for Inactive)
REMARK    1  A    between atoms: O_2  and  C_3 
REMARK    2  A    between atoms: C_6  and  C_7 
REMARK    3  A    between atoms: C_13  and  C_14 
REMARK       I    between atoms: C_14  and  N_15 
REMARK    4  A    between atoms: N_15  and  C_16 
REMARK    5  A    between atoms: C_18  and  O_19 
REMARK    6  A    between atoms: C_24  and  C_25 
ROOT
HETATM    1  C   UNL     1      42.052 -10.289   8.628  1.00  0.00     0.118 C 
HETATM    2  N   UNL     1      42.443 -11.533   7.946  1.00  0.00    -0.365 N 
HETATM    3  C   UNL     1      41.883 -11.855   6.742  1.00  0.00     0.138 A 
HETATM    4  N   UNL     1      40.883 -11.084   6.200  1.00  0.00    -0.240 N 
HETATM    5  N   UNL     1      40.419 -11.526   5.024  1.00  0.00    -0.181 NA
HETATM    6  C   UNL     1      41.174 -12.601   4.787  1.00  0.00     0.160 A 
HETATM    7  C   UNL     1      42.087 -12.883   5.836  1.00  0.00     0.096 A 
HETATM    8  C   UNL     1      40.327  -9.896   6.817  1.00  0.00     0.221 C 
HETATM    9  C   UNL     1      40.583  -9.947   8.329  1.00  0.00     0.066 C 
HETATM   10  H   UNL     1      43.437 -11.732   8.084  1.00  0.00     0.161 HD
ENDROOT
BRANCH   7  11
HETATM   11  C   UNL     1      42.981 -14.031   5.880  1.00  0.00     0.261 C 
HETATM   12  N   UNL     1      42.436 -15.144   6.490  1.00  0.00    -0.323 N 
HETATM   13  H   UNL     1      41.476 -15.046   6.794  1.00  0.00     0.169 HD
HETATM   14  O   UNL     1      44.094 -13.959   5.373  1.00  0.00    -0.267 OA
BRANCH  12  15
HETATM   15  C   UNL     1      43.032 -16.410   6.666  1.00  0.00     0.037 A 
HETATM   16  C   UNL     1      43.339 -16.965   7.910  1.00  0.00     0.066 A 
HETATM   17  C   UNL     1      43.944 -18.220   7.987  1.00  0.00     0.067 A 
HETATM   18  C   UNL     1      44.240 -18.946   6.839  1.00  0.00     0.036 A 
HETATM   19  C   UNL     1      43.930 -18.403   5.594  1.00  0.00     0.005 A 
HETATM   20  C   UNL     1      43.335 -17.141   5.508  1.00  0.00     0.029 A 
BRANCH  17  21
HETATM   21  O   UNL     1      44.241 -18.707   9.226  1.00  0.00    -0.361 OA
HETATM   22  H   UNL     1      43.443 -19.105   9.608  1.00  0.00     0.217 HD
ENDBRANCH  17  21
ENDBRANCH  12  15
ENDBRANCH   7  11
BRANCH   1  23
HETATM   23  C   UNL     1      42.250 -10.419  10.129  1.00  0.00    -0.035 A 
HETATM   24  C   UNL     1      43.530 -10.244  10.679  1.00  0.00     0.012 A 
HETATM   25  C   UNL     1      43.725 -10.258  12.065  1.00  0.00     0.037 A 
HETATM   26  C   UNL     1      42.644 -10.446  12.923  1.00  0.00     0.068 A 
HETATM   27  C   UNL     1      41.372 -10.647  12.384  1.00  0.00     0.037 A 
HETATM   28  C   UNL     1      41.172 -10.626  11.001  1.00  0.00     0.012 A 
BRANCH  26  29
HETATM   29  O   UNL     1      42.698 -10.457  14.289  1.00  0.00    -0.356 OA
HETATM   30  C   UNL     1      41.583  -9.899  14.975  1.00  0.00     0.210 C 
ENDBRANCH  26  29
ENDBRANCH   1  23
BRANCH   8  31
HETATM   31  C   UNL     1      40.907  -8.655   6.174  1.00  0.00     0.409 C 
HETATM   32  F   UNL     1      42.129  -8.861   5.636  1.00  0.00    -0.169 F 
HETATM   33  F   UNL     1      40.115  -8.137   5.214  1.00  0.00    -0.169 F 
HETATM   34  F   UNL     1      41.061  -7.684   7.112  1.00  0.00    -0.169 F 
ENDBRANCH   8  31
TORSDOF 6
ENDMDL
MODEL 9
REMARK VINA RESULT:      -7.8      4.634      8.051
REMARK  6 active torsions:
REMARK  status: ('A' for Active; 'I' for Inactive)
REMARK    1  A    between atoms: O_2  and  C_3 
REMARK    2  A    between atoms: C_6  and  C_7 
REMARK    3  A    between atoms: C_13  and  C_14 
REMARK       I    between atoms: C_14  and  N_15 
REMARK    4  A    between atoms: N_15  and  C_16 
REMARK    5  A    between atoms: C_18  and  O_19 
REMARK    6  A    between atoms: C_24  and  C_25 
ROOT
HETATM    1  C   UNL     1      41.802 -10.950   7.373  1.00  0.00     0.118 C 
HETATM    2  N   UNL     1      42.215 -12.289   6.923  1.00  0.00    -0.365 N 
HETATM    3  C   UNL     1      41.418 -12.997   6.069  1.00  0.00     0.138 A 
HETATM    4  N   UNL     1      40.182 -12.520   5.698  1.00  0.00    -0.240 N 
HETATM    5  N   UNL     1      39.505 -13.325   4.868  1.00  0.00    -0.181 NA
HETATM    6  C   UNL     1      40.353 -14.338   4.673  1.00  0.00     0.160 A 
HETATM    7  C   UNL     1      41.553 -14.213   5.420  1.00  0.00     0.096 A 
HETATM    8  C   UNL     1      39.606 -11.271   6.153  1.00  0.00     0.221 C 
HETATM    9  C   UNL     1      40.270 -10.863   7.475  1.00  0.00     0.066 C 
HETATM   10  H   UNL     1      43.228 -12.335   6.787  1.00  0.00     0.161 HD
ENDROOT
BRANCH   7  11
HETATM   11  C   UNL     1      42.621 -15.200   5.456  1.00  0.00     0.261 C 
HETATM   12  N   UNL     1      42.232 -16.463   5.052  1.00  0.00    -0.323 N 
HETATM   13  H   UNL     1      41.271 -16.543   4.743  1.00  0.00     0.169 HD
HETATM   14  O   UNL     1      43.751 -14.868   5.793  1.00  0.00    -0.267 OA
BRANCH  12  15
HETATM   15  C   UNL     1      43.030 -17.621   4.951  1.00  0.00     0.037 A 
HETATM   16  C   UNL     1      43.434 -18.192   3.742  1.00  0.00     0.066 A 
HETATM   17  C   UNL     1      44.210 -19.351   3.740  1.00  0.00     0.067 A 
HETATM   18  C   UNL     1      44.608 -19.951   4.929  1.00  0.00     0.036 A 
HETATM   19  C   UNL     1      44.216 -19.385   6.139  1.00  0.00     0.005 A 
HETATM   20  C   UNL     1      43.427 -18.230   6.151  1.00  0.00     0.029 A 
BRANCH  17  21
HETATM   21  O   UNL     1      44.561 -19.878   2.531  1.00  0.00    -0.361 OA
HETATM   22  H   UNL     1      43.762 -19.998   1.996  1.00  0.00     0.217 HD
ENDBRANCH  17  21
ENDBRANCH  12  15
ENDBRANCH   7  11
BRANCH   1  23
HETATM   23  C   UNL     1      42.422 -10.626   8.721  1.00  0.00    -0.035 A 
HETATM   24  C   UNL     1      41.732  -9.800   9.624  1.00  0.00     0.012 A 
HETATM   25  C   UNL     1      42.231  -9.565  10.910  1.00  0.00     0.037 A 
HETATM   26  C   UNL     1      43.427 -10.153  11.316  1.00  0.00     0.068 A 
HETATM   27  C   UNL     1      44.132 -10.954  10.417  1.00  0.00     0.037 A 
HETATM   28  C   UNL     1      43.633 -11.197   9.134  1.00  0.00     0.012 A 
BRANCH  26  29
HETATM   29  O   UNL     1      44.005 -10.022  12.548  1.00  0.00    -0.356 OA
HETATM   30  C   UNL     1      43.220  -9.397  13.557  1.00  0.00     0.210 C 
ENDBRANCH  26  29
ENDBRANCH   1  23
BRANCH   8  31
HETATM   31  C   UNL     1      39.749 -10.211   5.083  1.00  0.00     0.409 C 
HETATM   32  F   UNL     1      39.850  -8.961   5.587  1.00  0.00    -0.169 F 
HETATM   33  F   UNL     1      40.806 -10.416   4.272  1.00  0.00    -0.169 F 
HETATM   34  F   UNL     1      38.647 -10.213   4.287  1.00  0.00    -0.169 F 
ENDBRANCH   8  31
TORSDOF 6
ENDMDL
MODEL 10
REMARK VINA RESULT:      -7.7      3.460      7.718
REMARK  6 active torsions:
REMARK  status: ('A' for Active; 'I' for Inactive)
REMARK    1  A    between atoms: O_2  and  C_3 
REMARK    2  A    between atoms: C_6  and  C_7 
REMARK    3  A    between atoms: C_13  and  C_14 
REMARK       I    between atoms: C_14  and  N_15 
REMARK    4  A    between atoms: N_15  and  C_16 
REMARK    5  A    between atoms: C_18  and  O_19 
REMARK    6  A    between atoms: C_24  and  C_25 
ROOT
HETATM    1  C   UNL     1      42.372 -17.118   2.741  1.00  0.00     0.118 C 
HETATM    2  N   UNL     1      42.284 -16.062   3.762  1.00  0.00    -0.365 N 
HETATM    3  C   UNL     1      42.131 -14.759   3.383  1.00  0.00     0.138 A 
HETATM    4  N   UNL     1      42.157 -14.402   2.055  1.00  0.00    -0.240 N 
HETATM    5  N   UNL     1      42.009 -13.090   1.831  1.00  0.00    -0.181 NA
HETATM    6  C   UNL     1      41.847 -12.592   3.060  1.00  0.00     0.160 A 
HETATM    7  C   UNL     1      41.946 -13.575   4.078  1.00  0.00     0.096 A 
HETATM    8  C   UNL     1      42.347 -15.325   0.954  1.00  0.00     0.221 C 
HETATM    9  C   UNL     1      43.053 -16.586   1.469  1.00  0.00     0.066 C 
HETATM   10  H   UNL     1      41.772 -16.388   4.585  1.00  0.00     0.161 HD
ENDROOT
BRANCH   7  11
HETATM   11  C   UNL     1      41.881 -13.308   5.507  1.00  0.00     0.261 C 
HETATM   12  N   UNL     1      42.952 -12.581   5.991  1.00  0.00    -0.323 N 
HETATM   13  H   UNL     1      43.628 -12.288   5.296  1.00  0.00     0.169 HD
HETATM   14  O   UNL     1      40.918 -13.693   6.159  1.00  0.00    -0.267 OA
BRANCH  12  15
HETATM   15  C   UNL     1      43.170 -12.142   7.313  1.00  0.00     0.037 A 
HETATM   16  C   UNL     1      44.157 -12.656   8.157  1.00  0.00     0.066 A 
HETATM   17  C   UNL     1      44.288 -12.171   9.458  1.00  0.00     0.067 A 
HETATM   18  C   UNL     1      43.458 -11.164   9.936  1.00  0.00     0.036 A 
HETATM   19  C   UNL     1      42.476 -10.640   9.099  1.00  0.00     0.005 A 
HETATM   20  C   UNL     1      42.329 -11.129   7.797  1.00  0.00     0.029 A 
BRANCH  17  21
HETATM   21  O   UNL     1      45.255 -12.722  10.247  1.00  0.00    -0.361 OA
HETATM   22  H   UNL     1      45.581 -13.533   9.826  1.00  0.00     0.217 HD
ENDBRANCH  17  21
ENDBRANCH  12  15
ENDBRANCH   7  11
BRANCH   1  23
HETATM   23  C   UNL     1      43.148 -18.311   3.273  1.00  0.00    -0.035 A 
HETATM   24  C   UNL     1      43.582 -19.310   2.387  1.00  0.00     0.012 A 
HETATM   25  C   UNL     1      44.382 -20.369   2.831  1.00  0.00     0.037 A 
HETATM   26  C   UNL     1      44.764 -20.444   4.169  1.00  0.00     0.068 A 
HETATM   27  C   UNL     1      44.316 -19.470   5.062  1.00  0.00     0.037 A 
HETATM   28  C   UNL     1      43.522 -18.408   4.620  1.00  0.00     0.012 A 
BRANCH  26  29
HETATM   29  O   UNL     1      45.560 -21.410   4.721  1.00  0.00    -0.356 OA
HETATM   30  C   UNL     1      44.923 -22.632   5.077  1.00  0.00     0.210 C 
ENDBRANCH  26  29
ENDBRANCH   1  23
BRANCH   8  31
HETATM   31  C   UNL     1      41.018 -15.634   0.298  1.00  0.00     0.409 C 
HETATM   32  F   UNL     1      39.981 -15.599   1.164  1.00  0.00    -0.169 F 
HETATM   33  F   UNL     1      40.728 -14.806  -0.726  1.00  0.00    -0.169 F 
HETATM   34  F   UNL     1      41.044 -16.891  -0.218  1.00  0.00    -0.169 F 
ENDBRANCH   8  31
TORSDOF 6
ENDMDL
