MODEL 1
REMARK VINA RESULT:      -8.4      0.000      0.000
REMARK  5 active torsions:
REMARK  status: ('A' for Active; 'I' for Inactive)
REMARK    1  A    between atoms: C_9  and  C_10 
REMARK    2  A    between atoms: C_11  and  O_12 
REMARK    3  A    between atoms: O_12  and  C_13 
REMARK    4  A    between atoms: C_20  and  C_21 
REMARK       I    between atoms: C_21  and  N_22 
REMARK    5  A    between atoms: N_22  and  C_23 
ROOT
HETATM    1  C   UNL     1      43.588 -18.693   7.924  1.00  0.00     0.070 C 
HETATM    2  C   UNL     1      43.615 -17.366   7.210  1.00  0.00     0.037 A 
HETATM    3  N   UNL     1      43.958 -16.268   7.991  1.00  0.00    -0.192 N 
HETATM    4  C   UNL     1      44.172 -15.038   7.485  1.00  0.00     0.725 A 
HETATM    5  N   UNL     1      43.961 -14.813   6.151  1.00  0.00    -0.084 N 
HETATM    6  N   UNL     1      44.301 -13.550   5.809  1.00  0.00    -0.149 NA
HETATM    7  C   UNL     1      44.668 -13.062   6.999  1.00  0.00     0.275 A 
HETATM    8  N   UNL     1      44.597 -13.938   8.052  1.00  0.00    -0.054 NA
HETATM    9  C   UNL     1      43.516 -15.842   5.205  1.00  0.00     0.205 A 
HETATM   10  C   UNL     1      43.381 -17.198   5.885  1.00  0.00     0.063 A 
HETATM   11  H   UNL     1      44.162 -16.430   8.973  1.00  0.00     0.184 HD
ENDROOT
BRANCH   9  12
HETATM   12  C   UNL     1      42.243 -15.389   4.485  1.00  0.00     0.005 A 
HETATM   13  C   UNL     1      42.144 -15.313   3.080  1.00  0.00     0.083 A 
HETATM   14  C   UNL     1      40.948 -14.887   2.490  1.00  0.00     0.037 A 
HETATM   15  C   UNL     1      39.847 -14.556   3.281  1.00  0.00     0.003 A 
HETATM   16  C   UNL     1      39.934 -14.632   4.666  1.00  0.00     0.001 A 
HETATM   17  C   UNL     1      41.123 -15.042   5.265  1.00  0.00     0.012 A 
BRANCH  13  18
HETATM   18  O   UNL     1      43.274 -15.613   2.370  1.00  0.00    -0.290 OA
BRANCH  18  19
HETATM   19  C   UNL     1      43.119 -16.530   1.298  1.00  0.00     0.505 C 
HETATM   20  F   UNL     1      44.314 -17.124   1.057  1.00  0.00    -0.184 F 
HETATM   21  F   UNL     1      42.288 -17.513   1.730  1.00  0.00    -0.184 F 
ENDBRANCH  18  19
ENDBRANCH  13  18
ENDBRANCH   9  12
BRANCH  10  22
HETATM   22  C   UNL     1      43.061 -18.307   4.951  1.00  0.00     0.256 C 
HETATM   23  N   UNL     1      44.169 -19.031   4.572  1.00  0.00    -0.323 N 
HETATM   24  H   UNL     1      45.055 -18.755   4.978  1.00  0.00     0.169 HD
HETATM   25  O   UNL     1      41.891 -18.501   4.649  1.00  0.00    -0.267 OA
BRANCH  23  26
HETATM   26  C   UNL     1      44.213 -20.125   3.685  1.00  0.00     0.035 A 
HETATM   27  C   UNL     1      43.850 -20.053   2.339  1.00  0.00     0.029 A 
HETATM   28  C   UNL     1      43.932 -21.185   1.521  1.00  0.00     0.002 A 
HETATM   29  C   UNL     1      44.383 -22.395   2.040  1.00  0.00     0.000 A 
HETATM   30  C   UNL     1      44.748 -22.478   3.380  1.00  0.00     0.002 A 
HETATM   31  C   UNL     1      44.659 -21.350   4.200  1.00  0.00     0.029 A 
ENDBRANCH  23  26
ENDBRANCH  10  22
TORSDOF 5
ENDMDL
MODEL 2
REMARK VINA RESULT:      -8.2      2.511      4.113
REMARK  5 active torsions:
REMARK  status: ('A' for Active; 'I' for Inactive)
REMARK    1  A    between atoms: C_9  and  C_10 
REMARK    2  A    between atoms: C_11  and  O_12 
REMARK    3  A    between atoms: O_12  and  C_13 
REMARK    4  A    between atoms: C_20  and  C_21 
REMARK       I    between atoms: C_21  and  N_22 
REMARK    5  A    between atoms: N_22  and  C_23 
ROOT
HETATM    1  C   UNL     1      40.144 -16.273   1.553  1.00  0.00     0.070 C 
HETATM    2  C   UNL     1      40.283 -15.537   2.861  1.00  0.00     0.037 A 
HETATM    3  N   UNL     1      39.756 -14.251   2.888  1.00  0.00    -0.192 N 
HETATM    4  C   UNL     1      39.663 -13.512   4.010  1.00  0.00     0.725 A 
HETATM    5  N   UNL     1      40.187 -13.995   5.179  1.00  0.00    -0.084 N 
HETATM    6  N   UNL     1      39.934 -13.160   6.211  1.00  0.00    -0.149 NA
HETATM    7  C   UNL     1      39.289 -12.174   5.577  1.00  0.00     0.275 A 
HETATM    8  N   UNL     1      39.110 -12.347   4.229  1.00  0.00    -0.054 NA
HETATM    9  C   UNL     1      40.852 -15.297   5.305  1.00  0.00     0.205 A 
HETATM   10  C   UNL     1      40.827 -16.061   3.988  1.00  0.00     0.063 A 
HETATM   11  H   UNL     1      39.323 -13.898   2.038  1.00  0.00     0.184 HD
ENDROOT
BRANCH   9  12
HETATM   12  C   UNL     1      42.258 -15.124   5.884  1.00  0.00     0.005 A 
HETATM   13  C   UNL     1      43.165 -14.152   5.413  1.00  0.00     0.083 A 
HETATM   14  C   UNL     1      44.437 -14.052   5.988  1.00  0.00     0.037 A 
HETATM   15  C   UNL     1      44.808 -14.894   7.038  1.00  0.00     0.003 A 
HETATM   16  C   UNL     1      43.919 -15.852   7.512  1.00  0.00     0.001 A 
HETATM   17  C   UNL     1      42.655 -15.969   6.938  1.00  0.00     0.012 A 
BRANCH  13  18
HETATM   18  O   UNL     1      42.750 -13.388   4.356  1.00  0.00    -0.290 OA
BRANCH  18  19
HETATM   19  C   UNL     1      43.464 -13.555   3.141  1.00  0.00     0.505 C 
HETATM   20  F   UNL     1      43.716 -14.876   2.962  1.00  0.00    -0.184 F 
HETATM   21  F   UNL     1      42.629 -13.190   2.135  1.00  0.00    -0.184 F 
ENDBRANCH  18  19
ENDBRANCH  13  18
ENDBRANCH   9  12
BRANCH  10  22
HETATM   22  C   UNL     1      41.367 -17.440   4.085  1.00  0.00     0.256 C 
HETATM   23  N   UNL     1      42.434 -17.663   3.242  1.00  0.00    -0.323 N 
HETATM   24  H   UNL     1      42.743 -16.878   2.680  1.00  0.00     0.169 HD
HETATM   25  O   UNL     1      40.873 -18.209   4.899  1.00  0.00    -0.267 OA
BRANCH  23  26
HETATM   26  C   UNL     1      43.156 -18.861   3.076  1.00  0.00     0.035 A 
HETATM   27  C   UNL     1      43.002 -19.720   1.985  1.00  0.00     0.029 A 
HETATM   28  C   UNL     1      43.766 -20.887   1.888  1.00  0.00     0.002 A 
HETATM   29  C   UNL     1      44.693 -21.204   2.876  1.00  0.00     0.000 A 
HETATM   30  C   UNL     1      44.856 -20.355   3.967  1.00  0.00     0.002 A 
HETATM   31  C   UNL     1      44.087 -19.192   4.068  1.00  0.00     0.029 A 
ENDBRANCH  23  26
ENDBRANCH  10  22
TORSDOF 5
ENDMDL
MODEL 3
REMARK VINA RESULT:      -8.2      2.597      4.682
REMARK  5 active torsions:
REMARK  status: ('A' for Active; 'I' for Inactive)
REMARK    1  A    between atoms: C_9  and  C_10 
REMARK    2  A    between atoms: C_11  and  O_12 
REMARK    3  A    between atoms: O_12  and  C_13 
REMARK    4  A    between atoms: C_20  and  C_21 
REMARK       I    between atoms: C_21  and  N_22 
REMARK    5  A    between atoms: N_22  and  C_23 
ROOT
HETATM    1  C   UNL     1      41.920 -15.244   0.302  1.00  0.00     0.070 C 
HETATM    2  C   UNL     1      41.620 -15.048   1.766  1.00  0.00     0.037 A 
HETATM    3  N   UNL     1      40.672 -14.074   2.061  1.00  0.00    -0.192 N 
HETATM    4  C   UNL     1      40.181 -13.871   3.299  1.00  0.00     0.725 A 
HETATM    5  N   UNL     1      40.688 -14.586   4.351  1.00  0.00    -0.084 N 
HETATM    6  N   UNL     1      40.025 -14.310   5.496  1.00  0.00    -0.149 NA
HETATM    7  C   UNL     1      39.159 -13.387   5.062  1.00  0.00     0.275 A 
HETATM    8  N   UNL     1      39.226 -13.085   3.727  1.00  0.00    -0.054 NA
HETATM    9  C   UNL     1      41.750 -15.591   4.224  1.00  0.00     0.205 A 
HETATM   10  C   UNL     1      42.166 -15.777   2.771  1.00  0.00     0.063 A 
HETATM   11  H   UNL     1      40.254 -13.568   1.285  1.00  0.00     0.184 HD
ENDROOT
BRANCH   9  12
HETATM   12  C   UNL     1      42.917 -15.253   5.156  1.00  0.00     0.005 A 
HETATM   13  C   UNL     1      43.512 -16.203   6.012  1.00  0.00     0.083 A 
HETATM   14  C   UNL     1      44.574 -15.823   6.840  1.00  0.00     0.037 A 
HETATM   15  C   UNL     1      45.063 -14.515   6.810  1.00  0.00     0.003 A 
HETATM   16  C   UNL     1      44.486 -13.573   5.966  1.00  0.00     0.001 A 
HETATM   17  C   UNL     1      43.419 -13.938   5.147  1.00  0.00     0.012 A 
BRANCH  13  18
HETATM   18  O   UNL     1      42.956 -17.453   6.020  1.00  0.00    -0.290 OA
BRANCH  18  19
HETATM   19  C   UNL     1      43.436 -18.349   7.010  1.00  0.00     0.505 C 
HETATM   20  F   UNL     1      42.804 -18.081   8.181  1.00  0.00    -0.184 F 
HETATM   21  F   UNL     1      43.042 -19.596   6.645  1.00  0.00    -0.184 F 
ENDBRANCH  18  19
ENDBRANCH  13  18
ENDBRANCH   9  12
BRANCH  10  22
HETATM   22  C   UNL     1      43.144 -16.874   2.564  1.00  0.00     0.256 C 
HETATM   23  N   UNL     1      42.646 -18.113   2.902  1.00  0.00    -0.323 N 
HETATM   24  H   UNL     1      41.686 -18.146   3.223  1.00  0.00     0.169 HD
HETATM   25  O   UNL     1      44.240 -16.604   2.089  1.00  0.00    -0.267 OA
BRANCH  23  26
HETATM   26  C   UNL     1      43.319 -19.349   2.845  1.00  0.00     0.035 A 
HETATM   27  C   UNL     1      44.312 -19.739   3.747  1.00  0.00     0.029 A 
HETATM   28  C   UNL     1      44.926 -20.991   3.628  1.00  0.00     0.002 A 
HETATM   29  C   UNL     1      44.548 -21.864   2.613  1.00  0.00     0.000 A 
HETATM   30  C   UNL     1      43.559 -21.486   1.709  1.00  0.00     0.002 A 
HETATM   31  C   UNL     1      42.951 -20.233   1.823  1.00  0.00     0.029 A 
ENDBRANCH  23  26
ENDBRANCH  10  22
TORSDOF 5
ENDMDL
MODEL 4
REMARK VINA RESULT:      -8.0      3.178      5.167
REMARK  5 active torsions:
REMARK  status: ('A' for Active; 'I' for Inactive)
REMARK    1  A    between atoms: C_9  and  C_10 
REMARK    2  A    between atoms: C_11  and  O_12 
REMARK    3  A    between atoms: O_12  and  C_13 
REMARK    4  A    between atoms: C_20  and  C_21 
REMARK       I    between atoms: C_21  and  N_22 
REMARK    5  A    between atoms: N_22  and  C_23 
ROOT
HETATM    1  C   UNL     1      41.251 -15.848  -0.969  1.00  0.00     0.070 C 
HETATM    2  C   UNL     1      41.036 -14.993   0.254  1.00  0.00     0.037 A 
HETATM    3  N   UNL     1      40.722 -13.661   0.010  1.00  0.00    -0.192 N 
HETATM    4  C   UNL     1      40.356 -12.798   0.977  1.00  0.00     0.725 A 
HETATM    5  N   UNL     1      40.372 -13.205   2.284  1.00  0.00    -0.084 N 
HETATM    6  N   UNL     1      39.902 -12.238   3.104  1.00  0.00    -0.149 NA
HETATM    7  C   UNL     1      39.662 -11.262   2.221  1.00  0.00     0.275 A 
HETATM    8  N   UNL     1      39.934 -11.561   0.911  1.00  0.00    -0.054 NA
HETATM    9  C   UNL     1      40.760 -14.552   2.720  1.00  0.00     0.205 A 
HETATM   10  C   UNL     1      41.080 -15.448   1.531  1.00  0.00     0.063 A 
HETATM   11  H   UNL     1      40.662 -13.357  -0.958  1.00  0.00     0.184 HD
ENDROOT
BRANCH   9  12
HETATM   12  C   UNL     1      41.891 -14.474   3.748  1.00  0.00     0.005 A 
HETATM   13  C   UNL     1      41.838 -15.128   4.996  1.00  0.00     0.083 A 
HETATM   14  C   UNL     1      42.909 -15.010   5.890  1.00  0.00     0.037 A 
HETATM   15  C   UNL     1      44.039 -14.265   5.546  1.00  0.00     0.003 A 
HETATM   16  C   UNL     1      44.103 -13.620   4.317  1.00  0.00     0.001 A 
HETATM   17  C   UNL     1      43.036 -13.720   3.425  1.00  0.00     0.012 A 
BRANCH  13  18
HETATM   18  O   UNL     1      40.684 -15.806   5.283  1.00  0.00    -0.290 OA
BRANCH  18  19
HETATM   19  C   UNL     1      40.834 -17.047   5.955  1.00  0.00     0.505 C 
HETATM   20  F   UNL     1      39.806 -17.196   6.827  1.00  0.00    -0.184 F 
HETATM   21  F   UNL     1      40.685 -18.025   5.025  1.00  0.00    -0.184 F 
ENDBRANCH  18  19
ENDBRANCH  13  18
ENDBRANCH   9  12
BRANCH  10  22
HETATM   22  C   UNL     1      41.351 -16.859   1.901  1.00  0.00     0.256 C 
HETATM   23  N   UNL     1      42.679 -17.099   2.179  1.00  0.00    -0.323 N 
HETATM   24  H   UNL     1      43.306 -16.306   2.127  1.00  0.00     0.169 HD
HETATM   25  O   UNL     1      40.411 -17.640   1.970  1.00  0.00    -0.267 OA
BRANCH  23  26
HETATM   26  C   UNL     1      43.268 -18.328   2.538  1.00  0.00     0.035 A 
HETATM   27  C   UNL     1      43.313 -19.445   1.702  1.00  0.00     0.029 A 
HETATM   28  C   UNL     1      43.928 -20.627   2.129  1.00  0.00     0.002 A 
HETATM   29  C   UNL     1      44.507 -20.699   3.392  1.00  0.00     0.000 A 
HETATM   30  C   UNL     1      44.469 -19.591   4.234  1.00  0.00     0.002 A 
HETATM   31  C   UNL     1      43.849 -18.413   3.810  1.00  0.00     0.029 A 
ENDBRANCH  23  26
ENDBRANCH  10  22
TORSDOF 5
ENDMDL
MODEL 5
REMARK VINA RESULT:      -7.8      2.757      5.310
REMARK  5 active torsions:
REMARK  status: ('A' for Active; 'I' for Inactive)
REMARK    1  A    between atoms: C_9  and  C_10 
REMARK    2  A    between atoms: C_11  and  O_12 
REMARK    3  A    between atoms: O_12  and  C_13 
REMARK    4  A    between atoms: C_20  and  C_21 
REMARK       I    between atoms: C_21  and  N_22 
REMARK    5  A    between atoms: N_22  and  C_23 
ROOT
HETATM    1  C   UNL     1      43.175 -19.701   2.168  1.00  0.00     0.070 C 
HETATM    2  C   UNL     1      43.300 -18.945   3.466  1.00  0.00     0.037 A 
HETATM    3  N   UNL     1      43.371 -19.726   4.613  1.00  0.00    -0.192 N 
HETATM    4  C   UNL     1      43.630 -19.224   5.836  1.00  0.00     0.725 A 
HETATM    5  N   UNL     1      43.746 -17.869   5.997  1.00  0.00    -0.084 N 
HETATM    6  N   UNL     1      44.083 -17.554   7.267  1.00  0.00    -0.149 NA
HETATM    7  C   UNL     1      44.112 -18.771   7.823  1.00  0.00     0.275 A 
HETATM    8  N   UNL     1      43.833 -19.818   6.984  1.00  0.00    -0.054 NA
HETATM    9  C   UNL     1      43.614 -16.899   4.904  1.00  0.00     0.205 A 
HETATM   10  C   UNL     1      43.395 -17.596   3.567  1.00  0.00     0.063 A 
HETATM   11  H   UNL     1      43.332 -20.736   4.503  1.00  0.00     0.184 HD
ENDROOT
BRANCH   9  12
HETATM   12  C   UNL     1      42.536 -15.865   5.237  1.00  0.00     0.005 A 
HETATM   13  C   UNL     1      42.824 -14.500   5.450  1.00  0.00     0.083 A 
HETATM   14  C   UNL     1      41.787 -13.610   5.755  1.00  0.00     0.037 A 
HETATM   15  C   UNL     1      40.468 -14.060   5.831  1.00  0.00     0.003 A 
HETATM   16  C   UNL     1      40.173 -15.401   5.618  1.00  0.00     0.001 A 
HETATM   17  C   UNL     1      41.199 -16.298   5.327  1.00  0.00     0.012 A 
BRANCH  13  18
HETATM   18  O   UNL     1      44.142 -14.138   5.401  1.00  0.00    -0.290 OA
BRANCH  18  19
HETATM   19  C   UNL     1      44.709 -13.660   6.610  1.00  0.00     0.505 C 
HETATM   20  F   UNL     1      44.505 -14.584   7.582  1.00  0.00    -0.184 F 
HETATM   21  F   UNL     1      46.053 -13.598   6.424  1.00  0.00    -0.184 F 
ENDBRANCH  18  19
ENDBRANCH  13  18
ENDBRANCH   9  12
BRANCH  10  22
HETATM   22  C   UNL     1      43.385 -16.673   2.405  1.00  0.00     0.256 C 
HETATM   23  N   UNL     1      42.116 -16.289   2.031  1.00  0.00    -0.323 N 
HETATM   24  H   UNL     1      41.348 -16.647   2.587  1.00  0.00     0.169 HD
HETATM   25  O   UNL     1      44.454 -16.313   1.931  1.00  0.00    -0.267 OA
BRANCH  23  26
HETATM   26  C   UNL     1      41.759 -15.444   0.961  1.00  0.00     0.035 A 
HETATM   27  C   UNL     1      41.767 -14.049   1.033  1.00  0.00     0.029 A 
HETATM   28  C   UNL     1      41.409 -13.280  -0.078  1.00  0.00     0.002 A 
HETATM   29  C   UNL     1      41.047 -13.897  -1.272  1.00  0.00     0.000 A 
HETATM   30  C   UNL     1      41.037 -15.286  -1.356  1.00  0.00     0.002 A 
HETATM   31  C   UNL     1      41.387 -16.055  -0.243  1.00  0.00     0.029 A 
ENDBRANCH  23  26
ENDBRANCH  10  22
TORSDOF 5
ENDMDL
MODEL 6
REMARK VINA RESULT:      -7.5      2.745      3.455
REMARK  5 active torsions:
REMARK  status: ('A' for Active; 'I' for Inactive)
REMARK    1  A    between atoms: C_9  and  C_10 
REMARK    2  A    between atoms: C_11  and  O_12 
REMARK    3  A    between atoms: O_12  and  C_13 
REMARK    4  A    between atoms: C_20  and  C_21 
REMARK       I    between atoms: C_21  and  N_22 
REMARK    5  A    between atoms: N_22  and  C_23 
ROOT
HETATM    1  C   UNL     1      43.120 -15.976   6.592  1.00  0.00     0.070 C 
HETATM    2  C   UNL     1      42.629 -14.842   5.728  1.00  0.00     0.037 A 
HETATM    3  N   UNL     1      42.114 -13.746   6.411  1.00  0.00    -0.192 N 
HETATM    4  C   UNL     1      41.769 -12.593   5.805  1.00  0.00     0.725 A 
HETATM    5  N   UNL     1      41.836 -12.502   4.441  1.00  0.00    -0.084 N 
HETATM    6  N   UNL     1      41.531 -11.255   4.017  1.00  0.00    -0.149 NA
HETATM    7  C   UNL     1      41.249 -10.662   5.183  1.00  0.00     0.275 A 
HETATM    8  N   UNL     1      41.375 -11.447   6.299  1.00  0.00    -0.054 NA
HETATM    9  C   UNL     1      42.277 -13.595   3.566  1.00  0.00     0.205 A 
HETATM   10  C   UNL     1      42.706 -14.812   4.375  1.00  0.00     0.063 A 
HETATM   11  H   UNL     1      42.100 -13.782   7.426  1.00  0.00     0.184 HD
ENDROOT
BRANCH   9  12
HETATM   12  C   UNL     1      41.206 -13.904   2.518  1.00  0.00     0.005 A 
HETATM   13  C   UNL     1      41.296 -13.467   1.180  1.00  0.00     0.083 A 
HETATM   14  C   UNL     1      40.276 -13.785   0.275  1.00  0.00     0.037 A 
HETATM   15  C   UNL     1      39.180 -14.547   0.683  1.00  0.00     0.003 A 
HETATM   16  C   UNL     1      39.085 -14.986   1.998  1.00  0.00     0.001 A 
HETATM   17  C   UNL     1      40.087 -14.664   2.910  1.00  0.00     0.012 A 
BRANCH  13  18
HETATM   18  O   UNL     1      42.377 -12.691   0.861  1.00  0.00    -0.290 OA
BRANCH  18  19
HETATM   19  C   UNL     1      42.196 -11.768  -0.201  1.00  0.00     0.505 C 
HETATM   20  F   UNL     1      42.782 -10.592   0.141  1.00  0.00    -0.184 F 
HETATM   21  F   UNL     1      42.894 -12.241  -1.265  1.00  0.00    -0.184 F 
ENDBRANCH  18  19
ENDBRANCH  13  18
ENDBRANCH   9  12
BRANCH  10  22
HETATM   22  C   UNL     1      43.287 -15.903   3.552  1.00  0.00     0.256 C 
HETATM   23  N   UNL     1      42.947 -17.159   4.004  1.00  0.00    -0.323 N 
HETATM   24  H   UNL     1      42.335 -17.204   4.810  1.00  0.00     0.169 HD
HETATM   25  O   UNL     1      43.947 -15.608   2.565  1.00  0.00    -0.267 OA
BRANCH  23  26
HETATM   26  C   UNL     1      43.347 -18.398   3.465  1.00  0.00     0.035 A 
HETATM   27  C   UNL     1      42.888 -18.905   2.248  1.00  0.00     0.029 A 
HETATM   28  C   UNL     1      43.343 -20.141   1.777  1.00  0.00     0.002 A 
HETATM   29  C   UNL     1      44.266 -20.877   2.515  1.00  0.00     0.000 A 
HETATM   30  C   UNL     1      44.731 -20.381   3.729  1.00  0.00     0.002 A 
HETATM   31  C   UNL     1      44.271 -19.150   4.204  1.00  0.00     0.029 A 
ENDBRANCH  23  26
ENDBRANCH  10  22
TORSDOF 5
ENDMDL
MODEL 7
REMARK VINA RESULT:      -7.5      2.354      2.819
REMARK  5 active torsions:
REMARK  status: ('A' for Active; 'I' for Inactive)
REMARK    1  A    between atoms: C_9  and  C_10 
REMARK    2  A    between atoms: C_11  and  O_12 
REMARK    3  A    between atoms: O_12  and  C_13 
REMARK    4  A    between atoms: C_20  and  C_21 
REMARK       I    between atoms: C_21  and  N_22 
REMARK    5  A    between atoms: N_22  and  C_23 
ROOT
HETATM    1  C   UNL     1      40.577 -17.025   6.617  1.00  0.00     0.070 C 
HETATM    2  C   UNL     1      40.788 -15.838   5.712  1.00  0.00     0.037 A 
HETATM    3  N   UNL     1      40.621 -14.592   6.305  1.00  0.00    -0.192 N 
HETATM    4  C   UNL     1      40.913 -13.432   5.685  1.00  0.00     0.725 A 
HETATM    5  N   UNL     1      41.310 -13.451   4.374  1.00  0.00    -0.084 N 
HETATM    6  N   UNL     1      41.635 -12.211   3.944  1.00  0.00    -0.149 NA
HETATM    7  C   UNL     1      41.366 -11.492   5.039  1.00  0.00     0.275 A 
HETATM    8  N   UNL     1      40.915 -12.199   6.123  1.00  0.00    -0.054 NA
HETATM    9  C   UNL     1      41.455 -14.675   3.578  1.00  0.00     0.205 A 
HETATM   10  C   UNL     1      41.167 -15.916   4.412  1.00  0.00     0.063 A 
HETATM   11  H   UNL     1      40.371 -14.564   7.290  1.00  0.00     0.184 HD
ENDROOT
BRANCH   9  12
HETATM   12  C   UNL     1      40.610 -14.585   2.305  1.00  0.00     0.005 A 
HETATM   13  C   UNL     1      41.133 -14.842   1.020  1.00  0.00     0.083 A 
HETATM   14  C   UNL     1      40.302 -14.737  -0.102  1.00  0.00     0.037 A 
HETATM   15  C   UNL     1      38.955 -14.400   0.044  1.00  0.00     0.003 A 
HETATM   16  C   UNL     1      38.430 -14.149   1.306  1.00  0.00     0.001 A 
HETATM   17  C   UNL     1      39.251 -14.237   2.428  1.00  0.00     0.012 A 
BRANCH  13  18
HETATM   18  O   UNL     1      42.469 -15.127   0.948  1.00  0.00    -0.290 OA
BRANCH  18  19
HETATM   19  C   UNL     1      42.819 -16.345   0.310  1.00  0.00     0.505 C 
HETATM   20  F   UNL     1      43.871 -16.894   0.969  1.00  0.00    -0.184 F 
HETATM   21  F   UNL     1      41.778 -17.199   0.482  1.00  0.00    -0.184 F 
ENDBRANCH  18  19
ENDBRANCH  13  18
ENDBRANCH   9  12
BRANCH  10  22
HETATM   22  C   UNL     1      41.425 -17.191   3.697  1.00  0.00     0.256 C 
HETATM   23  N   UNL     1      42.673 -17.713   3.957  1.00  0.00    -0.323 N 
HETATM   24  H   UNL     1      43.256 -17.200   4.608  1.00  0.00     0.169 HD
HETATM   25  O   UNL     1      40.534 -17.670   3.009  1.00  0.00    -0.267 OA
BRANCH  23  26
HETATM   26  C   UNL     1      43.234 -18.891   3.425  1.00  0.00     0.035 A 
HETATM   27  C   UNL     1      42.856 -19.453   2.204  1.00  0.00     0.029 A 
HETATM   28  C   UNL     1      43.470 -20.620   1.740  1.00  0.00     0.002 A 
HETATM   29  C   UNL     1      44.472 -21.232   2.488  1.00  0.00     0.000 A 
HETATM   30  C   UNL     1      44.857 -20.680   3.706  1.00  0.00     0.002 A 
HETATM   31  C   UNL     1      44.239 -19.518   4.174  1.00  0.00     0.029 A 
ENDBRANCH  23  26
ENDBRANCH  10  22
TORSDOF 5
ENDMDL
MODEL 8
REMARK VINA RESULT:      -7.5      2.527      6.298
REMARK  5 active torsions:
REMARK  status: ('A' for Active; 'I' for Inactive)
REMARK    1  A    between atoms: C_9  and  C_10 
REMARK    2  A    between atoms: C_11  and  O_12 
REMARK    3  A    between atoms: O_12  and  C_13 
REMARK    4  A    between atoms: C_20  and  C_21 
REMARK       I    between atoms: C_21  and  N_22 
REMARK    5  A    between atoms: N_22  and  C_23 
ROOT
HETATM    1  C   UNL     1      44.891 -14.025   6.989  1.00  0.00     0.070 C 
HETATM    2  C   UNL     1      44.286 -15.275   6.404  1.00  0.00     0.037 A 
HETATM    3  N   UNL     1      44.776 -16.474   6.909  1.00  0.00    -0.192 N 
HETATM    4  C   UNL     1      44.248 -17.676   6.607  1.00  0.00     0.725 A 
HETATM    5  N   UNL     1      43.233 -17.753   5.691  1.00  0.00    -0.084 N 
HETATM    6  N   UNL     1      42.776 -19.020   5.574  1.00  0.00    -0.149 NA
HETATM    7  C   UNL     1      43.594 -19.656   6.420  1.00  0.00     0.275 A 
HETATM    8  N   UNL     1      44.513 -18.872   7.066  1.00  0.00    -0.054 NA
HETATM    9  C   UNL     1      42.657 -16.592   5.003  1.00  0.00     0.205 A 
HETATM   10  C   UNL     1      43.290 -15.293   5.484  1.00  0.00     0.063 A 
HETATM   11  H   UNL     1      45.498 -16.429   7.623  1.00  0.00     0.184 HD
ENDROOT
BRANCH   9  12
HETATM   12  C   UNL     1      42.730 -16.783   3.486  1.00  0.00     0.005 A 
HETATM   13  C   UNL     1      41.613 -16.623   2.640  1.00  0.00     0.083 A 
HETATM   14  C   UNL     1      41.752 -16.816   1.261  1.00  0.00     0.037 A 
HETATM   15  C   UNL     1      42.993 -17.146   0.714  1.00  0.00     0.003 A 
HETATM   16  C   UNL     1      44.101 -17.301   1.539  1.00  0.00     0.001 A 
HETATM   17  C   UNL     1      43.971 -17.125   2.914  1.00  0.00     0.012 A 
BRANCH  13  18
HETATM   18  O   UNL     1      40.420 -16.340   3.248  1.00  0.00    -0.290 OA
BRANCH  18  19
HETATM   19  C   UNL     1      39.762 -15.157   2.823  1.00  0.00     0.505 C 
HETATM   20  F   UNL     1      40.677 -14.331   2.255  1.00  0.00    -0.184 F 
HETATM   21  F   UNL     1      38.906 -15.510   1.831  1.00  0.00    -0.184 F 
ENDBRANCH  18  19
ENDBRANCH  13  18
ENDBRANCH   9  12
BRANCH  10  22
HETATM   22  C   UNL     1      42.658 -14.075   4.920  1.00  0.00     0.256 C 
HETATM   23  N   UNL     1      41.610 -13.608   5.682  1.00  0.00    -0.323 N 
HETATM   24  H   UNL     1      41.404 -14.116   6.534  1.00  0.00     0.169 HD
HETATM   25  O   UNL     1      43.128 -13.586   3.901  1.00  0.00    -0.267 OA
BRANCH  23  26
HETATM   26  C   UNL     1      40.791 -12.492   5.417  1.00  0.00     0.035 A 
HETATM   27  C   UNL     1      39.476 -12.583   4.954  1.00  0.00     0.029 A 
HETATM   28  C   UNL     1      38.724 -11.426   4.725  1.00  0.00     0.002 A 
HETATM   29  C   UNL     1      39.277 -10.171   4.962  1.00  0.00     0.000 A 
HETATM   30  C   UNL     1      40.586 -10.069   5.424  1.00  0.00     0.002 A 
HETATM   31  C   UNL     1      41.340 -11.225   5.646  1.00  0.00     0.029 A 
ENDBRANCH  23  26
ENDBRANCH  10  22
TORSDOF 5
ENDMDL
MODEL 9
REMARK VINA RESULT:      -7.4      2.928      5.279
REMARK  5 active torsions:
REMARK  status: ('A' for Active; 'I' for Inactive)
REMARK    1  A    between atoms: C_9  and  C_10 
REMARK    2  A    between atoms: C_11  and  O_12 
REMARK    3  A    between atoms: O_12  and  C_13 
REMARK    4  A    between atoms: C_20  and  C_21 
REMARK       I    between atoms: C_21  and  N_22 
REMARK    5  A    between atoms: N_22  and  C_23 
ROOT
HETATM    1  C   UNL     1      41.411 -12.257   6.035  1.00  0.00     0.070 C 
HETATM    2  C   UNL     1      41.693 -12.623   4.600  1.00  0.00     0.037 A 
HETATM    3  N   UNL     1      41.073 -11.829   3.643  1.00  0.00    -0.192 N 
HETATM    4  C   UNL     1      41.330 -11.923   2.324  1.00  0.00     0.725 A 
HETATM    5  N   UNL     1      42.174 -12.902   1.870  1.00  0.00    -0.084 N 
HETATM    6  N   UNL     1      42.375 -12.796   0.538  1.00  0.00    -0.149 NA
HETATM    7  C   UNL     1      41.586 -11.754   0.252  1.00  0.00     0.275 A 
HETATM    8  N   UNL     1      40.923 -11.197   1.314  1.00  0.00    -0.054 NA
HETATM    9  C   UNL     1      42.844 -13.876   2.740  1.00  0.00     0.205 A 
HETATM   10  C   UNL     1      42.529 -13.617   4.207  1.00  0.00     0.063 A 
HETATM   11  H   UNL     1      40.480 -11.070   3.967  1.00  0.00     0.184 HD
ENDROOT
BRANCH   9  12
HETATM   12  C   UNL     1      42.523 -15.302   2.288  1.00  0.00     0.005 A 
HETATM   13  C   UNL     1      41.209 -15.812   2.238  1.00  0.00     0.083 A 
HETATM   14  C   UNL     1      40.989 -17.129   1.817  1.00  0.00     0.037 A 
HETATM   15  C   UNL     1      42.060 -17.935   1.428  1.00  0.00     0.003 A 
HETATM   16  C   UNL     1      43.358 -17.441   1.469  1.00  0.00     0.001 A 
HETATM   17  C   UNL     1      43.589 -16.136   1.899  1.00  0.00     0.012 A 
BRANCH  13  18
HETATM   18  O   UNL     1      40.213 -14.980   2.673  1.00  0.00    -0.290 OA
BRANCH  18  19
HETATM   19  C   UNL     1      39.132 -14.771   1.778  1.00  0.00     0.505 C 
HETATM   20  F   UNL     1      38.510 -13.612   2.110  1.00  0.00    -0.184 F 
HETATM   21  F   UNL     1      39.667 -14.572   0.546  1.00  0.00    -0.184 F 
ENDBRANCH  18  19
ENDBRANCH  13  18
ENDBRANCH   9  12
BRANCH  10  22
HETATM   22  C   UNL     1      43.282 -14.488   5.144  1.00  0.00     0.256 C 
HETATM   23  N   UNL     1      42.675 -15.706   5.356  1.00  0.00    -0.323 N 
HETATM   24  H   UNL     1      41.817 -15.883   4.846  1.00  0.00     0.169 HD
HETATM   25  O   UNL     1      44.349 -14.087   5.590  1.00  0.00    -0.267 OA
BRANCH  23  26
HETATM   26  C   UNL     1      43.115 -16.745   6.199  1.00  0.00     0.035 A 
HETATM   27  C   UNL     1      43.182 -16.646   7.591  1.00  0.00     0.029 A 
HETATM   28  C   UNL     1      43.621 -17.729   8.359  1.00  0.00     0.002 A 
HETATM   29  C   UNL     1      43.991 -18.921   7.744  1.00  0.00     0.000 A 
HETATM   30  C   UNL     1      43.928 -19.032   6.358  1.00  0.00     0.002 A 
HETATM   31  C   UNL     1      43.496 -17.947   5.589  1.00  0.00     0.029 A 
ENDBRANCH  23  26
ENDBRANCH  10  22
TORSDOF 5
ENDMDL
MODEL 10
REMARK VINA RESULT:      -7.3      3.470      5.581
REMARK  5 active torsions:
REMARK  status: ('A' for Active; 'I' for Inactive)
REMARK    1  A    between atoms: C_9  and  C_10 
REMARK    2  A    between atoms: C_11  and  O_12 
REMARK    3  A    between atoms: O_12  and  C_13 
REMARK    4  A    between atoms: C_20  and  C_21 
REMARK       I    between atoms: C_21  and  N_22 
REMARK    5  A    between atoms: N_22  and  C_23 
ROOT
HETATM    1  C   UNL     1      43.557 -17.678   0.969  1.00  0.00     0.070 C 
HETATM    2  C   UNL     1      42.422 -16.690   1.051  1.00  0.00     0.037 A 
HETATM    3  N   UNL     1      42.109 -16.033  -0.133  1.00  0.00    -0.192 N 
HETATM    4  C   UNL     1      41.035 -15.232  -0.274  1.00  0.00     0.725 A 
HETATM    5  N   UNL     1      40.246 -14.966   0.814  1.00  0.00    -0.084 N 
HETATM    6  N   UNL     1      39.177 -14.214   0.471  1.00  0.00    -0.149 NA
HETATM    7  C   UNL     1      39.413 -14.031  -0.833  1.00  0.00     0.275 A 
HETATM    8  N   UNL     1      40.543 -14.630  -1.327  1.00  0.00    -0.054 NA
HETATM    9  C   UNL     1      40.487 -15.511   2.155  1.00  0.00     0.205 A 
HETATM   10  C   UNL     1      41.682 -16.454   2.163  1.00  0.00     0.063 A 
HETATM   11  H   UNL     1      42.657 -16.256  -0.959  1.00  0.00     0.184 HD
ENDROOT
BRANCH   9  12
HETATM   12  C   UNL     1      40.594 -14.379   3.179  1.00  0.00     0.005 A 
HETATM   13  C   UNL     1      41.435 -13.261   2.998  1.00  0.00     0.083 A 
HETATM   14  C   UNL     1      41.486 -12.263   3.979  1.00  0.00     0.037 A 
HETATM   15  C   UNL     1      40.695 -12.357   5.125  1.00  0.00     0.003 A 
HETATM   16  C   UNL     1      39.859 -13.452   5.310  1.00  0.00     0.001 A 
HETATM   17  C   UNL     1      39.811 -14.458   4.347  1.00  0.00     0.012 A 
BRANCH  13  18
HETATM   18  O   UNL     1      42.212 -13.255   1.872  1.00  0.00    -0.290 OA
BRANCH  18  19
HETATM   19  C   UNL     1      42.197 -12.063   1.103  1.00  0.00     0.505 C 
HETATM   20  F   UNL     1      42.585 -12.356  -0.163  1.00  0.00    -0.184 F 
HETATM   21  F   UNL     1      40.903 -11.660   1.017  1.00  0.00    -0.184 F 
ENDBRANCH  18  19
ENDBRANCH  13  18
ENDBRANCH   9  12
BRANCH  10  22
HETATM   22  C   UNL     1      41.895 -17.139   3.463  1.00  0.00     0.256 C 
HETATM   23  N   UNL     1      42.960 -16.630   4.174  1.00  0.00    -0.323 N 
HETATM   24  H   UNL     1      43.454 -15.849   3.759  1.00  0.00     0.169 HD
HETATM   25  O   UNL     1      41.117 -18.023   3.796  1.00  0.00    -0.267 OA
BRANCH  23  26
HETATM   26  C   UNL     1      43.439 -17.067   5.425  1.00  0.00     0.035 A 
HETATM   27  C   UNL     1      44.486 -17.978   5.585  1.00  0.00     0.029 A 
HETATM   28  C   UNL     1      44.910 -18.353   6.863  1.00  0.00     0.002 A 
HETATM   29  C   UNL     1      44.297 -17.817   7.992  1.00  0.00     0.000 A 
HETATM   30  C   UNL     1      43.253 -16.909   7.845  1.00  0.00     0.002 A 
HETATM   31  C   UNL     1      42.824 -16.539   6.567  1.00  0.00     0.029 A 
ENDBRANCH  23  26
ENDBRANCH  10  22
TORSDOF 5
ENDMDL
