MODEL 1
REMARK VINA RESULT:      -8.1      0.000      0.000
REMARK  9 active torsions:
REMARK  status: ('A' for Active; 'I' for Inactive)
REMARK    1  A    between atoms: O_2  and  C_3 
REMARK    2  A    between atoms: C_3  and  C_4 
REMARK    3  A    between atoms: C_4  and  O_5 
REMARK    4  A    between atoms: O_5  and  C_6 
REMARK       I    between atoms: C_6  and  N_8 
REMARK    5  A    between atoms: N_15  and  C_28 
REMARK    6  A    between atoms: N_18  and  C_19 
REMARK    7  A    between atoms: C_19  and  C_20 
REMARK    8  A    between atoms: C_24  and  O_25 
REMARK    9  A    between atoms: C_31  and  C_34 
ROOT
HETATM    1  C   UNL     1      39.549  -9.839   6.038  1.00  0.00     0.362 C 
HETATM    2  O   UNL     1      38.348  -9.596   5.984  1.00  0.00    -0.238 OA
HETATM    3  N   UNL     1      40.090 -11.123   5.894  1.00  0.00    -0.328 N 
HETATM    4  C   UNL     1      41.518 -11.258   5.621  1.00  0.00     0.130 C 
HETATM    5  C   UNL     1      42.021 -12.695   5.607  1.00  0.00     0.053 C 
HETATM    6  C   UNL     1      41.139 -13.660   4.791  1.00  0.00     0.057 C 
HETATM    7  C   UNL     1      39.684 -13.526   5.257  1.00  0.00     0.053 C 
HETATM    8  C   UNL     1      39.169 -12.099   5.331  1.00  0.00     0.130 C 
HETATM    9  C   UNL     1      41.615 -15.116   5.066  1.00  0.00     0.165 C 
HETATM   10  N   UNL     1      42.349 -15.531   3.890  1.00  0.00    -0.297 N 
HETATM   11  C   UNL     1      42.185 -14.590   2.860  1.00  0.00     0.326 C 
HETATM   12  O   UNL     1      42.614 -14.635   1.716  1.00  0.00    -0.247 OA
HETATM   13  N   UNL     1      41.373 -13.553   3.343  1.00  0.00    -0.318 N 
ENDROOT
BRANCH  13  14
HETATM   14  C   UNL     1      40.902 -12.509   2.439  1.00  0.00     0.167 C 
BRANCH  14  15
HETATM   15  C   UNL     1      39.871 -12.972   1.431  1.00  0.00    -0.037 A 
HETATM   16  C   UNL     1      38.661 -13.557   1.830  1.00  0.00     0.009 A 
HETATM   17  C   UNL     1      37.747 -14.012   0.881  1.00  0.00     0.003 A 
HETATM   18  C   UNL     1      38.031 -13.888  -0.478  1.00  0.00     0.037 A 
HETATM   19  C   UNL     1      39.231 -13.319  -0.900  1.00  0.00     0.068 A 
HETATM   20  C   UNL     1      40.157 -12.892   0.055  1.00  0.00     0.045 A 
BRANCH  19  21
HETATM   21  O   UNL     1      39.394 -13.248  -2.255  1.00  0.00    -0.356 OA
HETATM   22  C   UNL     1      38.921 -12.066  -2.893  1.00  0.00     0.210 C 
ENDBRANCH  19  21
ENDBRANCH  14  15
ENDBRANCH  13  14
BRANCH  10  23
HETATM   23  C   UNL     1      42.889 -16.843   3.752  1.00  0.00     0.039 A 
HETATM   24  C   UNL     1      42.645 -17.631   2.622  1.00  0.00     0.030 A 
HETATM   25  C   UNL     1      43.103 -18.954   2.538  1.00  0.00     0.014 A 
HETATM   26  C   UNL     1      43.837 -19.525   3.579  1.00  0.00    -0.023 A 
HETATM   27  C   UNL     1      44.128 -18.734   4.693  1.00  0.00     0.014 A 
HETATM   28  C   UNL     1      43.657 -17.414   4.778  1.00  0.00     0.030 A 
BRANCH  26  29
HETATM   29  C   UNL     1      44.276 -20.906   3.518  1.00  0.00     0.010 A 
HETATM   30  C   UNL     1      44.368 -21.806   2.433  1.00  0.00     0.152 A 
HETATM   31  N   UNL     1      44.863 -22.995   2.788  1.00  0.00    -0.187 NA
HETATM   32  N   UNL     1      45.092 -22.859   4.103  1.00  0.00    -0.289 N 
HETATM   33  H   UNL     1      45.485 -23.647   4.608  1.00  0.00     0.188 HD
HETATM   34  C   UNL     1      44.762 -21.628   4.589  1.00  0.00     0.123 A 
ENDBRANCH  26  29
ENDBRANCH  10  23
BRANCH   1  35
HETATM   35  O   UNL     1      40.503  -8.878   6.168  1.00  0.00    -0.302 OA
BRANCH  35  36
HETATM   36  C   UNL     1      40.405  -8.070   7.349  1.00  0.00     0.207 C 
BRANCH  36  37
HETATM   37  C   UNL     1      40.797  -8.833   8.608  1.00  0.00     0.193 C 
BRANCH  37  38
HETATM   38  O   UNL     1      42.116  -9.353   8.432  1.00  0.00    -0.394 OA
HETATM   39  C   UNL     1      42.307 -10.565   9.147  1.00  0.00     0.201 C 
ENDBRANCH  37  38
ENDBRANCH  36  37
ENDBRANCH  35  36
ENDBRANCH   1  35
TORSDOF 9
ENDMDL
MODEL 2
REMARK VINA RESULT:      -8.1      3.364      7.953
REMARK  9 active torsions:
REMARK  status: ('A' for Active; 'I' for Inactive)
REMARK    1  A    between atoms: O_2  and  C_3 
REMARK    2  A    between atoms: C_3  and  C_4 
REMARK    3  A    between atoms: C_4  and  O_5 
REMARK    4  A    between atoms: O_5  and  C_6 
REMARK       I    between atoms: C_6  and  N_8 
REMARK    5  A    between atoms: N_15  and  C_28 
REMARK    6  A    between atoms: N_18  and  C_19 
REMARK    7  A    between atoms: C_19  and  C_20 
REMARK    8  A    between atoms: C_24  and  O_25 
REMARK    9  A    between atoms: C_31  and  C_34 
ROOT
HETATM    1  C   UNL     1      44.410 -13.824   6.657  1.00  0.00     0.362 C 
HETATM    2  O   UNL     1      45.498 -14.386   6.727  1.00  0.00    -0.238 OA
HETATM    3  N   UNL     1      43.705 -13.641   5.460  1.00  0.00    -0.328 N 
HETATM    4  C   UNL     1      42.290 -13.289   5.525  1.00  0.00     0.130 C 
HETATM    5  C   UNL     1      41.655 -12.993   4.173  1.00  0.00     0.053 C 
HETATM    6  C   UNL     1      41.989 -14.030   3.083  1.00  0.00     0.057 C 
HETATM    7  C   UNL     1      43.510 -14.217   3.016  1.00  0.00     0.053 C 
HETATM    8  C   UNL     1      44.178 -14.463   4.357  1.00  0.00     0.130 C 
HETATM    9  C   UNL     1      41.497 -13.480   1.712  1.00  0.00     0.165 C 
HETATM   10  N   UNL     1      40.293 -14.216   1.389  1.00  0.00    -0.297 N 
HETATM   11  C   UNL     1      40.125 -15.285   2.284  1.00  0.00     0.326 C 
HETATM   12  O   UNL     1      39.255 -16.143   2.286  1.00  0.00    -0.247 OA
HETATM   13  N   UNL     1      41.185 -15.255   3.202  1.00  0.00    -0.318 N 
ENDROOT
BRANCH  13  14
HETATM   14  C   UNL     1      41.359 -16.344   4.158  1.00  0.00     0.167 C 
BRANCH  14  15
HETATM   15  C   UNL     1      42.287 -17.446   3.689  1.00  0.00    -0.037 A 
HETATM   16  C   UNL     1      42.316 -17.865   2.353  1.00  0.00     0.009 A 
HETATM   17  C   UNL     1      43.150 -18.910   1.956  1.00  0.00     0.003 A 
HETATM   18  C   UNL     1      43.964 -19.547   2.891  1.00  0.00     0.037 A 
HETATM   19  C   UNL     1      43.945 -19.155   4.228  1.00  0.00     0.068 A 
HETATM   20  C   UNL     1      43.086 -18.128   4.626  1.00  0.00     0.045 A 
BRANCH  19  21
HETATM   21  O   UNL     1      44.790 -19.851   5.047  1.00  0.00    -0.356 OA
HETATM   22  C   UNL     1      45.096 -21.187   4.660  1.00  0.00     0.210 C 
ENDBRANCH  19  21
ENDBRANCH  14  15
ENDBRANCH  13  14
BRANCH  10  23
HETATM   23  C   UNL     1      39.589 -14.025   0.165  1.00  0.00     0.039 A 
HETATM   24  C   UNL     1      38.290 -13.505   0.129  1.00  0.00     0.030 A 
HETATM   25  C   UNL     1      37.571 -13.409  -1.072  1.00  0.00     0.014 A 
HETATM   26  C   UNL     1      38.139 -13.816  -2.279  1.00  0.00    -0.023 A 
HETATM   27  C   UNL     1      39.453 -14.293  -2.266  1.00  0.00     0.014 A 
HETATM   28  C   UNL     1      40.164 -14.399  -1.059  1.00  0.00     0.030 A 
BRANCH  26  29
HETATM   29  C   UNL     1      37.388 -13.760  -3.519  1.00  0.00     0.010 A 
HETATM   30  C   UNL     1      36.733 -14.773  -4.256  1.00  0.00     0.152 A 
HETATM   31  N   UNL     1      36.113 -14.304  -5.342  1.00  0.00    -0.187 NA
HETATM   32  N   UNL     1      36.366 -12.986  -5.303  1.00  0.00    -0.289 N 
HETATM   33  H   UNL     1      35.984 -12.400  -6.037  1.00  0.00     0.188 HD
HETATM   34  C   UNL     1      37.122 -12.609  -4.231  1.00  0.00     0.123 A 
ENDBRANCH  26  29
ENDBRANCH  10  23
BRANCH   1  35
HETATM   35  O   UNL     1      43.724 -13.380   7.745  1.00  0.00    -0.302 OA
BRANCH  35  36
HETATM   36  C   UNL     1      44.471 -12.553   8.648  1.00  0.00     0.207 C 
BRANCH  36  37
HETATM   37  C   UNL     1      43.651 -11.383   9.177  1.00  0.00     0.193 C 
BRANCH  37  38
HETATM   38  O   UNL     1      43.426 -11.581  10.574  1.00  0.00    -0.394 OA
HETATM   39  C   UNL     1      44.342 -12.513  11.130  1.00  0.00     0.201 C 
ENDBRANCH  37  38
ENDBRANCH  36  37
ENDBRANCH  35  36
ENDBRANCH   1  35
TORSDOF 9
ENDMDL
MODEL 3
REMARK VINA RESULT:      -7.8      3.462      9.816
REMARK  9 active torsions:
REMARK  status: ('A' for Active; 'I' for Inactive)
REMARK    1  A    between atoms: O_2  and  C_3 
REMARK    2  A    between atoms: C_3  and  C_4 
REMARK    3  A    between atoms: C_4  and  O_5 
REMARK    4  A    between atoms: O_5  and  C_6 
REMARK       I    between atoms: C_6  and  N_8 
REMARK    5  A    between atoms: N_15  and  C_28 
REMARK    6  A    between atoms: N_18  and  C_19 
REMARK    7  A    between atoms: C_19  and  C_20 
REMARK    8  A    between atoms: C_24  and  O_25 
REMARK    9  A    between atoms: C_31  and  C_34 
ROOT
HETATM    1  C   UNL     1      43.927 -19.462   5.023  1.00  0.00     0.362 C 
HETATM    2  O   UNL     1      43.921 -19.487   6.249  1.00  0.00    -0.238 OA
HETATM    3  N   UNL     1      42.997 -18.749   4.255  1.00  0.00    -0.328 N 
HETATM    4  C   UNL     1      43.294 -18.494   2.849  1.00  0.00     0.130 C 
HETATM    5  C   UNL     1      42.164 -17.823   2.080  1.00  0.00     0.053 C 
HETATM    6  C   UNL     1      41.537 -16.619   2.811  1.00  0.00     0.057 C 
HETATM    7  C   UNL     1      41.143 -17.045   4.231  1.00  0.00     0.053 C 
HETATM    8  C   UNL     1      42.235 -17.763   5.005  1.00  0.00     0.130 C 
HETATM    9  C   UNL     1      40.249 -16.194   2.047  1.00  0.00     0.165 C 
HETATM   10  N   UNL     1      40.588 -14.986   1.325  1.00  0.00    -0.297 N 
HETATM   11  C   UNL     1      41.847 -14.515   1.733  1.00  0.00     0.326 C 
HETATM   12  O   UNL     1      42.428 -13.500   1.380  1.00  0.00    -0.247 OA
HETATM   13  N   UNL     1      42.351 -15.400   2.697  1.00  0.00    -0.318 N 
ENDROOT
BRANCH  13  14
HETATM   14  C   UNL     1      43.578 -15.078   3.418  1.00  0.00     0.167 C 
BRANCH  14  15
HETATM   15  C   UNL     1      43.366 -14.289   4.694  1.00  0.00    -0.037 A 
HETATM   16  C   UNL     1      42.324 -13.361   4.820  1.00  0.00     0.009 A 
HETATM   17  C   UNL     1      42.174 -12.618   5.991  1.00  0.00     0.003 A 
HETATM   18  C   UNL     1      43.066 -12.794   7.048  1.00  0.00     0.037 A 
HETATM   19  C   UNL     1      44.116 -13.704   6.941  1.00  0.00     0.068 A 
HETATM   20  C   UNL     1      44.280 -14.424   5.756  1.00  0.00     0.045 A 
BRANCH  19  21
HETATM   21  O   UNL     1      44.920 -13.791   8.044  1.00  0.00    -0.356 OA
HETATM   22  C   UNL     1      45.560 -12.589   8.462  1.00  0.00     0.210 C 
ENDBRANCH  19  21
ENDBRANCH  14  15
ENDBRANCH  13  14
BRANCH  10  23
HETATM   23  C   UNL     1      39.631 -14.266   0.552  1.00  0.00     0.039 A 
HETATM   24  C   UNL     1      39.770 -14.093  -0.829  1.00  0.00     0.030 A 
HETATM   25  C   UNL     1      38.872 -13.305  -1.564  1.00  0.00     0.014 A 
HETATM   26  C   UNL     1      37.795 -12.678  -0.939  1.00  0.00    -0.023 A 
HETATM   27  C   UNL     1      37.615 -12.880   0.432  1.00  0.00     0.014 A 
HETATM   28  C   UNL     1      38.524 -13.660   1.165  1.00  0.00     0.030 A 
BRANCH  26  29
HETATM   29  C   UNL     1      36.887 -11.826  -1.684  1.00  0.00     0.010 A 
HETATM   30  C   UNL     1      35.828 -10.995  -1.254  1.00  0.00     0.152 A 
HETATM   31  N   UNL     1      35.248 -10.334  -2.260  1.00  0.00    -0.187 NA
HETATM   32  N   UNL     1      35.936 -10.739  -3.339  1.00  0.00    -0.289 N 
HETATM   33  H   UNL     1      35.680 -10.359  -4.245  1.00  0.00     0.188 HD
HETATM   34  C   UNL     1      36.930 -11.628  -3.049  1.00  0.00     0.123 A 
ENDBRANCH  26  29
ENDBRANCH  10  23
BRANCH   1  35
HETATM   35  O   UNL     1      44.886 -20.060   4.265  1.00  0.00    -0.302 OA
BRANCH  35  36
HETATM   36  C   UNL     1      45.207 -21.409   4.633  1.00  0.00     0.207 C 
BRANCH  36  37
HETATM   37  C   UNL     1      44.389 -22.433   3.856  1.00  0.00     0.193 C 
BRANCH  37  38
HETATM   38  O   UNL     1      44.837 -22.436   2.499  1.00  0.00    -0.394 OA
HETATM   39  C   UNL     1      43.855 -21.911   1.617  1.00  0.00     0.201 C 
ENDBRANCH  37  38
ENDBRANCH  36  37
ENDBRANCH  35  36
ENDBRANCH   1  35
TORSDOF 9
ENDMDL
MODEL 4
REMARK VINA RESULT:      -7.8      2.708      3.716
REMARK  9 active torsions:
REMARK  status: ('A' for Active; 'I' for Inactive)
REMARK    1  A    between atoms: O_2  and  C_3 
REMARK    2  A    between atoms: C_3  and  C_4 
REMARK    3  A    between atoms: C_4  and  O_5 
REMARK    4  A    between atoms: O_5  and  C_6 
REMARK       I    between atoms: C_6  and  N_8 
REMARK    5  A    between atoms: N_15  and  C_28 
REMARK    6  A    between atoms: N_18  and  C_19 
REMARK    7  A    between atoms: C_19  and  C_20 
REMARK    8  A    between atoms: C_24  and  O_25 
REMARK    9  A    between atoms: C_31  and  C_34 
ROOT
HETATM    1  C   UNL     1      37.316 -10.243   2.544  1.00  0.00     0.362 C 
HETATM    2  O   UNL     1      36.807  -9.790   1.524  1.00  0.00    -0.238 OA
HETATM    3  N   UNL     1      37.963 -11.483   2.607  1.00  0.00    -0.328 N 
HETATM    4  C   UNL     1      38.830 -11.768   3.746  1.00  0.00     0.130 C 
HETATM    5  C   UNL     1      39.382 -13.187   3.775  1.00  0.00     0.053 C 
HETATM    6  C   UNL     1      39.953 -13.665   2.426  1.00  0.00     0.057 C 
HETATM    7  C   UNL     1      38.904 -13.439   1.329  1.00  0.00     0.053 C 
HETATM    8  C   UNL     1      38.298 -12.047   1.308  1.00  0.00     0.130 C 
HETATM    9  C   UNL     1      40.243 -15.191   2.526  1.00  0.00     0.165 C 
HETATM   10  N   UNL     1      41.679 -15.323   2.652  1.00  0.00    -0.297 N 
HETATM   11  C   UNL     1      42.300 -14.085   2.419  1.00  0.00     0.326 C 
HETATM   12  O   UNL     1      43.495 -13.829   2.390  1.00  0.00    -0.247 OA
HETATM   13  N   UNL     1      41.299 -13.137   2.162  1.00  0.00    -0.318 N 
ENDROOT
BRANCH  13  14
HETATM   14  C   UNL     1      41.657 -11.790   1.728  1.00  0.00     0.167 C 
BRANCH  14  15
HETATM   15  C   UNL     1      42.084 -11.693   0.278  1.00  0.00    -0.037 A 
HETATM   16  C   UNL     1      42.770 -10.574  -0.214  1.00  0.00     0.009 A 
HETATM   17  C   UNL     1      43.116 -10.491  -1.562  1.00  0.00     0.003 A 
HETATM   18  C   UNL     1      42.780 -11.525  -2.434  1.00  0.00     0.037 A 
HETATM   19  C   UNL     1      42.089 -12.643  -1.971  1.00  0.00     0.068 A 
HETATM   20  C   UNL     1      41.718 -12.708  -0.626  1.00  0.00     0.045 A 
BRANCH  19  21
HETATM   21  O   UNL     1      41.819 -13.591  -2.919  1.00  0.00    -0.356 OA
HETATM   22  C   UNL     1      40.468 -14.027  -3.018  1.00  0.00     0.210 C 
ENDBRANCH  19  21
ENDBRANCH  14  15
ENDBRANCH  13  14
BRANCH  10  23
HETATM   23  C   UNL     1      42.326 -16.591   2.707  1.00  0.00     0.039 A 
HETATM   24  C   UNL     1      42.878 -17.193   1.571  1.00  0.00     0.030 A 
HETATM   25  C   UNL     1      43.430 -18.482   1.618  1.00  0.00     0.014 A 
HETATM   26  C   UNL     1      43.460 -19.203   2.812  1.00  0.00    -0.023 A 
HETATM   27  C   UNL     1      42.955 -18.596   3.965  1.00  0.00     0.014 A 
HETATM   28  C   UNL     1      42.393 -17.310   3.910  1.00  0.00     0.030 A 
BRANCH  26  29
HETATM   29  C   UNL     1      43.988 -20.553   2.860  1.00  0.00     0.010 A 
HETATM   30  C   UNL     1      44.027 -21.572   1.882  1.00  0.00     0.152 A 
HETATM   31  N   UNL     1      44.640 -22.679   2.311  1.00  0.00    -0.187 NA
HETATM   32  N   UNL     1      45.000 -22.370   3.567  1.00  0.00    -0.289 N 
HETATM   33  H   UNL     1      45.500 -23.067   4.110  1.00  0.00     0.188 HD
HETATM   34  C   UNL     1      44.637 -21.110   3.944  1.00  0.00     0.123 A 
ENDBRANCH  26  29
ENDBRANCH  10  23
BRANCH   1  35
HETATM   35  O   UNL     1      37.380  -9.557   3.718  1.00  0.00    -0.302 OA
BRANCH  35  36
HETATM   36  C   UNL     1      37.109  -8.151   3.624  1.00  0.00     0.207 C 
BRANCH  36  37
HETATM   37  C   UNL     1      35.695  -7.801   4.070  1.00  0.00     0.193 C 
BRANCH  37  38
HETATM   38  O   UNL     1      35.280  -8.753   5.051  1.00  0.00    -0.394 OA
HETATM   39  C   UNL     1      33.892  -9.039   4.957  1.00  0.00     0.201 C 
ENDBRANCH  37  38
ENDBRANCH  36  37
ENDBRANCH  35  36
ENDBRANCH   1  35
TORSDOF 9
ENDMDL
MODEL 5
REMARK VINA RESULT:      -7.7      2.535      3.355
REMARK  9 active torsions:
REMARK  status: ('A' for Active; 'I' for Inactive)
REMARK    1  A    between atoms: O_2  and  C_3 
REMARK    2  A    between atoms: C_3  and  C_4 
REMARK    3  A    between atoms: C_4  and  O_5 
REMARK    4  A    between atoms: O_5  and  C_6 
REMARK       I    between atoms: C_6  and  N_8 
REMARK    5  A    between atoms: N_15  and  C_28 
REMARK    6  A    between atoms: N_18  and  C_19 
REMARK    7  A    between atoms: C_19  and  C_20 
REMARK    8  A    between atoms: C_24  and  O_25 
REMARK    9  A    between atoms: C_31  and  C_34 
ROOT
HETATM    1  C   UNL     1      37.622 -10.549   2.601  1.00  0.00     0.362 C 
HETATM    2  O   UNL     1      37.097 -10.166   1.561  1.00  0.00    -0.238 OA
HETATM    3  N   UNL     1      38.260 -11.789   2.740  1.00  0.00    -0.328 N 
HETATM    4  C   UNL     1      39.145 -12.000   3.880  1.00  0.00     0.130 C 
HETATM    5  C   UNL     1      39.686 -13.419   4.000  1.00  0.00     0.053 C 
HETATM    6  C   UNL     1      40.226 -13.997   2.679  1.00  0.00     0.057 C 
HETATM    7  C   UNL     1      39.159 -13.840   1.588  1.00  0.00     0.053 C 
HETATM    8  C   UNL     1      38.564 -12.447   1.478  1.00  0.00     0.130 C 
HETATM    9  C   UNL     1      40.506 -15.515   2.882  1.00  0.00     0.165 C 
HETATM   10  N   UNL     1      41.943 -15.651   2.990  1.00  0.00    -0.297 N 
HETATM   11  C   UNL     1      42.570 -14.439   2.657  1.00  0.00     0.326 C 
HETATM   12  O   UNL     1      43.766 -14.198   2.588  1.00  0.00    -0.247 OA
HETATM   13  N   UNL     1      41.572 -13.502   2.352  1.00  0.00    -0.318 N 
ENDROOT
BRANCH  13  14
HETATM   14  C   UNL     1      41.933 -12.194   1.816  1.00  0.00     0.167 C 
BRANCH  14  15
HETATM   15  C   UNL     1      42.119 -12.162   0.313  1.00  0.00    -0.037 A 
HETATM   16  C   UNL     1      41.915 -13.300  -0.478  1.00  0.00     0.009 A 
HETATM   17  C   UNL     1      42.132 -13.255  -1.855  1.00  0.00     0.003 A 
HETATM   18  C   UNL     1      42.556 -12.071  -2.456  1.00  0.00     0.037 A 
HETATM   19  C   UNL     1      42.775 -10.928  -1.689  1.00  0.00     0.068 A 
HETATM   20  C   UNL     1      42.585 -10.987  -0.306  1.00  0.00     0.045 A 
BRANCH  19  21
HETATM   21  O   UNL     1      43.184  -9.829  -2.391  1.00  0.00    -0.356 OA
HETATM   22  C   UNL     1      42.467  -9.533  -3.586  1.00  0.00     0.210 C 
ENDBRANCH  19  21
ENDBRANCH  14  15
ENDBRANCH  13  14
BRANCH  10  23
HETATM   23  C   UNL     1      42.580 -16.919   3.124  1.00  0.00     0.039 A 
HETATM   24  C   UNL     1      43.011 -17.654   2.014  1.00  0.00     0.030 A 
HETATM   25  C   UNL     1      43.552 -18.941   2.151  1.00  0.00     0.014 A 
HETATM   26  C   UNL     1      43.694 -19.526   3.410  1.00  0.00    -0.023 A 
HETATM   27  C   UNL     1      43.311 -18.785   4.531  1.00  0.00     0.014 A 
HETATM   28  C   UNL     1      42.759 -17.502   4.387  1.00  0.00     0.030 A 
BRANCH  26  29
HETATM   29  C   UNL     1      44.211 -20.873   3.557  1.00  0.00     0.010 A 
HETATM   30  C   UNL     1      44.309 -21.938   2.633  1.00  0.00     0.152 A 
HETATM   31  N   UNL     1      44.888 -23.024   3.154  1.00  0.00    -0.187 NA
HETATM   32  N   UNL     1      45.166 -22.656   4.415  1.00  0.00    -0.289 N 
HETATM   33  H   UNL     1      45.626 -23.326   5.022  1.00  0.00     0.188 HD
HETATM   34  C   UNL     1      44.785 -21.378   4.706  1.00  0.00     0.123 A 
ENDBRANCH  26  29
ENDBRANCH  10  23
BRANCH   1  35
HETATM   35  O   UNL     1      37.714  -9.782   3.721  1.00  0.00    -0.302 OA
BRANCH  35  36
HETATM   36  C   UNL     1      38.206  -8.450   3.515  1.00  0.00     0.207 C 
BRANCH  36  37
HETATM   37  C   UNL     1      39.666  -8.301   3.923  1.00  0.00     0.193 C 
BRANCH  37  38
HETATM   38  O   UNL     1      40.484  -8.878   2.902  1.00  0.00    -0.394 OA
HETATM   39  C   UNL     1      40.399  -8.153   1.684  1.00  0.00     0.201 C 
ENDBRANCH  37  38
ENDBRANCH  36  37
ENDBRANCH  35  36
ENDBRANCH   1  35
TORSDOF 9
ENDMDL
MODEL 6
REMARK VINA RESULT:      -7.7      1.378      1.584
REMARK  9 active torsions:
REMARK  status: ('A' for Active; 'I' for Inactive)
REMARK    1  A    between atoms: O_2  and  C_3 
REMARK    2  A    between atoms: C_3  and  C_4 
REMARK    3  A    between atoms: C_4  and  O_5 
REMARK    4  A    between atoms: O_5  and  C_6 
REMARK       I    between atoms: C_6  and  N_8 
REMARK    5  A    between atoms: N_15  and  C_28 
REMARK    6  A    between atoms: N_18  and  C_19 
REMARK    7  A    between atoms: C_19  and  C_20 
REMARK    8  A    between atoms: C_24  and  O_25 
REMARK    9  A    between atoms: C_31  and  C_34 
ROOT
HETATM    1  C   UNL     1      39.655  -9.844   6.460  1.00  0.00     0.362 C 
HETATM    2  O   UNL     1      38.458  -9.593   6.379  1.00  0.00    -0.238 OA
HETATM    3  N   UNL     1      40.193 -11.129   6.313  1.00  0.00    -0.328 N 
HETATM    4  C   UNL     1      41.626 -11.269   6.075  1.00  0.00     0.130 C 
HETATM    5  C   UNL     1      42.122 -12.709   6.055  1.00  0.00     0.053 C 
HETATM    6  C   UNL     1      41.255 -13.657   5.204  1.00  0.00     0.057 C 
HETATM    7  C   UNL     1      39.790 -13.521   5.636  1.00  0.00     0.053 C 
HETATM    8  C   UNL     1      39.281 -12.092   5.714  1.00  0.00     0.130 C 
HETATM    9  C   UNL     1      41.716 -15.120   5.473  1.00  0.00     0.165 C 
HETATM   10  N   UNL     1      42.477 -15.525   4.310  1.00  0.00    -0.297 N 
HETATM   11  C   UNL     1      42.345 -14.569   3.289  1.00  0.00     0.326 C 
HETATM   12  O   UNL     1      42.802 -14.602   2.156  1.00  0.00    -0.247 OA
HETATM   13  N   UNL     1      41.526 -13.534   3.764  1.00  0.00    -0.318 N 
ENDROOT
BRANCH  13  14
HETATM   14  C   UNL     1      41.084 -12.476   2.863  1.00  0.00     0.167 C 
BRANCH  14  15
HETATM   15  C   UNL     1      39.762 -12.751   2.176  1.00  0.00    -0.037 A 
HETATM   16  C   UNL     1      39.489 -13.985   1.572  1.00  0.00     0.009 A 
HETATM   17  C   UNL     1      38.280 -14.199   0.910  1.00  0.00     0.003 A 
HETATM   18  C   UNL     1      37.331 -13.180   0.845  1.00  0.00     0.037 A 
HETATM   19  C   UNL     1      37.584 -11.940   1.430  1.00  0.00     0.068 A 
HETATM   20  C   UNL     1      38.808 -11.721   2.065  1.00  0.00     0.045 A 
BRANCH  19  21
HETATM   21  O   UNL     1      36.576 -11.025   1.303  1.00  0.00    -0.356 OA
HETATM   22  C   UNL     1      35.697 -11.194   0.196  1.00  0.00     0.210 C 
ENDBRANCH  19  21
ENDBRANCH  14  15
ENDBRANCH  13  14
BRANCH  10  23
HETATM   23  C   UNL     1      43.013 -16.838   4.170  1.00  0.00     0.039 A 
HETATM   24  C   UNL     1      43.232 -17.420   2.916  1.00  0.00     0.030 A 
HETATM   25  C   UNL     1      43.671 -18.746   2.790  1.00  0.00     0.014 A 
HETATM   26  C   UNL     1      43.923 -19.526   3.918  1.00  0.00    -0.023 A 
HETATM   27  C   UNL     1      43.755 -18.943   5.177  1.00  0.00     0.014 A 
HETATM   28  C   UNL     1      43.303 -17.619   5.298  1.00  0.00     0.030 A 
BRANCH  26  29
HETATM   29  C   UNL     1      44.335 -20.912   3.796  1.00  0.00     0.010 A 
HETATM   30  C   UNL     1      44.387 -21.772   2.676  1.00  0.00     0.152 A 
HETATM   31  N   UNL     1      44.867 -22.982   2.975  1.00  0.00    -0.187 NA
HETATM   32  N   UNL     1      45.127 -22.900   4.289  1.00  0.00    -0.289 N 
HETATM   33  H   UNL     1      45.517 -23.714   4.754  1.00  0.00     0.188 HD
HETATM   34  C   UNL     1      44.831 -21.682   4.828  1.00  0.00     0.123 A 
ENDBRANCH  26  29
ENDBRANCH  10  23
BRANCH   1  35
HETATM   35  O   UNL     1      40.611  -8.890   6.626  1.00  0.00    -0.302 OA
BRANCH  35  36
HETATM   36  C   UNL     1      40.503  -8.114   7.828  1.00  0.00     0.207 C 
BRANCH  36  37
HETATM   37  C   UNL     1      41.146  -8.806   9.024  1.00  0.00     0.193 C 
BRANCH  37  38
HETATM   38  O   UNL     1      41.225  -7.871  10.101  1.00  0.00    -0.394 OA
HETATM   39  C   UNL     1      40.018  -7.821  10.848  1.00  0.00     0.201 C 
ENDBRANCH  37  38
ENDBRANCH  36  37
ENDBRANCH  35  36
ENDBRANCH   1  35
TORSDOF 9
ENDMDL
MODEL 7
REMARK VINA RESULT:      -7.7      3.178      9.144
REMARK  9 active torsions:
REMARK  status: ('A' for Active; 'I' for Inactive)
REMARK    1  A    between atoms: O_2  and  C_3 
REMARK    2  A    between atoms: C_3  and  C_4 
REMARK    3  A    between atoms: C_4  and  O_5 
REMARK    4  A    between atoms: O_5  and  C_6 
REMARK       I    between atoms: C_6  and  N_8 
REMARK    5  A    between atoms: N_15  and  C_28 
REMARK    6  A    between atoms: N_18  and  C_19 
REMARK    7  A    between atoms: C_19  and  C_20 
REMARK    8  A    between atoms: C_24  and  O_25 
REMARK    9  A    between atoms: C_31  and  C_34 
ROOT
HETATM    1  C   UNL     1      41.150 -14.749  -1.438  1.00  0.00     0.362 C 
HETATM    2  O   UNL     1      40.900 -15.906  -1.761  1.00  0.00    -0.238 OA
HETATM    3  N   UNL     1      40.817 -14.199  -0.194  1.00  0.00    -0.328 N 
HETATM    4  C   UNL     1      41.460 -12.956   0.220  1.00  0.00     0.130 C 
HETATM    5  C   UNL     1      40.934 -12.384   1.530  1.00  0.00     0.053 C 
HETATM    6  C   UNL     1      40.805 -13.423   2.660  1.00  0.00     0.057 C 
HETATM    7  C   UNL     1      39.997 -14.622   2.149  1.00  0.00     0.053 C 
HETATM    8  C   UNL     1      40.466 -15.184   0.819  1.00  0.00     0.130 C 
HETATM    9  C   UNL     1      40.029 -12.771   3.842  1.00  0.00     0.165 C 
HETATM   10  N   UNL     1      41.015 -12.474   4.859  1.00  0.00    -0.297 N 
HETATM   11  C   UNL     1      42.245 -13.064   4.527  1.00  0.00     0.326 C 
HETATM   12  O   UNL     1      43.283 -13.069   5.171  1.00  0.00    -0.247 OA
HETATM   13  N   UNL     1      42.093 -13.728   3.300  1.00  0.00    -0.318 N 
ENDROOT
BRANCH  13  14
HETATM   14  C   UNL     1      43.168 -14.567   2.781  1.00  0.00     0.167 C 
BRANCH  14  15
HETATM   15  C   UNL     1      43.087 -16.020   3.204  1.00  0.00    -0.037 A 
HETATM   16  C   UNL     1      42.368 -16.418   4.339  1.00  0.00     0.009 A 
HETATM   17  C   UNL     1      42.343 -17.756   4.730  1.00  0.00     0.003 A 
HETATM   18  C   UNL     1      43.039 -18.711   3.990  1.00  0.00     0.037 A 
HETATM   19  C   UNL     1      43.769 -18.339   2.864  1.00  0.00     0.068 A 
HETATM   20  C   UNL     1      43.816 -16.993   2.494  1.00  0.00     0.045 A 
BRANCH  19  21
HETATM   21  O   UNL     1      44.404 -19.365   2.220  1.00  0.00    -0.356 OA
HETATM   22  C   UNL     1      43.670 -20.575   2.072  1.00  0.00     0.210 C 
ENDBRANCH  19  21
ENDBRANCH  14  15
ENDBRANCH  13  14
BRANCH  10  23
HETATM   23  C   UNL     1      40.662 -11.921   6.124  1.00  0.00     0.039 A 
HETATM   24  C   UNL     1      41.413 -10.905   6.725  1.00  0.00     0.030 A 
HETATM   25  C   UNL     1      41.112 -10.432   8.011  1.00  0.00     0.014 A 
HETATM   26  C   UNL     1      40.035 -10.953   8.730  1.00  0.00    -0.023 A 
HETATM   27  C   UNL     1      39.248 -11.935   8.123  1.00  0.00     0.014 A 
HETATM   28  C   UNL     1      39.561 -12.413   6.841  1.00  0.00     0.030 A 
BRANCH  26  29
HETATM   29  C   UNL     1      39.743 -10.501  10.077  1.00  0.00     0.010 A 
HETATM   30  C   UNL     1      38.829  -9.536  10.557  1.00  0.00     0.152 A 
HETATM   31  N   UNL     1      38.835  -9.436  11.889  1.00  0.00    -0.187 NA
HETATM   32  N   UNL     1      39.753 -10.339  12.268  1.00  0.00    -0.289 N 
HETATM   33  H   UNL     1      39.934 -10.455  13.259  1.00  0.00     0.188 HD
HETATM   34  C   UNL     1      40.323 -11.006  11.223  1.00  0.00     0.123 A 
ENDBRANCH  26  29
ENDBRANCH  10  23
BRANCH   1  35
HETATM   35  O   UNL     1      41.852 -13.887  -2.224  1.00  0.00    -0.302 OA
BRANCH  35  36
HETATM   36  C   UNL     1      41.261 -13.599  -3.499  1.00  0.00     0.207 C 
BRANCH  36  37
HETATM   37  C   UNL     1      40.675 -12.194  -3.562  1.00  0.00     0.193 C 
BRANCH  37  38
HETATM   38  O   UNL     1      39.432 -12.188  -2.858  1.00  0.00    -0.394 OA
HETATM   39  C   UNL     1      38.503 -13.104  -3.417  1.00  0.00     0.201 C 
ENDBRANCH  37  38
ENDBRANCH  36  37
ENDBRANCH  35  36
ENDBRANCH   1  35
TORSDOF 9
ENDMDL
MODEL 8
REMARK VINA RESULT:      -7.6      2.591      3.840
REMARK  9 active torsions:
REMARK  status: ('A' for Active; 'I' for Inactive)
REMARK    1  A    between atoms: O_2  and  C_3 
REMARK    2  A    between atoms: C_3  and  C_4 
REMARK    3  A    between atoms: C_4  and  O_5 
REMARK    4  A    between atoms: O_5  and  C_6 
REMARK       I    between atoms: C_6  and  N_8 
REMARK    5  A    between atoms: N_15  and  C_28 
REMARK    6  A    between atoms: N_18  and  C_19 
REMARK    7  A    between atoms: C_19  and  C_20 
REMARK    8  A    between atoms: C_24  and  O_25 
REMARK    9  A    between atoms: C_31  and  C_34 
ROOT
HETATM    1  C   UNL     1      40.382  -9.224   1.765  1.00  0.00     0.362 C 
HETATM    2  O   UNL     1      39.913  -8.533   2.663  1.00  0.00    -0.238 OA
HETATM    3  N   UNL     1      41.003 -10.461   1.979  1.00  0.00    -0.328 N 
HETATM    4  C   UNL     1      41.204 -11.354   0.843  1.00  0.00     0.130 C 
HETATM    5  C   UNL     1      41.998 -12.613   1.165  1.00  0.00     0.053 C 
HETATM    6  C   UNL     1      41.536 -13.333   2.446  1.00  0.00     0.057 C 
HETATM    7  C   UNL     1      41.493 -12.325   3.602  1.00  0.00     0.053 C 
HETATM    8  C   UNL     1      40.751 -11.037   3.292  1.00  0.00     0.130 C 
HETATM    9  C   UNL     1      42.576 -14.438   2.793  1.00  0.00     0.165 C 
HETATM   10  N   UNL     1      41.967 -15.698   2.422  1.00  0.00    -0.297 N 
HETATM   11  C   UNL     1      40.613 -15.505   2.103  1.00  0.00     0.326 C 
HETATM   12  O   UNL     1      39.779 -16.345   1.797  1.00  0.00    -0.247 OA
HETATM   13  N   UNL     1      40.324 -14.140   2.238  1.00  0.00    -0.318 N 
ENDROOT
BRANCH  13  14
HETATM   14  C   UNL     1      38.949 -13.666   2.122  1.00  0.00     0.167 C 
BRANCH  14  15
HETATM   15  C   UNL     1      38.550 -13.236   0.725  1.00  0.00    -0.037 A 
HETATM   16  C   UNL     1      37.758 -12.102   0.502  1.00  0.00     0.009 A 
HETATM   17  C   UNL     1      37.370 -11.751  -0.791  1.00  0.00     0.003 A 
HETATM   18  C   UNL     1      37.771 -12.530  -1.875  1.00  0.00     0.037 A 
HETATM   19  C   UNL     1      38.551 -13.668  -1.677  1.00  0.00     0.068 A 
HETATM   20  C   UNL     1      38.911 -14.033  -0.378  1.00  0.00     0.045 A 
BRANCH  19  21
HETATM   21  O   UNL     1      38.884 -14.347  -2.817  1.00  0.00    -0.356 OA
HETATM   22  C   UNL     1      40.113 -13.985  -3.438  1.00  0.00     0.210 C 
ENDBRANCH  19  21
ENDBRANCH  14  15
ENDBRANCH  13  14
BRANCH  10  23
HETATM   23  C   UNL     1      42.608 -16.950   2.652  1.00  0.00     0.039 A 
HETATM   24  C   UNL     1      43.054 -17.759   1.601  1.00  0.00     0.030 A 
HETATM   25  C   UNL     1      43.599 -19.031   1.834  1.00  0.00     0.014 A 
HETATM   26  C   UNL     1      43.727 -19.526   3.132  1.00  0.00    -0.023 A 
HETATM   27  C   UNL     1      43.329 -18.710   4.195  1.00  0.00     0.014 A 
HETATM   28  C   UNL     1      42.774 -17.443   3.955  1.00  0.00     0.030 A 
BRANCH  26  29
HETATM   29  C   UNL     1      44.248 -20.857   3.380  1.00  0.00     0.010 A 
HETATM   30  C   UNL     1      44.350 -21.987   2.537  1.00  0.00     0.152 A 
HETATM   31  N   UNL     1      44.931 -23.030   3.138  1.00  0.00    -0.187 NA
HETATM   32  N   UNL     1      45.205 -22.569   4.369  1.00  0.00    -0.289 N 
HETATM   33  H   UNL     1      45.666 -23.191   5.024  1.00  0.00     0.188 HD
HETATM   34  C   UNL     1      44.820 -21.275   4.564  1.00  0.00     0.123 A 
ENDBRANCH  26  29
ENDBRANCH  10  23
BRANCH   1  35
HETATM   35  O   UNL     1      40.284  -8.907   0.446  1.00  0.00    -0.302 OA
BRANCH  35  36
HETATM   36  C   UNL     1      41.078  -7.790   0.022  1.00  0.00     0.207 C 
BRANCH  36  37
HETATM   37  C   UNL     1      42.059  -8.162  -1.083  1.00  0.00     0.193 C 
BRANCH  37  38
HETATM   38  O   UNL     1      43.205  -8.773  -0.486  1.00  0.00    -0.394 OA
HETATM   39  C   UNL     1      43.841  -9.681  -1.373  1.00  0.00     0.201 C 
ENDBRANCH  37  38
ENDBRANCH  36  37
ENDBRANCH  35  36
ENDBRANCH   1  35
TORSDOF 9
ENDMDL
MODEL 9
REMARK VINA RESULT:      -7.6      3.577      7.146
REMARK  9 active torsions:
REMARK  status: ('A' for Active; 'I' for Inactive)
REMARK    1  A    between atoms: O_2  and  C_3 
REMARK    2  A    between atoms: C_3  and  C_4 
REMARK    3  A    between atoms: C_4  and  O_5 
REMARK    4  A    between atoms: O_5  and  C_6 
REMARK       I    between atoms: C_6  and  N_8 
REMARK    5  A    between atoms: N_15  and  C_28 
REMARK    6  A    between atoms: N_18  and  C_19 
REMARK    7  A    between atoms: C_19  and  C_20 
REMARK    8  A    between atoms: C_24  and  O_25 
REMARK    9  A    between atoms: C_31  and  C_34 
ROOT
HETATM    1  C   UNL     1      44.737 -12.503   9.045  1.00  0.00     0.362 C 
HETATM    2  O   UNL     1      45.792 -12.967   9.464  1.00  0.00    -0.238 OA
HETATM    3  N   UNL     1      44.279 -12.673   7.732  1.00  0.00    -0.328 N 
HETATM    4  C   UNL     1      42.877 -12.396   7.435  1.00  0.00     0.130 C 
HETATM    5  C   UNL     1      42.517 -12.494   5.959  1.00  0.00     0.053 C 
HETATM    6  C   UNL     1      43.062 -13.756   5.263  1.00  0.00     0.057 C 
HETATM    7  C   UNL     1      44.568 -13.869   5.535  1.00  0.00     0.053 C 
HETATM    8  C   UNL     1      44.962 -13.725   6.994  1.00  0.00     0.130 C 
HETATM    9  C   UNL     1      42.846 -13.607   3.729  1.00  0.00     0.165 C 
HETATM   10  N   UNL     1      41.731 -14.466   3.392  1.00  0.00    -0.297 N 
HETATM   11  C   UNL     1      41.396 -15.277   4.489  1.00  0.00     0.326 C 
HETATM   12  O   UNL     1      40.546 -16.153   4.553  1.00  0.00    -0.247 OA
HETATM   13  N   UNL     1      42.256 -14.953   5.548  1.00  0.00    -0.318 N 
ENDROOT
BRANCH  13  14
HETATM   14  C   UNL     1      42.244 -15.747   6.772  1.00  0.00     0.167 C 
BRANCH  14  15
HETATM   15  C   UNL     1      42.967 -17.074   6.664  1.00  0.00    -0.037 A 
HETATM   16  C   UNL     1      43.267 -17.844   7.795  1.00  0.00     0.009 A 
HETATM   17  C   UNL     1      43.969 -19.042   7.673  1.00  0.00     0.003 A 
HETATM   18  C   UNL     1      44.379 -19.484   6.416  1.00  0.00     0.037 A 
HETATM   19  C   UNL     1      44.102 -18.732   5.277  1.00  0.00     0.068 A 
HETATM   20  C   UNL     1      43.425 -17.517   5.408  1.00  0.00     0.045 A 
BRANCH  19  21
HETATM   21  O   UNL     1      44.551 -19.271   4.103  1.00  0.00    -0.356 OA
HETATM   22  C   UNL     1      44.068 -18.678   2.903  1.00  0.00     0.210 C 
ENDBRANCH  19  21
ENDBRANCH  14  15
ENDBRANCH  13  14
BRANCH  10  23
HETATM   23  C   UNL     1      41.279 -14.637   2.051  1.00  0.00     0.039 A 
HETATM   24  C   UNL     1      41.975 -15.425   1.127  1.00  0.00     0.030 A 
HETATM   25  C   UNL     1      41.573 -15.511  -0.214  1.00  0.00     0.014 A 
HETATM   26  C   UNL     1      40.449 -14.821  -0.669  1.00  0.00    -0.023 A 
HETATM   27  C   UNL     1      39.717 -14.067   0.252  1.00  0.00     0.014 A 
HETATM   28  C   UNL     1      40.130 -13.975   1.591  1.00  0.00     0.030 A 
BRANCH  26  29
HETATM   29  C   UNL     1      40.052 -14.869  -2.063  1.00  0.00     0.010 A 
HETATM   30  C   UNL     1      40.341 -15.807  -3.081  1.00  0.00     0.152 A 
HETATM   31  N   UNL     1      39.748 -15.510  -4.241  1.00  0.00    -0.187 NA
HETATM   32  N   UNL     1      39.075 -14.381  -3.969  1.00  0.00    -0.289 N 
HETATM   33  H   UNL     1      38.528 -13.957  -4.710  1.00  0.00     0.188 HD
HETATM   34  C   UNL     1      39.220 -13.957  -2.680  1.00  0.00     0.123 A 
ENDBRANCH  26  29
ENDBRANCH  10  23
BRANCH   1  35
HETATM   35  O   UNL     1      43.849 -11.833   9.829  1.00  0.00    -0.302 OA
BRANCH  35  36
HETATM   36  C   UNL     1      43.939 -12.110  11.234  1.00  0.00     0.207 C 
BRANCH  36  37
HETATM   37  C   UNL     1      43.034 -11.205  12.062  1.00  0.00     0.193 C 
BRANCH  37  38
HETATM   38  O   UNL     1      43.774 -10.041  12.434  1.00  0.00    -0.394 OA
HETATM   39  C   UNL     1      42.986  -9.134  13.191  1.00  0.00     0.201 C 
ENDBRANCH  37  38
ENDBRANCH  36  37
ENDBRANCH  35  36
ENDBRANCH   1  35
TORSDOF 9
ENDMDL
MODEL 10
REMARK VINA RESULT:      -7.4      3.558      9.365
REMARK  9 active torsions:
REMARK  status: ('A' for Active; 'I' for Inactive)
REMARK    1  A    between atoms: O_2  and  C_3 
REMARK    2  A    between atoms: C_3  and  C_4 
REMARK    3  A    between atoms: C_4  and  O_5 
REMARK    4  A    between atoms: O_5  and  C_6 
REMARK       I    between atoms: C_6  and  N_8 
REMARK    5  A    between atoms: N_15  and  C_28 
REMARK    6  A    between atoms: N_18  and  C_19 
REMARK    7  A    between atoms: C_19  and  C_20 
REMARK    8  A    between atoms: C_24  and  O_25 
REMARK    9  A    between atoms: C_31  and  C_34 
ROOT
HETATM    1  C   UNL     1      42.720 -18.288   4.321  1.00  0.00     0.362 C 
HETATM    2  O   UNL     1      41.958 -18.528   5.252  1.00  0.00    -0.238 OA
HETATM    3  N   UNL     1      42.342 -17.592   3.166  1.00  0.00    -0.328 N 
HETATM    4  C   UNL     1      43.383 -17.055   2.296  1.00  0.00     0.130 C 
HETATM    5  C   UNL     1      42.864 -16.428   1.009  1.00  0.00     0.053 C 
HETATM    6  C   UNL     1      41.673 -15.473   1.214  1.00  0.00     0.057 C 
HETATM    7  C   UNL     1      40.587 -16.191   2.025  1.00  0.00     0.053 C 
HETATM    8  C   UNL     1      41.084 -16.871   3.289  1.00  0.00     0.130 C 
HETATM    9  C   UNL     1      41.087 -15.108  -0.182  1.00  0.00     0.165 C 
HETATM   10  N   UNL     1      41.523 -13.756  -0.463  1.00  0.00    -0.297 N 
HETATM   11  C   UNL     1      42.109 -13.189   0.681  1.00  0.00     0.326 C 
HETATM   12  O   UNL     1      42.541 -12.056   0.830  1.00  0.00    -0.247 OA
HETATM   13  N   UNL     1      42.085 -14.149   1.704  1.00  0.00    -0.318 N 
ENDROOT
BRANCH  13  14
HETATM   14  C   UNL     1      42.485 -13.787   3.059  1.00  0.00     0.167 C 
BRANCH  14  15
HETATM   15  C   UNL     1      41.343 -13.349   3.954  1.00  0.00    -0.037 A 
HETATM   16  C   UNL     1      41.199 -13.843   5.257  1.00  0.00     0.009 A 
HETATM   17  C   UNL     1      40.116 -13.455   6.046  1.00  0.00     0.003 A 
HETATM   18  C   UNL     1      39.165 -12.570   5.540  1.00  0.00     0.037 A 
HETATM   19  C   UNL     1      39.282 -12.074   4.243  1.00  0.00     0.068 A 
HETATM   20  C   UNL     1      40.352 -12.488   3.447  1.00  0.00     0.045 A 
BRANCH  19  21
HETATM   21  O   UNL     1      38.292 -11.211   3.862  1.00  0.00    -0.356 OA
HETATM   22  C   UNL     1      38.694  -9.888   3.524  1.00  0.00     0.210 C 
ENDBRANCH  19  21
ENDBRANCH  14  15
ENDBRANCH  13  14
BRANCH  10  23
HETATM   23  C   UNL     1      41.126 -13.057  -1.639  1.00  0.00     0.039 A 
HETATM   24  C   UNL     1      41.992 -12.875  -2.723  1.00  0.00     0.030 A 
HETATM   25  C   UNL     1      41.623 -12.106  -3.836  1.00  0.00     0.014 A 
HETATM   26  C   UNL     1      40.365 -11.506  -3.905  1.00  0.00    -0.023 A 
HETATM   27  C   UNL     1      39.472 -11.718  -2.852  1.00  0.00     0.014 A 
HETATM   28  C   UNL     1      39.851 -12.479  -1.734  1.00  0.00     0.030 A 
BRANCH  26  29
HETATM   29  C   UNL     1      39.992 -10.673  -5.033  1.00  0.00     0.010 A 
HETATM   30  C   UNL     1      40.761 -10.144  -6.093  1.00  0.00     0.152 A 
HETATM   31  N   UNL     1      40.029  -9.445  -6.965  1.00  0.00    -0.187 NA
HETATM   32  N   UNL     1      38.785  -9.526  -6.466  1.00  0.00    -0.289 N 
HETATM   33  H   UNL     1      38.033  -9.068  -6.970  1.00  0.00     0.188 HD
HETATM   34  C   UNL     1      38.708 -10.252  -5.313  1.00  0.00     0.123 A 
ENDBRANCH  26  29
ENDBRANCH  10  23
BRANCH   1  35
HETATM   35  O   UNL     1      44.044 -18.602   4.337  1.00  0.00    -0.302 OA
BRANCH  35  36
HETATM   36  C   UNL     1      44.357 -19.920   4.808  1.00  0.00     0.207 C 
BRANCH  36  37
HETATM   37  C   UNL     1      45.096 -20.749   3.764  1.00  0.00     0.193 C 
BRANCH  37  38
HETATM   38  O   UNL     1      44.414 -20.618   2.515  1.00  0.00    -0.394 OA
HETATM   39  C   UNL     1      44.227 -21.875   1.881  1.00  0.00     0.201 C 
ENDBRANCH  37  38
ENDBRANCH  36  37
ENDBRANCH  35  36
ENDBRANCH   1  35
TORSDOF 9
ENDMDL
