MODEL 1
REMARK VINA RESULT:     -10.4      0.000      0.000
REMARK  7 active torsions:
REMARK  status: ('A' for Active; 'I' for Inactive)
REMARK    1  A    between atoms: C_4  and  C_5 
REMARK    2  A    between atoms: C_5  and  C_6 
REMARK    3  A    between atoms: C_8  and  C_9 
REMARK    4  A    between atoms: C_9  and  C_10 
REMARK       I    between atoms: C_10  and  N_11 
REMARK    5  A    between atoms: N_11  and  N_12 
REMARK       I    between atoms: N_12  and  C_13 
REMARK       I    between atoms: C_13  and  N_14 
REMARK    6  A    between atoms: N_14  and  C_15 
REMARK    7  A    between atoms: C_17  and  C_18 
ROOT
HETATM    1  C   UNL     1      43.890 -14.340   6.708  1.00  0.00     0.238 C 
HETATM    2  N   UNL     1      43.648 -13.145   7.354  1.00  0.00    -0.266 N 
HETATM    3  O   UNL     1      45.016 -14.838   6.660  1.00  0.00    -0.272 OA
HETATM    4  H   UNL     1      42.700 -12.904   7.622  1.00  0.00     0.190 HD
ENDROOT
BRANCH   1   5
HETATM    5  C   UNL     1      42.730 -14.952   5.935  1.00  0.00     0.139 C 
BRANCH   5   6
HETATM    6  C   UNL     1      42.546 -16.469   5.974  1.00  0.00     0.185 C 
HETATM    7  N   UNL     1      43.413 -17.103   4.988  1.00  0.00    -0.363 N 
HETATM    8  C   UNL     1      42.925 -17.656   3.834  1.00  0.00     0.125 C 
HETATM    9  H   UNL     1      44.401 -17.186   5.210  1.00  0.00     0.161 HD
HETATM   10  N   UNL     1      41.653 -17.729   3.555  1.00  0.00    -0.159 NA
HETATM   11  N   UNL     1      40.761 -17.360   4.529  1.00  0.00    -0.244 N 
HETATM   12  C   UNL     1      41.086 -16.872   5.780  1.00  0.00     0.261 C 
HETATM   13  H   UNL     1      39.787 -17.613   4.379  1.00  0.00     0.192 HD
HETATM   14  O   UNL     1      40.228 -16.686   6.638  1.00  0.00    -0.269 OA
BRANCH   8  15
HETATM   15  C   UNL     1      43.920 -18.179   2.804  1.00  0.00     0.118 C 
BRANCH  15  16
HETATM   16  C   UNL     1      44.102 -19.674   2.877  1.00  0.00    -0.051 A 
HETATM   17  C   UNL     1      43.766 -20.487   1.784  1.00  0.00     0.007 A 
HETATM   18  C   UNL     1      43.963 -21.868   1.840  1.00  0.00     0.001 A 
HETATM   19  C   UNL     1      44.505 -22.449   2.983  1.00  0.00     0.000 A 
HETATM   20  C   UNL     1      44.850 -21.652   4.072  1.00  0.00     0.001 A 
HETATM   21  C   UNL     1      44.651 -20.271   4.021  1.00  0.00     0.007 A 
ENDBRANCH  15  16
ENDBRANCH   8  15
ENDBRANCH   5   6
ENDBRANCH   1   5
BRANCH   2  22
HETATM   22  N   UNL     1      44.676 -12.650   8.178  1.00  0.00    -0.249 N 
HETATM   23  C   UNL     1      44.478 -11.647   9.105  1.00  0.00     0.339 C 
HETATM   24  N   UNL     1      43.189 -11.547   9.579  1.00  0.00    -0.308 N 
HETATM   25  O   UNL     1      45.432 -10.954   9.445  1.00  0.00    -0.245 OA
HETATM   26  H   UNL     1      42.604 -12.357   9.435  1.00  0.00     0.170 HD
HETATM   27  H   UNL     1      45.610 -12.677   7.765  1.00  0.00     0.192 HD
BRANCH  24  28
HETATM   28  C   UNL     1      42.670 -10.556  10.438  1.00  0.00     0.037 A 
HETATM   29  C   UNL     1      42.973 -10.467  11.800  1.00  0.00     0.045 A 
HETATM   30  C   UNL     1      42.430  -9.443  12.598  1.00  0.00     0.050 A 
HETATM   31  C   UNL     1      41.574  -8.501  12.011  1.00  0.00     0.016 A 
HETATM   32  C   UNL     1      41.272  -8.577  10.653  1.00  0.00     0.003 A 
HETATM   33  C   UNL     1      41.815  -9.601   9.874  1.00  0.00     0.029 A 
BRANCH  30  34
HETATM   34  C   UNL     1      42.727  -9.379  14.077  1.00  0.00     0.417 C 
HETATM   35  F   UNL     1      44.014  -9.041  14.365  1.00  0.00    -0.166 F 
HETATM   36  F   UNL     1      41.953  -8.463  14.727  1.00  0.00    -0.166 F 
HETATM   37  F   UNL     1      42.499 -10.567  14.702  1.00  0.00    -0.166 F 
ENDBRANCH  30  34
ENDBRANCH  24  28
ENDBRANCH   2  22
TORSDOF 7
ENDMDL
MODEL 2
REMARK VINA RESULT:     -10.1      5.895     10.897
REMARK  7 active torsions:
REMARK  status: ('A' for Active; 'I' for Inactive)
REMARK    1  A    between atoms: C_4  and  C_5 
REMARK    2  A    between atoms: C_5  and  C_6 
REMARK    3  A    between atoms: C_8  and  C_9 
REMARK    4  A    between atoms: C_9  and  C_10 
REMARK       I    between atoms: C_10  and  N_11 
REMARK    5  A    between atoms: N_11  and  N_12 
REMARK       I    between atoms: N_12  and  C_13 
REMARK       I    between atoms: C_13  and  N_14 
REMARK    6  A    between atoms: N_14  and  C_15 
REMARK    7  A    between atoms: C_17  and  C_18 
ROOT
HETATM    1  C   UNL     1      43.143 -13.686   3.806  1.00  0.00     0.238 C 
HETATM    2  N   UNL     1      42.303 -14.563   3.151  1.00  0.00    -0.266 N 
HETATM    3  O   UNL     1      44.354 -13.655   3.582  1.00  0.00    -0.272 OA
HETATM    4  H   UNL     1      41.304 -14.383   3.139  1.00  0.00     0.190 HD
ENDROOT
BRANCH   1   5
HETATM    5  C   UNL     1      42.532 -12.851   4.923  1.00  0.00     0.139 C 
BRANCH   5   6
HETATM    6  C   UNL     1      42.429 -13.464   6.319  1.00  0.00     0.185 C 
HETATM    7  N   UNL     1      43.318 -12.764   7.240  1.00  0.00    -0.363 N 
HETATM    8  C   UNL     1      44.473 -13.329   7.710  1.00  0.00     0.125 C 
HETATM    9  H   UNL     1      43.022 -11.855   7.583  1.00  0.00     0.161 HD
HETATM   10  N   UNL     1      44.837 -14.552   7.439  1.00  0.00    -0.159 NA
HETATM   11  N   UNL     1      43.948 -15.351   6.767  1.00  0.00    -0.244 N 
HETATM   12  C   UNL     1      42.704 -14.966   6.306  1.00  0.00     0.261 C 
HETATM   13  H   UNL     1      44.153 -16.347   6.744  1.00  0.00     0.192 HD
HETATM   14  O   UNL     1      41.919 -15.779   5.825  1.00  0.00    -0.269 OA
BRANCH   8  15
HETATM   15  C   UNL     1      45.402 -12.473   8.564  1.00  0.00     0.118 C 
BRANCH  15  16
HETATM   16  C   UNL     1      44.724 -11.926   9.795  1.00  0.00    -0.051 A 
HETATM   17  C   UNL     1      44.341 -12.783  10.838  1.00  0.00     0.007 A 
HETATM   18  C   UNL     1      43.741 -12.274  11.991  1.00  0.00     0.001 A 
HETATM   19  C   UNL     1      43.526 -10.904  12.117  1.00  0.00     0.000 A 
HETATM   20  C   UNL     1      43.909 -10.041  11.092  1.00  0.00     0.001 A 
HETATM   21  C   UNL     1      44.506 -10.548   9.937  1.00  0.00     0.007 A 
ENDBRANCH  15  16
ENDBRANCH   8  15
ENDBRANCH   5   6
ENDBRANCH   1   5
BRANCH   2  22
HETATM   22  N   UNL     1      42.832 -15.233   2.032  1.00  0.00    -0.249 N 
HETATM   23  C   UNL     1      43.490 -16.443   2.124  1.00  0.00     0.339 C 
HETATM   24  N   UNL     1      43.132 -17.213   3.208  1.00  0.00    -0.308 N 
HETATM   25  O   UNL     1      44.302 -16.744   1.256  1.00  0.00    -0.245 OA
HETATM   26  H   UNL     1      42.258 -16.969   3.651  1.00  0.00     0.170 HD
HETATM   27  H   UNL     1      43.151 -14.624   1.277  1.00  0.00     0.192 HD
BRANCH  24  28
HETATM   28  C   UNL     1      43.712 -18.432   3.618  1.00  0.00     0.037 A 
HETATM   29  C   UNL     1      43.743 -19.585   2.830  1.00  0.00     0.045 A 
HETATM   30  C   UNL     1      44.351 -20.766   3.296  1.00  0.00     0.050 A 
HETATM   31  C   UNL     1      44.934 -20.776   4.571  1.00  0.00     0.016 A 
HETATM   32  C   UNL     1      44.914 -19.628   5.361  1.00  0.00     0.003 A 
HETATM   33  C   UNL     1      44.304 -18.465   4.887  1.00  0.00     0.029 A 
BRANCH  30  34
HETATM   34  C   UNL     1      44.343 -22.021   2.457  1.00  0.00     0.417 C 
HETATM   35  F   UNL     1      43.146 -22.274   1.860  1.00  0.00    -0.166 F 
HETATM   36  F   UNL     1      45.257 -21.980   1.446  1.00  0.00    -0.166 F 
HETATM   37  F   UNL     1      44.645 -23.132   3.184  1.00  0.00    -0.166 F 
ENDBRANCH  30  34
ENDBRANCH  24  28
ENDBRANCH   2  22
TORSDOF 7
ENDMDL
MODEL 3
REMARK VINA RESULT:      -9.9      1.864      2.448
REMARK  7 active torsions:
REMARK  status: ('A' for Active; 'I' for Inactive)
REMARK    1  A    between atoms: C_4  and  C_5 
REMARK    2  A    between atoms: C_5  and  C_6 
REMARK    3  A    between atoms: C_8  and  C_9 
REMARK    4  A    between atoms: C_9  and  C_10 
REMARK       I    between atoms: C_10  and  N_11 
REMARK    5  A    between atoms: N_11  and  N_12 
REMARK       I    between atoms: N_12  and  C_13 
REMARK       I    between atoms: C_13  and  N_14 
REMARK    6  A    between atoms: N_14  and  C_15 
REMARK    7  A    between atoms: C_17  and  C_18 
ROOT
HETATM    1  C   UNL     1      44.700 -13.875   7.055  1.00  0.00     0.238 C 
HETATM    2  N   UNL     1      44.353 -13.243   8.232  1.00  0.00    -0.266 N 
HETATM    3  O   UNL     1      45.653 -13.499   6.372  1.00  0.00    -0.272 OA
HETATM    4  H   UNL     1      43.766 -13.726   8.904  1.00  0.00     0.190 HD
ENDROOT
BRANCH   1   5
HETATM    5  C   UNL     1      43.768 -14.974   6.563  1.00  0.00     0.139 C 
BRANCH   5   6
HETATM    6  C   UNL     1      44.266 -16.419   6.590  1.00  0.00     0.185 C 
HETATM    7  N   UNL     1      44.315 -16.956   5.234  1.00  0.00    -0.363 N 
HETATM    8  C   UNL     1      43.417 -17.885   4.785  1.00  0.00     0.125 C 
HETATM    9  H   UNL     1      45.087 -16.668   4.640  1.00  0.00     0.161 HD
HETATM   10  N   UNL     1      42.496 -18.419   5.539  1.00  0.00    -0.159 NA
HETATM   11  N   UNL     1      42.526 -18.137   6.881  1.00  0.00    -0.244 N 
HETATM   12  C   UNL     1      43.423 -17.297   7.511  1.00  0.00     0.261 C 
HETATM   13  H   UNL     1      41.942 -18.713   7.484  1.00  0.00     0.192 HD
HETATM   14  O   UNL     1      43.458 -17.199   8.735  1.00  0.00    -0.269 OA
BRANCH   8  15
HETATM   15  C   UNL     1      43.467 -18.289   3.315  1.00  0.00     0.118 C 
BRANCH  15  16
HETATM   16  C   UNL     1      43.860 -19.733   3.121  1.00  0.00    -0.051 A 
HETATM   17  C   UNL     1      44.560 -20.422   4.123  1.00  0.00     0.007 A 
HETATM   18  C   UNL     1      44.896 -21.766   3.957  1.00  0.00     0.001 A 
HETATM   19  C   UNL     1      44.531 -22.437   2.793  1.00  0.00     0.000 A 
HETATM   20  C   UNL     1      43.829 -21.766   1.794  1.00  0.00     0.001 A 
HETATM   21  C   UNL     1      43.493 -20.421   1.956  1.00  0.00     0.007 A 
ENDBRANCH  15  16
ENDBRANCH   8  15
ENDBRANCH   5   6
ENDBRANCH   1   5
BRANCH   2  22
HETATM   22  N   UNL     1      45.281 -12.325   8.758  1.00  0.00    -0.249 N 
HETATM   23  C   UNL     1      44.928 -11.319   9.633  1.00  0.00     0.339 C 
HETATM   24  N   UNL     1      43.805 -11.577  10.386  1.00  0.00    -0.308 N 
HETATM   25  O   UNL     1      45.625 -10.311   9.692  1.00  0.00    -0.245 OA
HETATM   26  H   UNL     1      43.525 -12.546  10.440  1.00  0.00     0.170 HD
HETATM   27  H   UNL     1      46.066 -12.105   8.141  1.00  0.00     0.192 HD
BRANCH  24  28
HETATM   28  C   UNL     1      43.149 -10.697  11.272  1.00  0.00     0.037 A 
HETATM   29  C   UNL     1      41.828 -10.269  11.112  1.00  0.00     0.045 A 
HETATM   30  C   UNL     1      41.230  -9.399  12.043  1.00  0.00     0.050 A 
HETATM   31  C   UNL     1      41.978  -8.960  13.145  1.00  0.00     0.016 A 
HETATM   32  C   UNL     1      43.293  -9.387  13.316  1.00  0.00     0.003 A 
HETATM   33  C   UNL     1      43.874 -10.248  12.383  1.00  0.00     0.029 A 
BRANCH  30  34
HETATM   34  C   UNL     1      39.818  -8.906  11.841  1.00  0.00     0.417 C 
HETATM   35  F   UNL     1      38.865  -9.823  12.165  1.00  0.00    -0.166 F 
HETATM   36  F   UNL     1      39.536  -7.802  12.591  1.00  0.00    -0.166 F 
HETATM   37  F   UNL     1      39.575  -8.548  10.550  1.00  0.00    -0.166 F 
ENDBRANCH  30  34
ENDBRANCH  24  28
ENDBRANCH   2  22
TORSDOF 7
ENDMDL
MODEL 4
REMARK VINA RESULT:      -9.8      1.532      2.142
REMARK  7 active torsions:
REMARK  status: ('A' for Active; 'I' for Inactive)
REMARK    1  A    between atoms: C_4  and  C_5 
REMARK    2  A    between atoms: C_5  and  C_6 
REMARK    3  A    between atoms: C_8  and  C_9 
REMARK    4  A    between atoms: C_9  and  C_10 
REMARK       I    between atoms: C_10  and  N_11 
REMARK    5  A    between atoms: N_11  and  N_12 
REMARK       I    between atoms: N_12  and  C_13 
REMARK       I    between atoms: C_13  and  N_14 
REMARK    6  A    between atoms: N_14  and  C_15 
REMARK    7  A    between atoms: C_17  and  C_18 
ROOT
HETATM    1  C   UNL     1      44.800 -14.045   6.955  1.00  0.00     0.238 C 
HETATM    2  N   UNL     1      44.190 -13.356   7.984  1.00  0.00    -0.266 N 
HETATM    3  O   UNL     1      45.846 -13.651   6.438  1.00  0.00    -0.272 OA
HETATM    4  H   UNL     1      43.510 -13.829   8.569  1.00  0.00     0.190 HD
ENDROOT
BRANCH   1   5
HETATM    5  C   UNL     1      44.049 -15.242   6.390  1.00  0.00     0.139 C 
BRANCH   5   6
HETATM    6  C   UNL     1      42.776 -14.990   5.582  1.00  0.00     0.185 C 
HETATM    7  N   UNL     1      42.360 -16.215   4.908  1.00  0.00    -0.363 N 
HETATM    8  C   UNL     1      42.490 -16.385   3.556  1.00  0.00     0.125 C 
HETATM    9  H   UNL     1      41.901 -16.929   5.467  1.00  0.00     0.161 HD
HETATM   10  N   UNL     1      42.922 -15.453   2.753  1.00  0.00    -0.159 NA
HETATM   11  N   UNL     1      43.120 -14.200   3.274  1.00  0.00    -0.244 N 
HETATM   12  C   UNL     1      42.944 -13.837   4.596  1.00  0.00     0.261 C 
HETATM   13  H   UNL     1      43.255 -13.442   2.609  1.00  0.00     0.192 HD
HETATM   14  O   UNL     1      43.021 -12.665   4.953  1.00  0.00    -0.269 OA
BRANCH   8  15
HETATM   15  C   UNL     1      42.149 -17.747   2.962  1.00  0.00     0.118 C 
BRANCH  15  16
HETATM   16  C   UNL     1      43.202 -18.788   3.249  1.00  0.00    -0.051 A 
HETATM   17  C   UNL     1      43.839 -18.832   4.498  1.00  0.00     0.007 A 
HETATM   18  C   UNL     1      44.791 -19.815   4.775  1.00  0.00     0.001 A 
HETATM   19  C   UNL     1      45.110 -20.767   3.811  1.00  0.00     0.000 A 
HETATM   20  C   UNL     1      44.478 -20.740   2.569  1.00  0.00     0.001 A 
HETATM   21  C   UNL     1      43.528 -19.757   2.289  1.00  0.00     0.007 A 
ENDBRANCH  15  16
ENDBRANCH   8  15
ENDBRANCH   5   6
ENDBRANCH   1   5
BRANCH   2  22
HETATM   22  N   UNL     1      44.942 -12.335   8.597  1.00  0.00    -0.249 N 
HETATM   23  C   UNL     1      44.398 -11.439   9.494  1.00  0.00     0.339 C 
HETATM   24  N   UNL     1      43.293 -11.900  10.173  1.00  0.00    -0.308 N 
HETATM   25  O   UNL     1      44.930 -10.341   9.633  1.00  0.00    -0.245 OA
HETATM   26  H   UNL     1      43.162 -12.901  10.170  1.00  0.00     0.170 HD
HETATM   27  H   UNL     1      45.712 -11.970   8.033  1.00  0.00     0.192 HD
BRANCH  24  28
HETATM   28  C   UNL     1      42.470 -11.173  11.058  1.00  0.00     0.037 A 
HETATM   29  C   UNL     1      42.905 -10.655  12.281  1.00  0.00     0.045 A 
HETATM   30  C   UNL     1      42.033  -9.926  13.111  1.00  0.00     0.050 A 
HETATM   31  C   UNL     1      40.710  -9.720  12.697  1.00  0.00     0.016 A 
HETATM   32  C   UNL     1      40.269 -10.227  11.476  1.00  0.00     0.003 A 
HETATM   33  C   UNL     1      41.144 -10.951  10.665  1.00  0.00     0.029 A 
BRANCH  30  34
HETATM   34  C   UNL     1      42.498  -9.406  14.450  1.00  0.00     0.417 C 
HETATM   35  F   UNL     1      42.314 -10.284  15.474  1.00  0.00    -0.166 F 
HETATM   36  F   UNL     1      43.828  -9.102  14.460  1.00  0.00    -0.166 F 
HETATM   37  F   UNL     1      41.854  -8.262  14.812  1.00  0.00    -0.166 F 
ENDBRANCH  30  34
ENDBRANCH  24  28
ENDBRANCH   2  22
TORSDOF 7
ENDMDL
MODEL 5
REMARK VINA RESULT:      -9.7      6.025      7.894
REMARK  7 active torsions:
REMARK  status: ('A' for Active; 'I' for Inactive)
REMARK    1  A    between atoms: C_4  and  C_5 
REMARK    2  A    between atoms: C_5  and  C_6 
REMARK    3  A    between atoms: C_8  and  C_9 
REMARK    4  A    between atoms: C_9  and  C_10 
REMARK       I    between atoms: C_10  and  N_11 
REMARK    5  A    between atoms: N_11  and  N_12 
REMARK       I    between atoms: N_12  and  C_13 
REMARK       I    between atoms: C_13  and  N_14 
REMARK    6  A    between atoms: N_14  and  C_15 
REMARK    7  A    between atoms: C_17  and  C_18 
ROOT
HETATM    1  C   UNL     1      40.862 -12.096   1.730  1.00  0.00     0.238 C 
HETATM    2  N   UNL     1      42.093 -12.292   2.323  1.00  0.00    -0.266 N 
HETATM    3  O   UNL     1      39.823 -12.055   2.389  1.00  0.00    -0.272 OA
HETATM    4  H   UNL     1      42.937 -12.044   1.816  1.00  0.00     0.190 HD
ENDROOT
BRANCH   1   5
HETATM    5  C   UNL     1      40.827 -12.071   0.209  1.00  0.00     0.139 C 
BRANCH   5   6
HETATM    6  C   UNL     1      40.096 -13.197  -0.522  1.00  0.00     0.185 C 
HETATM    7  N   UNL     1      39.953 -14.353   0.355  1.00  0.00    -0.363 N 
HETATM    8  C   UNL     1      40.684 -15.498   0.179  1.00  0.00     0.125 C 
HETATM    9  H   UNL     1      39.238 -14.315   1.075  1.00  0.00     0.161 HD
HETATM   10  N   UNL     1      41.506 -15.680  -0.817  1.00  0.00    -0.159 NA
HETATM   11  N   UNL     1      41.529 -14.734  -1.809  1.00  0.00    -0.244 N 
HETATM   12  C   UNL     1      40.786 -13.569  -1.833  1.00  0.00     0.261 C 
HETATM   13  H   UNL     1      42.012 -14.982  -2.669  1.00  0.00     0.192 HD
HETATM   14  O   UNL     1      40.773 -12.838  -2.820  1.00  0.00    -0.269 OA
BRANCH   8  15
HETATM   15  C   UNL     1      40.561 -16.602   1.223  1.00  0.00     0.118 C 
BRANCH  15  16
HETATM   16  C   UNL     1      41.859 -17.335   1.452  1.00  0.00    -0.051 A 
HETATM   17  C   UNL     1      43.088 -16.682   1.274  1.00  0.00     0.007 A 
HETATM   18  C   UNL     1      44.289 -17.350   1.516  1.00  0.00     0.001 A 
HETATM   19  C   UNL     1      44.275 -18.674   1.945  1.00  0.00     0.000 A 
HETATM   20  C   UNL     1      43.061 -19.333   2.132  1.00  0.00     0.001 A 
HETATM   21  C   UNL     1      41.859 -18.667   1.889  1.00  0.00     0.007 A 
ENDBRANCH  15  16
ENDBRANCH   8  15
ENDBRANCH   5   6
ENDBRANCH   1   5
BRANCH   2  22
HETATM   22  N   UNL     1      42.149 -12.179   3.725  1.00  0.00    -0.249 N 
HETATM   23  C   UNL     1      42.095 -13.269   4.568  1.00  0.00     0.339 C 
HETATM   24  N   UNL     1      42.540 -14.449   4.014  1.00  0.00    -0.308 N 
HETATM   25  O   UNL     1      41.690 -13.114   5.716  1.00  0.00    -0.245 OA
HETATM   26  H   UNL     1      43.109 -14.358   3.185  1.00  0.00     0.170 HD
HETATM   27  H   UNL     1      41.746 -11.320   4.103  1.00  0.00     0.192 HD
BRANCH  24  28
HETATM   28  C   UNL     1      42.497 -15.734   4.595  1.00  0.00     0.037 A 
HETATM   29  C   UNL     1      43.627 -16.431   5.031  1.00  0.00     0.045 A 
HETATM   30  C   UNL     1      43.511 -17.707   5.615  1.00  0.00     0.050 A 
HETATM   31  C   UNL     1      42.239 -18.279   5.758  1.00  0.00     0.016 A 
HETATM   32  C   UNL     1      41.107 -17.588   5.332  1.00  0.00     0.003 A 
HETATM   33  C   UNL     1      41.237 -16.325   4.752  1.00  0.00     0.029 A 
BRANCH  30  34
HETATM   34  C   UNL     1      44.739 -18.472   6.044  1.00  0.00     0.417 C 
HETATM   35  F   UNL     1      45.293 -19.224   5.053  1.00  0.00    -0.166 F 
HETATM   36  F   UNL     1      45.737 -17.655   6.488  1.00  0.00    -0.166 F 
HETATM   37  F   UNL     1      44.481 -19.331   7.070  1.00  0.00    -0.166 F 
ENDBRANCH  30  34
ENDBRANCH  24  28
ENDBRANCH   2  22
TORSDOF 7
ENDMDL
MODEL 6
REMARK VINA RESULT:      -9.7      4.581      9.270
REMARK  7 active torsions:
REMARK  status: ('A' for Active; 'I' for Inactive)
REMARK    1  A    between atoms: C_4  and  C_5 
REMARK    2  A    between atoms: C_5  and  C_6 
REMARK    3  A    between atoms: C_8  and  C_9 
REMARK    4  A    between atoms: C_9  and  C_10 
REMARK       I    between atoms: C_10  and  N_11 
REMARK    5  A    between atoms: N_11  and  N_12 
REMARK       I    between atoms: N_12  and  C_13 
REMARK       I    between atoms: C_13  and  N_14 
REMARK    6  A    between atoms: N_14  and  C_15 
REMARK    7  A    between atoms: C_17  and  C_18 
ROOT
HETATM    1  C   UNL     1      41.395 -10.909   7.731  1.00  0.00     0.238 C 
HETATM    2  N   UNL     1      41.321 -12.081   7.005  1.00  0.00    -0.266 N 
HETATM    3  O   UNL     1      42.093  -9.962   7.367  1.00  0.00    -0.272 OA
HETATM    4  H   UNL     1      40.547 -12.717   7.162  1.00  0.00     0.190 HD
ENDROOT
BRANCH   1   5
HETATM    5  C   UNL     1      40.684 -10.887   9.076  1.00  0.00     0.139 C 
BRANCH   5   6
HETATM    6  C   UNL     1      41.347 -10.151  10.240  1.00  0.00     0.185 C 
HETATM    7  N   UNL     1      42.797 -10.163  10.079  1.00  0.00    -0.363 N 
HETATM    8  C   UNL     1      43.611 -10.935  10.862  1.00  0.00     0.125 C 
HETATM    9  H   UNL     1      43.203  -9.523   9.402  1.00  0.00     0.161 HD
HETATM   10  N   UNL     1      43.177 -11.661  11.855  1.00  0.00    -0.159 NA
HETATM   11  N   UNL     1      41.860 -11.530  12.216  1.00  0.00    -0.244 N 
HETATM   12  C   UNL     1      40.927 -10.724  11.592  1.00  0.00     0.261 C 
HETATM   13  H   UNL     1      41.586 -11.936  13.107  1.00  0.00     0.192 HD
HETATM   14  O   UNL     1      39.802 -10.569  12.057  1.00  0.00    -0.269 OA
BRANCH   8  15
HETATM   15  C   UNL     1      45.099 -10.982  10.534  1.00  0.00     0.118 C 
BRANCH  15  16
HETATM   16  C   UNL     1      45.402 -11.824   9.320  1.00  0.00    -0.051 A 
HETATM   17  C   UNL     1      44.469 -12.760   8.850  1.00  0.00     0.007 A 
HETATM   18  C   UNL     1      44.736 -13.518   7.709  1.00  0.00     0.001 A 
HETATM   19  C   UNL     1      45.933 -13.343   7.021  1.00  0.00     0.000 A 
HETATM   20  C   UNL     1      46.866 -12.411   7.472  1.00  0.00     0.001 A 
HETATM   21  C   UNL     1      46.603 -11.653   8.615  1.00  0.00     0.007 A 
ENDBRANCH  15  16
ENDBRANCH   8  15
ENDBRANCH   5   6
ENDBRANCH   1   5
BRANCH   2  22
HETATM   22  N   UNL     1      41.861 -12.058   5.705  1.00  0.00    -0.249 N 
HETATM   23  C   UNL     1      42.378 -13.178   5.088  1.00  0.00     0.339 C 
HETATM   24  N   UNL     1      41.858 -14.373   5.532  1.00  0.00    -0.308 N 
HETATM   25  O   UNL     1      43.218 -13.035   4.205  1.00  0.00    -0.245 OA
HETATM   26  H   UNL     1      40.983 -14.313   6.032  1.00  0.00     0.170 HD
HETATM   27  H   UNL     1      42.300 -11.175   5.437  1.00  0.00     0.192 HD
BRANCH  24  28
HETATM   28  C   UNL     1      42.273 -15.672   5.169  1.00  0.00     0.037 A 
HETATM   29  C   UNL     1      43.264 -16.392   5.842  1.00  0.00     0.045 A 
HETATM   30  C   UNL     1      43.619 -17.691   5.434  1.00  0.00     0.050 A 
HETATM   31  C   UNL     1      42.964 -18.265   4.336  1.00  0.00     0.016 A 
HETATM   32  C   UNL     1      41.970 -17.558   3.663  1.00  0.00     0.003 A 
HETATM   33  C   UNL     1      41.630 -16.268   4.077  1.00  0.00     0.029 A 
BRANCH  30  34
HETATM   34  C   UNL     1      44.721 -18.446   6.139  1.00  0.00     0.417 C 
HETATM   35  F   UNL     1      44.325 -19.041   7.297  1.00  0.00    -0.166 F 
HETATM   36  F   UNL     1      45.244 -19.445   5.372  1.00  0.00    -0.166 F 
HETATM   37  F   UNL     1      45.771 -17.642   6.466  1.00  0.00    -0.166 F 
ENDBRANCH  30  34
ENDBRANCH  24  28
ENDBRANCH   2  22
TORSDOF 7
ENDMDL
MODEL 7
REMARK VINA RESULT:      -9.6      1.917      2.997
REMARK  7 active torsions:
REMARK  status: ('A' for Active; 'I' for Inactive)
REMARK    1  A    between atoms: C_4  and  C_5 
REMARK    2  A    between atoms: C_5  and  C_6 
REMARK    3  A    between atoms: C_8  and  C_9 
REMARK    4  A    between atoms: C_9  and  C_10 
REMARK       I    between atoms: C_10  and  N_11 
REMARK    5  A    between atoms: N_11  and  N_12 
REMARK       I    between atoms: N_12  and  C_13 
REMARK       I    between atoms: C_13  and  N_14 
REMARK    6  A    between atoms: N_14  and  C_15 
REMARK    7  A    between atoms: C_17  and  C_18 
ROOT
HETATM    1  C   UNL     1      41.560 -13.206   5.710  1.00  0.00     0.238 C 
HETATM    2  N   UNL     1      41.458 -12.116   6.550  1.00  0.00    -0.266 N 
HETATM    3  O   UNL     1      40.706 -14.094   5.691  1.00  0.00    -0.272 OA
HETATM    4  H   UNL     1      42.002 -11.282   6.355  1.00  0.00     0.190 HD
ENDROOT
BRANCH   1   5
HETATM    5  C   UNL     1      42.845 -13.338   4.906  1.00  0.00     0.139 C 
BRANCH   5   6
HETATM    6  C   UNL     1      43.816 -14.464   5.261  1.00  0.00     0.185 C 
HETATM    7  N   UNL     1      43.281 -15.745   4.813  1.00  0.00    -0.363 N 
HETATM    8  C   UNL     1      42.791 -16.677   5.687  1.00  0.00     0.125 C 
HETATM    9  H   UNL     1      43.343 -15.963   3.823  1.00  0.00     0.161 HD
HETATM   10  N   UNL     1      42.825 -16.535   6.984  1.00  0.00    -0.159 NA
HETATM   11  N   UNL     1      43.513 -15.464   7.492  1.00  0.00    -0.244 N 
HETATM   12  C   UNL     1      44.147 -14.484   6.752  1.00  0.00     0.261 C 
HETATM   13  H   UNL     1      43.708 -15.476   8.491  1.00  0.00     0.192 HD
HETATM   14  O   UNL     1      44.848 -13.630   7.287  1.00  0.00    -0.269 OA
BRANCH   8  15
HETATM   15  C   UNL     1      42.134 -17.930   5.117  1.00  0.00     0.118 C 
BRANCH  15  16
HETATM   16  C   UNL     1      43.094 -18.781   4.325  1.00  0.00    -0.051 A 
HETATM   17  C   UNL     1      44.092 -19.523   4.974  1.00  0.00     0.007 A 
HETATM   18  C   UNL     1      44.961 -20.335   4.244  1.00  0.00     0.001 A 
HETATM   19  C   UNL     1      44.837 -20.422   2.860  1.00  0.00     0.000 A 
HETATM   20  C   UNL     1      43.844 -19.697   2.204  1.00  0.00     0.001 A 
HETATM   21  C   UNL     1      42.976 -18.881   2.931  1.00  0.00     0.007 A 
ENDBRANCH  15  16
ENDBRANCH   8  15
ENDBRANCH   5   6
ENDBRANCH   1   5
BRANCH   2  22
HETATM   22  N   UNL     1      40.220 -11.920   7.189  1.00  0.00    -0.249 N 
HETATM   23  C   UNL     1      40.097 -11.293   8.413  1.00  0.00     0.339 C 
HETATM   24  N   UNL     1      41.105 -10.403   8.709  1.00  0.00    -0.308 N 
HETATM   25  O   UNL     1      39.125 -11.549   9.116  1.00  0.00    -0.245 OA
HETATM   26  H   UNL     1      41.655 -10.086   7.924  1.00  0.00     0.170 HD
HETATM   27  H   UNL     1      39.519 -12.639   7.000  1.00  0.00     0.192 HD
BRANCH  24  28
HETATM   28  C   UNL     1      41.303  -9.709   9.921  1.00  0.00     0.037 A 
HETATM   29  C   UNL     1      41.977 -10.242  11.024  1.00  0.00     0.045 A 
HETATM   30  C   UNL     1      42.151  -9.488  12.200  1.00  0.00     0.050 A 
HETATM   31  C   UNL     1      41.638  -8.184  12.257  1.00  0.00     0.016 A 
HETATM   32  C   UNL     1      40.972  -7.643  11.160  1.00  0.00     0.003 A 
HETATM   33  C   UNL     1      40.804  -8.403  10.001  1.00  0.00     0.029 A 
BRANCH  30  34
HETATM   34  C   UNL     1      42.841 -10.084  13.402  1.00  0.00     0.417 C 
HETATM   35  F   UNL     1      43.976  -9.426  13.767  1.00  0.00    -0.166 F 
HETATM   36  F   UNL     1      42.048 -10.091  14.511  1.00  0.00    -0.166 F 
HETATM   37  F   UNL     1      43.205 -11.381  13.200  1.00  0.00    -0.166 F 
ENDBRANCH  30  34
ENDBRANCH  24  28
ENDBRANCH   2  22
TORSDOF 7
ENDMDL
MODEL 8
REMARK VINA RESULT:      -9.4      7.297      9.541
REMARK  7 active torsions:
REMARK  status: ('A' for Active; 'I' for Inactive)
REMARK    1  A    between atoms: C_4  and  C_5 
REMARK    2  A    between atoms: C_5  and  C_6 
REMARK    3  A    between atoms: C_8  and  C_9 
REMARK    4  A    between atoms: C_9  and  C_10 
REMARK       I    between atoms: C_10  and  N_11 
REMARK    5  A    between atoms: N_11  and  N_12 
REMARK       I    between atoms: N_12  and  C_13 
REMARK       I    between atoms: C_13  and  N_14 
REMARK    6  A    between atoms: N_14  and  C_15 
REMARK    7  A    between atoms: C_17  and  C_18 
ROOT
HETATM    1  C   UNL     1      43.198 -13.654   4.228  1.00  0.00     0.238 C 
HETATM    2  N   UNL     1      42.154 -13.024   3.581  1.00  0.00    -0.266 N 
HETATM    3  O   UNL     1      44.324 -13.720   3.734  1.00  0.00    -0.272 OA
HETATM    4  H   UNL     1      41.338 -12.738   4.110  1.00  0.00     0.190 HD
ENDROOT
BRANCH   1   5
HETATM    5  C   UNL     1      42.864 -14.387   5.520  1.00  0.00     0.139 C 
BRANCH   5   6
HETATM    6  C   UNL     1      42.447 -15.855   5.438  1.00  0.00     0.185 C 
HETATM    7  N   UNL     1      43.321 -16.573   4.518  1.00  0.00    -0.363 N 
HETATM    8  C   UNL     1      42.899 -16.987   3.283  1.00  0.00     0.125 C 
HETATM    9  H   UNL     1      44.249 -16.824   4.846  1.00  0.00     0.161 HD
HETATM   10  N   UNL     1      41.675 -16.842   2.856  1.00  0.00    -0.159 NA
HETATM   11  N   UNL     1      40.737 -16.382   3.744  1.00  0.00    -0.244 N 
HETATM   12  C   UNL     1      40.977 -16.010   5.054  1.00  0.00     0.261 C 
HETATM   13  H   UNL     1      39.762 -16.468   3.468  1.00  0.00     0.192 HD
HETATM   14  O   UNL     1      40.058 -15.729   5.818  1.00  0.00    -0.269 OA
BRANCH   8  15
HETATM   15  C   UNL     1      43.921 -17.614   2.342  1.00  0.00     0.118 C 
BRANCH  15  16
HETATM   16  C   UNL     1      44.074 -19.099   2.554  1.00  0.00    -0.051 A 
HETATM   17  C   UNL     1      44.690 -19.594   3.713  1.00  0.00     0.007 A 
HETATM   18  C   UNL     1      44.805 -20.969   3.925  1.00  0.00     0.001 A 
HETATM   19  C   UNL     1      44.298 -21.863   2.986  1.00  0.00     0.000 A 
HETATM   20  C   UNL     1      43.677 -21.385   1.833  1.00  0.00     0.001 A 
HETATM   21  C   UNL     1      43.564 -20.010   1.618  1.00  0.00     0.007 A 
ENDBRANCH  15  16
ENDBRANCH   8  15
ENDBRANCH   5   6
ENDBRANCH   1   5
BRANCH   2  22
HETATM   22  N   UNL     1      42.484 -12.234   2.463  1.00  0.00    -0.249 N 
HETATM   23  C   UNL     1      41.937 -12.435   1.213  1.00  0.00     0.339 C 
HETATM   24  N   UNL     1      40.696 -13.032   1.217  1.00  0.00    -0.308 N 
HETATM   25  O   UNL     1      42.561 -12.065   0.224  1.00  0.00    -0.245 OA
HETATM   26  H   UNL     1      40.196 -13.002   2.094  1.00  0.00     0.170 HD
HETATM   27  H   UNL     1      43.437 -11.866   2.463  1.00  0.00     0.192 HD
BRANCH  24  28
HETATM   28  C   UNL     1      39.951 -13.460   0.098  1.00  0.00     0.037 A 
HETATM   29  C   UNL     1      40.477 -14.236  -0.939  1.00  0.00     0.045 A 
HETATM   30  C   UNL     1      39.673 -14.641  -2.021  1.00  0.00     0.050 A 
HETATM   31  C   UNL     1      38.325 -14.257  -2.051  1.00  0.00     0.016 A 
HETATM   32  C   UNL     1      37.790 -13.490  -1.018  1.00  0.00     0.003 A 
HETATM   33  C   UNL     1      38.600 -13.092   0.048  1.00  0.00     0.029 A 
BRANCH  30  34
HETATM   34  C   UNL     1      40.258 -15.442  -3.159  1.00  0.00     0.417 C 
HETATM   35  F   UNL     1      40.236 -16.787  -2.952  1.00  0.00    -0.166 F 
HETATM   36  F   UNL     1      39.597 -15.240  -4.335  1.00  0.00    -0.166 F 
HETATM   37  F   UNL     1      41.558 -15.118  -3.405  1.00  0.00    -0.166 F 
ENDBRANCH  30  34
ENDBRANCH  24  28
ENDBRANCH   2  22
TORSDOF 7
ENDMDL
MODEL 9
REMARK VINA RESULT:      -9.4      1.967      2.738
REMARK  7 active torsions:
REMARK  status: ('A' for Active; 'I' for Inactive)
REMARK    1  A    between atoms: C_4  and  C_5 
REMARK    2  A    between atoms: C_5  and  C_6 
REMARK    3  A    between atoms: C_8  and  C_9 
REMARK    4  A    between atoms: C_9  and  C_10 
REMARK       I    between atoms: C_10  and  N_11 
REMARK    5  A    between atoms: N_11  and  N_12 
REMARK       I    between atoms: N_12  and  C_13 
REMARK       I    between atoms: C_13  and  N_14 
REMARK    6  A    between atoms: N_14  and  C_15 
REMARK    7  A    between atoms: C_17  and  C_18 
ROOT
HETATM    1  C   UNL     1      41.547 -13.865   5.873  1.00  0.00     0.238 C 
HETATM    2  N   UNL     1      40.699 -12.843   6.249  1.00  0.00    -0.266 N 
HETATM    3  O   UNL     1      42.584 -13.651   5.244  1.00  0.00    -0.272 OA
HETATM    4  H   UNL     1      40.022 -13.002   6.988  1.00  0.00     0.190 HD
ENDROOT
BRANCH   1   5
HETATM    5  C   UNL     1      41.076 -15.286   6.147  1.00  0.00     0.139 C 
BRANCH   5   6
HETATM    6  C   UNL     1      41.024 -16.275   4.983  1.00  0.00     0.185 C 
HETATM    7  N   UNL     1      42.074 -17.277   5.130  1.00  0.00    -0.363 N 
HETATM    8  C   UNL     1      43.186 -17.290   4.332  1.00  0.00     0.125 C 
HETATM    9  H   UNL     1      41.927 -18.019   5.808  1.00  0.00     0.161 HD
HETATM   10  N   UNL     1      43.368 -16.466   3.337  1.00  0.00    -0.159 NA
HETATM   11  N   UNL     1      42.327 -15.642   2.991  1.00  0.00    -0.244 N 
HETATM   12  C   UNL     1      41.105 -15.570   3.631  1.00  0.00     0.261 C 
HETATM   13  H   UNL     1      42.403 -15.158   2.099  1.00  0.00     0.192 HD
HETATM   14  O   UNL     1      40.184 -14.896   3.179  1.00  0.00    -0.269 OA
BRANCH   8  15
HETATM   15  C   UNL     1      44.289 -18.295   4.645  1.00  0.00     0.118 C 
BRANCH  15  16
HETATM   16  C   UNL     1      44.217 -19.528   3.781  1.00  0.00    -0.051 A 
HETATM   17  C   UNL     1      44.758 -20.744   4.225  1.00  0.00     0.007 A 
HETATM   18  C   UNL     1      44.663 -21.893   3.439  1.00  0.00     0.001 A 
HETATM   19  C   UNL     1      44.020 -21.842   2.206  1.00  0.00     0.000 A 
HETATM   20  C   UNL     1      43.471 -20.643   1.756  1.00  0.00     0.001 A 
HETATM   21  C   UNL     1      43.567 -19.491   2.539  1.00  0.00     0.007 A 
ENDBRANCH  15  16
ENDBRANCH   8  15
ENDBRANCH   5   6
ENDBRANCH   1   5
BRANCH   2  22
HETATM   22  N   UNL     1      41.190 -11.530   6.121  1.00  0.00    -0.249 N 
HETATM   23  C   UNL     1      41.944 -10.912   7.097  1.00  0.00     0.339 C 
HETATM   24  N   UNL     1      42.648 -11.771   7.911  1.00  0.00    -0.308 N 
HETATM   25  O   UNL     1      41.949  -9.687   7.157  1.00  0.00    -0.245 OA
HETATM   26  H   UNL     1      42.776 -12.707   7.556  1.00  0.00     0.170 HD
HETATM   27  H   UNL     1      40.603 -10.904   5.567  1.00  0.00     0.192 HD
BRANCH  24  28
HETATM   28  C   UNL     1      43.406 -11.435   9.053  1.00  0.00     0.037 A 
HETATM   29  C   UNL     1      42.849 -10.997  10.258  1.00  0.00     0.045 A 
HETATM   30  C   UNL     1      43.664 -10.693  11.365  1.00  0.00     0.050 A 
HETATM   31  C   UNL     1      45.054 -10.834  11.248  1.00  0.00     0.016 A 
HETATM   32  C   UNL     1      45.617 -11.277  10.054  1.00  0.00     0.003 A 
HETATM   33  C   UNL     1      44.797 -11.572   8.963  1.00  0.00     0.029 A 
BRANCH  30  34
HETATM   34  C   UNL     1      43.059 -10.179  12.649  1.00  0.00     0.417 C 
HETATM   35  F   UNL     1      42.520 -11.153  13.431  1.00  0.00    -0.166 F 
HETATM   36  F   UNL     1      43.970  -9.537  13.436  1.00  0.00    -0.166 F 
HETATM   37  F   UNL     1      42.062  -9.278  12.427  1.00  0.00    -0.166 F 
ENDBRANCH  30  34
ENDBRANCH  24  28
ENDBRANCH   2  22
TORSDOF 7
ENDMDL
MODEL 10
REMARK VINA RESULT:      -9.3      6.961     10.245
REMARK  7 active torsions:
REMARK  status: ('A' for Active; 'I' for Inactive)
REMARK    1  A    between atoms: C_4  and  C_5 
REMARK    2  A    between atoms: C_5  and  C_6 
REMARK    3  A    between atoms: C_8  and  C_9 
REMARK    4  A    between atoms: C_9  and  C_10 
REMARK       I    between atoms: C_10  and  N_11 
REMARK    5  A    between atoms: N_11  and  N_12 
REMARK       I    between atoms: N_12  and  C_13 
REMARK       I    between atoms: C_13  and  N_14 
REMARK    6  A    between atoms: N_14  and  C_15 
REMARK    7  A    between atoms: C_17  and  C_18 
ROOT
HETATM    1  C   UNL     1      40.636 -13.503   1.616  1.00  0.00     0.238 C 
HETATM    2  N   UNL     1      40.212 -14.815   1.669  1.00  0.00    -0.266 N 
HETATM    3  O   UNL     1      41.519 -13.135   0.841  1.00  0.00    -0.272 OA
HETATM    4  H   UNL     1      39.318 -15.035   2.093  1.00  0.00     0.190 HD
ENDROOT
BRANCH   1   5
HETATM    5  C   UNL     1      40.062 -12.552   2.657  1.00  0.00     0.139 C 
BRANCH   5   6
HETATM    6  C   UNL     1      41.024 -11.661   3.441  1.00  0.00     0.185 C 
HETATM    7  N   UNL     1      42.194 -12.429   3.853  1.00  0.00    -0.363 N 
HETATM    8  C   UNL     1      42.400 -12.804   5.154  1.00  0.00     0.125 C 
HETATM    9  H   UNL     1      42.901 -12.627   3.151  1.00  0.00     0.161 HD
HETATM   10  N   UNL     1      41.619 -12.450   6.136  1.00  0.00    -0.159 NA
HETATM   11  N   UNL     1      40.625 -11.542   5.869  1.00  0.00    -0.244 N 
HETATM   12  C   UNL     1      40.343 -10.993   4.633  1.00  0.00     0.261 C 
HETATM   13  H   UNL     1      40.161 -11.121   6.671  1.00  0.00     0.192 HD
HETATM   14  O   UNL     1      39.518 -10.093   4.506  1.00  0.00    -0.269 OA
BRANCH   8  15
HETATM   15  C   UNL     1      43.582 -13.715   5.466  1.00  0.00     0.118 C 
BRANCH  15  16
HETATM   16  C   UNL     1      43.162 -15.017   6.099  1.00  0.00    -0.051 A 
HETATM   17  C   UNL     1      44.040 -15.719   6.938  1.00  0.00     0.007 A 
HETATM   18  C   UNL     1      43.641 -16.909   7.549  1.00  0.00     0.001 A 
HETATM   19  C   UNL     1      42.359 -17.405   7.335  1.00  0.00     0.000 A 
HETATM   20  C   UNL     1      41.473 -16.714   6.510  1.00  0.00     0.001 A 
HETATM   21  C   UNL     1      41.871 -15.525   5.896  1.00  0.00     0.007 A 
ENDBRANCH  15  16
ENDBRANCH   8  15
ENDBRANCH   5   6
ENDBRANCH   1   5
BRANCH   2  22
HETATM   22  N   UNL     1      40.636 -15.661   0.627  1.00  0.00    -0.249 N 
HETATM   23  C   UNL     1      41.573 -16.658   0.803  1.00  0.00     0.339 C 
HETATM   24  N   UNL     1      41.657 -17.150   2.086  1.00  0.00    -0.308 N 
HETATM   25  O   UNL     1      42.228 -17.035  -0.163  1.00  0.00    -0.245 OA
HETATM   26  H   UNL     1      40.866 -16.957   2.683  1.00  0.00     0.170 HD
HETATM   27  H   UNL     1      40.625 -15.237  -0.303  1.00  0.00     0.192 HD
BRANCH  24  28
HETATM   28  C   UNL     1      42.592 -18.083   2.583  1.00  0.00     0.037 A 
HETATM   29  C   UNL     1      42.745 -19.378   2.081  1.00  0.00     0.045 A 
HETATM   30  C   UNL     1      43.709 -20.253   2.616  1.00  0.00     0.050 A 
HETATM   31  C   UNL     1      44.524 -19.811   3.668  1.00  0.00     0.016 A 
HETATM   32  C   UNL     1      44.383 -18.519   4.170  1.00  0.00     0.003 A 
HETATM   33  C   UNL     1      43.420 -17.663   3.632  1.00  0.00     0.029 A 
BRANCH  30  34
HETATM   34  C   UNL     1      43.840 -21.665   2.098  1.00  0.00     0.417 C 
HETATM   35  F   UNL     1      42.725 -22.123   1.464  1.00  0.00    -0.166 F 
HETATM   36  F   UNL     1      44.856 -21.801   1.199  1.00  0.00    -0.166 F 
HETATM   37  F   UNL     1      44.104 -22.558   3.092  1.00  0.00    -0.166 F 
ENDBRANCH  30  34
ENDBRANCH  24  28
ENDBRANCH   2  22
TORSDOF 7
ENDMDL
