MODEL 1
REMARK VINA RESULT:      -8.5      0.000      0.000
REMARK  6 active torsions:
REMARK  status: ('A' for Active; 'I' for Inactive)
REMARK    1  A    between atoms: O_2  and  C_3 
REMARK    2  A    between atoms: C_5  and  O_6 
REMARK    3  A    between atoms: C_8  and  N_9 
REMARK       I    between atoms: N_9  and  C_10 
REMARK    4  A    between atoms: C_10  and  C_11 
REMARK    5  A    between atoms: C_11  and  N_12 
REMARK    6  A    between atoms: C_18  and  C_19 
ROOT
HETATM    1  N   UNL     1      40.284 -13.148   3.208  1.00  0.00    -0.063 N 
HETATM    2  H   UNL     1      40.262 -14.035   3.727  1.00  0.00     0.280 HD
HETATM    3  C   UNL     1      41.679 -12.585   3.342  1.00  0.00     0.240 C 
HETATM    4  C   UNL     1      42.018 -12.440   4.811  1.00  0.00     0.083 C 
HETATM    5  C   UNL     1      40.988 -11.580   5.554  1.00  0.00     0.131 A 
HETATM    6  N   UNL     1      41.283 -11.736   7.000  1.00  0.00    -0.251 NA
HETATM    7  C   UNL     1      41.654 -10.564   7.443  1.00  0.00     0.132 A 
HETATM    8  C   UNL     1      41.598  -9.512   6.358  1.00  0.00     0.272 A 
HETATM    9  O   UNL     1      41.910  -8.350   6.431  1.00  0.00    -0.266 OA
HETATM   10  N   UNL     1      41.138 -10.188   5.269  1.00  0.00    -0.327 N 
HETATM   11  C   UNL     1      39.557 -12.070   5.308  1.00  0.00     0.083 C 
HETATM   12  C   UNL     1      39.251 -12.239   3.827  1.00  0.00     0.240 C 
HETATM   13  H   UNL     1      41.068  -9.711   4.377  1.00  0.00     0.165 HD
ENDROOT
BRANCH   1  14
HETATM   14  C   UNL     1      39.963 -13.559   1.744  1.00  0.00     0.337 C 
BRANCH  14  15
HETATM   15  C   UNL     1      38.995 -14.732   1.586  1.00  0.00     0.248 C 
HETATM   16  N   UNL     1      39.296 -15.988   2.015  1.00  0.00    -0.323 N 
HETATM   17  H   UNL     1      38.463 -16.570   2.038  1.00  0.00     0.169 HD
HETATM   18  O   UNL     1      37.851 -14.536   1.159  1.00  0.00    -0.271 OA
BRANCH  16  19
HETATM   19  C   UNL     1      40.486 -16.649   2.400  1.00  0.00     0.068 A 
HETATM   20  C   UNL     1      41.144 -16.554   3.640  1.00  0.00     0.097 A 
HETATM   21  C   UNL     1      42.349 -17.253   3.842  1.00  0.00     0.075 A 
HETATM   22  C   UNL     1      42.929 -17.996   2.812  1.00  0.00     0.070 A 
HETATM   23  C   UNL     1      42.284 -18.084   1.586  1.00  0.00     0.039 A 
HETATM   24  C   UNL     1      41.084 -17.404   1.377  1.00  0.00     0.035 A 
BRANCH  20  25
HETATM   25  O   UNL     1      40.611 -15.728   4.592  1.00  0.00    -0.354 OA
HETATM   26  C   UNL     1      41.085 -15.868   5.932  1.00  0.00     0.210 C 
ENDBRANCH  20  25
BRANCH  22  27
HETATM   27  O   UNL     1      44.100 -18.690   2.914  1.00  0.00    -0.356 OA
HETATM   28  C   UNL     1      44.011 -20.088   2.648  1.00  0.00     0.210 C 
ENDBRANCH  22  27
ENDBRANCH  16  19
ENDBRANCH  14  15
ENDBRANCH   1  14
BRANCH   7  29
HETATM   29  C   UNL     1      42.096 -10.320   8.829  1.00  0.00    -0.002 A 
HETATM   30  C   UNL     1      43.289 -10.921   9.261  1.00  0.00     0.016 A 
HETATM   31  C   UNL     1      43.762 -10.706  10.558  1.00  0.00     0.024 A 
HETATM   32  C   UNL     1      43.042  -9.895  11.431  1.00  0.00     0.034 A 
HETATM   33 CL   UNL     1      43.623  -9.627  13.027  1.00  0.00    -0.084 Cl
HETATM   34  C   UNL     1      41.851  -9.301  11.016  1.00  0.00     0.024 A 
HETATM   35  C   UNL     1      41.377  -9.512   9.715  1.00  0.00     0.016 A 
ENDBRANCH   7  29
TORSDOF 6
ENDMDL
MODEL 2
REMARK VINA RESULT:      -8.4      3.721      9.337
REMARK  6 active torsions:
REMARK  status: ('A' for Active; 'I' for Inactive)
REMARK    1  A    between atoms: O_2  and  C_3 
REMARK    2  A    between atoms: C_5  and  O_6 
REMARK    3  A    between atoms: C_8  and  N_9 
REMARK       I    between atoms: N_9  and  C_10 
REMARK    4  A    between atoms: C_10  and  C_11 
REMARK    5  A    between atoms: C_11  and  N_12 
REMARK    6  A    between atoms: C_18  and  C_19 
ROOT
HETATM    1  N   UNL     1      40.759 -12.996   6.463  1.00  0.00    -0.063 N 
HETATM    2  H   UNL     1      40.800 -13.574   7.313  1.00  0.00     0.280 HD
HETATM    3  C   UNL     1      39.898 -13.732   5.464  1.00  0.00     0.240 C 
HETATM    4  C   UNL     1      40.473 -15.114   5.235  1.00  0.00     0.083 C 
HETATM    5  C   UNL     1      41.938 -15.058   4.785  1.00  0.00     0.131 A 
HETATM    6  N   UNL     1      42.448 -16.450   4.854  1.00  0.00    -0.251 NA
HETATM    7  C   UNL     1      42.739 -16.811   3.632  1.00  0.00     0.132 A 
HETATM    8  C   UNL     1      42.499 -15.692   2.645  1.00  0.00     0.272 A 
HETATM    9  O   UNL     1      42.631 -15.713   1.447  1.00  0.00    -0.266 OA
HETATM   10  N   UNL     1      42.070 -14.656   3.420  1.00  0.00    -0.327 N 
HETATM   11  C   UNL     1      42.788 -14.198   5.726  1.00  0.00     0.083 C 
HETATM   12  C   UNL     1      42.173 -12.826   5.967  1.00  0.00     0.240 C 
HETATM   13  H   UNL     1      41.780 -13.790   2.982  1.00  0.00     0.165 HD
ENDROOT
BRANCH   1  14
HETATM   14  C   UNL     1      40.095 -11.673   6.937  1.00  0.00     0.337 C 
BRANCH  14  15
HETATM   15  C   UNL     1      40.950 -10.415   6.779  1.00  0.00     0.248 C 
HETATM   16  N   UNL     1      41.842 -10.016   7.725  1.00  0.00    -0.323 N 
HETATM   17  H   UNL     1      42.470  -9.308   7.352  1.00  0.00     0.169 HD
HETATM   18  O   UNL     1      40.927  -9.782   5.715  1.00  0.00    -0.271 OA
BRANCH  16  19
HETATM   19  C   UNL     1      42.065 -10.343   9.083  1.00  0.00     0.068 A 
HETATM   20  C   UNL     1      43.225 -10.915   9.637  1.00  0.00     0.097 A 
HETATM   21  C   UNL     1      43.263 -11.215  11.011  1.00  0.00     0.075 A 
HETATM   22  C   UNL     1      42.147 -11.004  11.823  1.00  0.00     0.070 A 
HETATM   23  C   UNL     1      41.000 -10.446  11.276  1.00  0.00     0.039 A 
HETATM   24  C   UNL     1      40.954 -10.134   9.917  1.00  0.00     0.035 A 
BRANCH  20  25
HETATM   25  O   UNL     1      44.261 -11.216   8.795  1.00  0.00    -0.354 OA
HETATM   26  C   UNL     1      44.710 -12.571   8.754  1.00  0.00     0.210 C 
ENDBRANCH  20  25
BRANCH  22  27
HETATM   27  O   UNL     1      42.089 -11.280  13.159  1.00  0.00    -0.356 OA
HETATM   28  C   UNL     1      42.500 -10.224  14.024  1.00  0.00     0.210 C 
ENDBRANCH  22  27
ENDBRANCH  16  19
ENDBRANCH  14  15
ENDBRANCH   1  14
BRANCH   7  29
HETATM   29  C   UNL     1      43.216 -18.160   3.273  1.00  0.00    -0.002 A 
HETATM   30  C   UNL     1      44.122 -18.795   4.138  1.00  0.00     0.016 A 
HETATM   31  C   UNL     1      44.590 -20.082   3.854  1.00  0.00     0.024 A 
HETATM   32  C   UNL     1      44.158 -20.735   2.703  1.00  0.00     0.034 A 
HETATM   33 CL   UNL     1      44.730 -22.319   2.353  1.00  0.00    -0.084 Cl
HETATM   34  C   UNL     1      43.266 -20.111   1.833  1.00  0.00     0.024 A 
HETATM   35  C   UNL     1      42.794 -18.823   2.117  1.00  0.00     0.016 A 
ENDBRANCH   7  29
TORSDOF 6
ENDMDL
MODEL 3
REMARK VINA RESULT:      -8.4      5.394      8.372
REMARK  6 active torsions:
REMARK  status: ('A' for Active; 'I' for Inactive)
REMARK    1  A    between atoms: O_2  and  C_3 
REMARK    2  A    between atoms: C_5  and  O_6 
REMARK    3  A    between atoms: C_8  and  N_9 
REMARK       I    between atoms: N_9  and  C_10 
REMARK    4  A    between atoms: C_10  and  C_11 
REMARK    5  A    between atoms: C_11  and  N_12 
REMARK    6  A    between atoms: C_18  and  C_19 
ROOT
HETATM    1  N   UNL     1      42.212 -13.003   1.212  1.00  0.00    -0.063 N 
HETATM    2  H   UNL     1      43.097 -13.088   0.697  1.00  0.00     0.280 HD
HETATM    3  C   UNL     1      42.537 -13.109   2.683  1.00  0.00     0.240 C 
HETATM    4  C   UNL     1      43.267 -14.412   2.937  1.00  0.00     0.083 C 
HETATM    5  C   UNL     1      42.465 -15.624   2.446  1.00  0.00     0.131 A 
HETATM    6  N   UNL     1      43.387 -16.785   2.509  1.00  0.00    -0.251 NA
HETATM    7  C   UNL     1      42.900 -17.611   3.397  1.00  0.00     0.132 A 
HETATM    8  C   UNL     1      41.596 -17.109   3.973  1.00  0.00     0.272 A 
HETATM    9  O   UNL     1      40.918 -17.614   4.833  1.00  0.00    -0.266 OA
HETATM   10  N   UNL     1      41.374 -15.938   3.313  1.00  0.00    -0.327 N 
HETATM   11  C   UNL     1      42.017 -15.455   0.990  1.00  0.00     0.083 C 
HETATM   12  C   UNL     1      41.316 -14.125   0.753  1.00  0.00     0.240 C 
HETATM   13  H   UNL     1      40.577 -15.365   3.565  1.00  0.00     0.165 HD
ENDROOT
BRANCH   1  14
HETATM   14  C   UNL     1      41.690 -11.587   0.835  1.00  0.00     0.337 C 
BRANCH  14  15
HETATM   15  C   UNL     1      42.423 -10.900  -0.317  1.00  0.00     0.248 C 
HETATM   16  N   UNL     1      42.134 -11.156  -1.622  1.00  0.00    -0.323 N 
HETATM   17  H   UNL     1      42.549 -10.453  -2.227  1.00  0.00     0.169 HD
HETATM   18  O   UNL     1      43.235  -9.996  -0.080  1.00  0.00    -0.271 OA
BRANCH  16  19
HETATM   19  C   UNL     1      41.424 -12.172  -2.302  1.00  0.00     0.068 A 
HETATM   20  C   UNL     1      40.045 -12.197  -2.586  1.00  0.00     0.097 A 
HETATM   21  C   UNL     1      39.491 -13.313  -3.240  1.00  0.00     0.075 A 
HETATM   22  C   UNL     1      40.278 -14.419  -3.563  1.00  0.00     0.070 A 
HETATM   23  C   UNL     1      41.637 -14.399  -3.277  1.00  0.00     0.039 A 
HETATM   24  C   UNL     1      42.199 -13.294  -2.638  1.00  0.00     0.035 A 
BRANCH  20  25
HETATM   25  O   UNL     1      39.279 -11.148  -2.156  1.00  0.00    -0.354 OA
HETATM   26  C   UNL     1      38.434 -11.364  -1.025  1.00  0.00     0.210 C 
ENDBRANCH  20  25
BRANCH  22  27
HETATM   27  O   UNL     1      39.823 -15.548  -4.182  1.00  0.00    -0.356 OA
HETATM   28  C   UNL     1      38.424 -15.792  -4.064  1.00  0.00     0.210 C 
ENDBRANCH  22  27
ENDBRANCH  16  19
ENDBRANCH  14  15
ENDBRANCH   1  14
BRANCH   7  29
HETATM   29  C   UNL     1      43.569 -18.863   3.797  1.00  0.00    -0.002 A 
HETATM   30  C   UNL     1      43.823 -19.074   5.162  1.00  0.00     0.016 A 
HETATM   31  C   UNL     1      44.437 -20.253   5.595  1.00  0.00     0.024 A 
HETATM   32  C   UNL     1      44.806 -21.222   4.665  1.00  0.00     0.034 A 
HETATM   33 CL   UNL     1      45.559 -22.674   5.195  1.00  0.00    -0.084 Cl
HETATM   34  C   UNL     1      44.567 -21.018   3.307  1.00  0.00     0.024 A 
HETATM   35  C   UNL     1      43.949 -19.840   2.871  1.00  0.00     0.016 A 
ENDBRANCH   7  29
TORSDOF 6
ENDMDL
MODEL 4
REMARK VINA RESULT:      -8.3      3.859      9.219
REMARK  6 active torsions:
REMARK  status: ('A' for Active; 'I' for Inactive)
REMARK    1  A    between atoms: O_2  and  C_3 
REMARK    2  A    between atoms: C_5  and  O_6 
REMARK    3  A    between atoms: C_8  and  N_9 
REMARK       I    between atoms: N_9  and  C_10 
REMARK    4  A    between atoms: C_10  and  C_11 
REMARK    5  A    between atoms: C_11  and  N_12 
REMARK    6  A    between atoms: C_18  and  C_19 
ROOT
HETATM    1  N   UNL     1      40.693 -12.362   5.704  1.00  0.00    -0.063 N 
HETATM    2  H   UNL     1      40.683 -12.164   4.695  1.00  0.00     0.280 HD
HETATM    3  C   UNL     1      42.114 -12.713   6.076  1.00  0.00     0.240 C 
HETATM    4  C   UNL     1      42.578 -13.874   5.223  1.00  0.00     0.083 C 
HETATM    5  C   UNL     1      41.646 -15.086   5.347  1.00  0.00     0.131 A 
HETATM    6  N   UNL     1      42.055 -16.035   4.283  1.00  0.00    -0.251 NA
HETATM    7  C   UNL     1      42.503 -17.108   4.879  1.00  0.00     0.132 A 
HETATM    8  C   UNL     1      42.395 -16.999   6.383  1.00  0.00     0.272 A 
HETATM    9  O   UNL     1      42.753 -17.794   7.215  1.00  0.00    -0.266 OA
HETATM   10  N   UNL     1      41.822 -15.780   6.584  1.00  0.00    -0.327 N 
HETATM   11  C   UNL     1      40.183 -14.702   5.102  1.00  0.00     0.083 C 
HETATM   12  C   UNL     1      39.749 -13.512   5.946  1.00  0.00     0.240 C 
HETATM   13  H   UNL     1      41.694 -15.436   7.529  1.00  0.00     0.165 HD
ENDROOT
BRANCH   1  14
HETATM   14  C   UNL     1      40.236 -11.026   6.355  1.00  0.00     0.337 C 
BRANCH  14  15
HETATM   15  C   UNL     1      41.304  -9.935   6.437  1.00  0.00     0.248 C 
HETATM   16  N   UNL     1      42.084  -9.759   7.538  1.00  0.00    -0.323 N 
HETATM   17  H   UNL     1      42.874  -9.155   7.326  1.00  0.00     0.169 HD
HETATM   18  O   UNL     1      41.562  -9.247   5.441  1.00  0.00    -0.271 OA
BRANCH  16  19
HETATM   19  C   UNL     1      42.023 -10.200   8.880  1.00  0.00     0.068 A 
HETATM   20  C   UNL     1      43.062 -10.789   9.626  1.00  0.00     0.097 A 
HETATM   21  C   UNL     1      42.816 -11.209  10.946  1.00  0.00     0.075 A 
HETATM   22  C   UNL     1      41.544 -11.100  11.509  1.00  0.00     0.070 A 
HETATM   23  C   UNL     1      40.517 -10.526  10.772  1.00  0.00     0.039 A 
HETATM   24  C   UNL     1      40.750 -10.096   9.466  1.00  0.00     0.035 A 
BRANCH  20  25
HETATM   25  O   UNL     1      44.267 -10.986   9.009  1.00  0.00    -0.354 OA
HETATM   26  C   UNL     1      44.699 -12.333   8.813  1.00  0.00     0.210 C 
ENDBRANCH  20  25
BRANCH  22  27
HETATM   27  O   UNL     1      41.212 -11.496  12.773  1.00  0.00    -0.356 OA
HETATM   28  C   UNL     1      41.226 -10.470  13.762  1.00  0.00     0.210 C 
ENDBRANCH  22  27
ENDBRANCH  16  19
ENDBRANCH  14  15
ENDBRANCH   1  14
BRANCH   7  29
HETATM   29  C   UNL     1      43.068 -18.264   4.158  1.00  0.00    -0.002 A 
HETATM   30  C   UNL     1      42.628 -18.508   2.846  1.00  0.00     0.016 A 
HETATM   31  C   UNL     1      43.146 -19.579   2.113  1.00  0.00     0.024 A 
HETATM   32  C   UNL     1      44.100 -20.414   2.689  1.00  0.00     0.034 A 
HETATM   33 CL   UNL     1      44.742 -21.730   1.787  1.00  0.00    -0.084 Cl
HETATM   34  C   UNL     1      44.537 -20.186   3.993  1.00  0.00     0.024 A 
HETATM   35  C   UNL     1      44.022 -19.112   4.728  1.00  0.00     0.016 A 
ENDBRANCH   7  29
TORSDOF 6
ENDMDL
MODEL 5
REMARK VINA RESULT:      -8.1      1.991      2.694
REMARK  6 active torsions:
REMARK  status: ('A' for Active; 'I' for Inactive)
REMARK    1  A    between atoms: O_2  and  C_3 
REMARK    2  A    between atoms: C_5  and  O_6 
REMARK    3  A    between atoms: C_8  and  N_9 
REMARK       I    between atoms: N_9  and  C_10 
REMARK    4  A    between atoms: C_10  and  C_11 
REMARK    5  A    between atoms: C_11  and  N_12 
REMARK    6  A    between atoms: C_18  and  C_19 
ROOT
HETATM    1  N   UNL     1      42.284 -14.796   2.631  1.00  0.00    -0.063 N 
HETATM    2  H   UNL     1      42.158 -15.585   3.277  1.00  0.00     0.280 HD
HETATM    3  C   UNL     1      43.356 -13.906   3.213  1.00  0.00     0.240 C 
HETATM    4  C   UNL     1      42.950 -13.490   4.612  1.00  0.00     0.083 C 
HETATM    5  C   UNL     1      41.577 -12.807   4.631  1.00  0.00     0.131 A 
HETATM    6  N   UNL     1      41.189 -12.694   6.058  1.00  0.00    -0.251 NA
HETATM    7  C   UNL     1      41.131 -11.418   6.338  1.00  0.00     0.132 A 
HETATM    8  C   UNL     1      41.425 -10.565   5.126  1.00  0.00     0.272 A 
HETATM    9  O   UNL     1      41.489  -9.363   5.059  1.00  0.00    -0.266 OA
HETATM   10  N   UNL     1      41.630 -11.470   4.129  1.00  0.00    -0.327 N 
HETATM   11  C   UNL     1      40.514 -13.651   3.918  1.00  0.00     0.083 C 
HETATM   12  C   UNL     1      40.958 -14.084   2.528  1.00  0.00     0.240 C 
HETATM   13  H   UNL     1      41.909 -11.147   3.209  1.00  0.00     0.165 HD
ENDROOT
BRANCH   1  14
HETATM   14  C   UNL     1      42.743 -15.463   1.304  1.00  0.00     0.337 C 
BRANCH  14  15
HETATM   15  C   UNL     1      41.865 -16.612   0.806  1.00  0.00     0.248 C 
HETATM   16  N   UNL     1      41.789 -17.806   1.455  1.00  0.00    -0.323 N 
HETATM   17  H   UNL     1      40.998 -18.348   1.119  1.00  0.00     0.169 HD
HETATM   18  O   UNL     1      41.105 -16.437  -0.154  1.00  0.00    -0.271 OA
BRANCH  16  19
HETATM   19  C   UNL     1      42.563 -18.448   2.449  1.00  0.00     0.068 A 
HETATM   20  C   UNL     1      42.542 -18.196   3.834  1.00  0.00     0.097 A 
HETATM   21  C   UNL     1      43.414 -18.905   4.682  1.00  0.00     0.075 A 
HETATM   22  C   UNL     1      44.337 -19.814   4.164  1.00  0.00     0.070 A 
HETATM   23  C   UNL     1      44.364 -20.057   2.797  1.00  0.00     0.039 A 
HETATM   24  C   UNL     1      43.498 -19.370   1.948  1.00  0.00     0.035 A 
BRANCH  20  25
HETATM   25  O   UNL     1      41.705 -17.219   4.298  1.00  0.00    -0.354 OA
HETATM   26  C   UNL     1      41.767 -16.899   5.689  1.00  0.00     0.210 C 
ENDBRANCH  20  25
BRANCH  22  27
HETATM   27  O   UNL     1      45.230 -20.531   4.908  1.00  0.00    -0.356 OA
HETATM   28  C   UNL     1      44.896 -21.901   5.116  1.00  0.00     0.210 C 
ENDBRANCH  22  27
ENDBRANCH  16  19
ENDBRANCH  14  15
ENDBRANCH   1  14
BRANCH   7  29
HETATM   29  C   UNL     1      40.839 -10.894   7.686  1.00  0.00    -0.002 A 
HETATM   30  C   UNL     1      39.494 -10.765   8.071  1.00  0.00     0.016 A 
HETATM   31  C   UNL     1      39.164 -10.291   9.344  1.00  0.00     0.024 A 
HETATM   32  C   UNL     1      40.176  -9.938  10.234  1.00  0.00     0.034 A 
HETATM   33 CL   UNL     1      39.773  -9.358  11.801  1.00  0.00    -0.084 Cl
HETATM   34  C   UNL     1      41.513 -10.053   9.858  1.00  0.00     0.024 A 
HETATM   35  C   UNL     1      41.846 -10.531   8.585  1.00  0.00     0.016 A 
ENDBRANCH   7  29
TORSDOF 6
ENDMDL
MODEL 6
REMARK VINA RESULT:      -8.0      5.299      8.256
REMARK  6 active torsions:
REMARK  status: ('A' for Active; 'I' for Inactive)
REMARK    1  A    between atoms: O_2  and  C_3 
REMARK    2  A    between atoms: C_5  and  O_6 
REMARK    3  A    between atoms: C_8  and  N_9 
REMARK       I    between atoms: N_9  and  C_10 
REMARK    4  A    between atoms: C_10  and  C_11 
REMARK    5  A    between atoms: C_11  and  N_12 
REMARK    6  A    between atoms: C_18  and  C_19 
ROOT
HETATM    1  N   UNL     1      39.834 -13.597   2.470  1.00  0.00    -0.063 N 
HETATM    2  H   UNL     1      39.521 -13.731   3.439  1.00  0.00     0.280 HD
HETATM    3  C   UNL     1      39.515 -14.867   1.717  1.00  0.00     0.240 C 
HETATM    4  C   UNL     1      40.176 -16.037   2.415  1.00  0.00     0.083 C 
HETATM    5  C   UNL     1      41.689 -15.835   2.566  1.00  0.00     0.131 A 
HETATM    6  N   UNL     1      42.161 -16.902   3.482  1.00  0.00    -0.251 NA
HETATM    7  C   UNL     1      42.965 -17.669   2.792  1.00  0.00     0.132 A 
HETATM    8  C   UNL     1      43.141 -17.165   1.378  1.00  0.00     0.272 A 
HETATM    9  O   UNL     1      43.781 -17.662   0.485  1.00  0.00    -0.266 OA
HETATM   10  N   UNL     1      42.387 -16.032   1.335  1.00  0.00    -0.327 N 
HETATM   11  C   UNL     1      42.018 -14.483   3.208  1.00  0.00     0.083 C 
HETATM   12  C   UNL     1      41.317 -13.326   2.510  1.00  0.00     0.240 C 
HETATM   13  H   UNL     1      42.288 -15.529   0.461  1.00  0.00     0.165 HD
ENDROOT
BRANCH   1  14
HETATM   14  C   UNL     1      38.989 -12.395   1.962  1.00  0.00     0.337 C 
BRANCH  14  15
HETATM   15  C   UNL     1      39.752 -11.354   1.142  1.00  0.00     0.248 C 
HETATM   16  N   UNL     1      39.948 -11.482  -0.199  1.00  0.00    -0.323 N 
HETATM   17  H   UNL     1      40.262 -10.603  -0.602  1.00  0.00     0.169 HD
HETATM   18  O   UNL     1      40.117 -10.297   1.672  1.00  0.00    -0.271 OA
BRANCH  16  19
HETATM   19  C   UNL     1      39.837 -12.547  -1.123  1.00  0.00     0.068 A 
HETATM   20  C   UNL     1      38.650 -13.088  -1.653  1.00  0.00     0.097 A 
HETATM   21  C   UNL     1      38.721 -14.182  -2.536  1.00  0.00     0.075 A 
HETATM   22  C   UNL     1      39.945 -14.772  -2.851  1.00  0.00     0.070 A 
HETATM   23  C   UNL     1      41.115 -14.243  -2.323  1.00  0.00     0.039 A 
HETATM   24  C   UNL     1      41.060 -13.153  -1.455  1.00  0.00     0.035 A 
BRANCH  20  25
HETATM   25  O   UNL     1      37.459 -12.560  -1.237  1.00  0.00    -0.354 OA
HETATM   26  C   UNL     1      36.845 -11.574  -2.067  1.00  0.00     0.210 C 
ENDBRANCH  20  25
BRANCH  22  27
HETATM   27  O   UNL     1      40.105 -15.843  -3.684  1.00  0.00    -0.356 OA
HETATM   28  C   UNL     1      38.935 -16.257  -4.384  1.00  0.00     0.210 C 
ENDBRANCH  22  27
ENDBRANCH  16  19
ENDBRANCH  14  15
ENDBRANCH   1  14
BRANCH   7  29
HETATM   29  C   UNL     1      43.593 -18.888   3.335  1.00  0.00    -0.002 A 
HETATM   30  C   UNL     1      43.933 -18.909   4.698  1.00  0.00     0.016 A 
HETATM   31  C   UNL     1      44.512 -20.047   5.266  1.00  0.00     0.024 A 
HETATM   32  C   UNL     1      44.759 -21.165   4.475  1.00  0.00     0.034 A 
HETATM   33 CL   UNL     1      45.468 -22.568   5.172  1.00  0.00    -0.084 Cl
HETATM   34  C   UNL     1      44.433 -21.152   3.119  1.00  0.00     0.024 A 
HETATM   35  C   UNL     1      43.850 -20.015   2.548  1.00  0.00     0.016 A 
ENDBRANCH   7  29
TORSDOF 6
ENDMDL
MODEL 7
REMARK VINA RESULT:      -7.9      6.026      9.254
REMARK  6 active torsions:
REMARK  status: ('A' for Active; 'I' for Inactive)
REMARK    1  A    between atoms: O_2  and  C_3 
REMARK    2  A    between atoms: C_5  and  O_6 
REMARK    3  A    between atoms: C_8  and  N_9 
REMARK       I    between atoms: N_9  and  C_10 
REMARK    4  A    between atoms: C_10  and  C_11 
REMARK    5  A    between atoms: C_11  and  N_12 
REMARK    6  A    between atoms: C_18  and  C_19 
ROOT
HETATM    1  N   UNL     1      42.307 -14.932   2.064  1.00  0.00    -0.063 N 
HETATM    2  H   UNL     1      41.448 -15.104   2.602  1.00  0.00     0.280 HD
HETATM    3  C   UNL     1      42.221 -13.524   1.524  1.00  0.00     0.240 C 
HETATM    4  C   UNL     1      40.953 -13.381   0.709  1.00  0.00     0.083 C 
HETATM    5  C   UNL     1      40.872 -14.422  -0.413  1.00  0.00     0.131 A 
HETATM    6  N   UNL     1      39.492 -14.347  -0.953  1.00  0.00    -0.251 NA
HETATM    7  C   UNL     1      39.588 -13.938  -2.190  1.00  0.00     0.132 A 
HETATM    8  C   UNL     1      41.028 -13.748  -2.608  1.00  0.00     0.272 A 
HETATM    9  O   UNL     1      41.451 -13.347  -3.663  1.00  0.00    -0.266 OA
HETATM   10  N   UNL     1      41.740 -14.111  -1.505  1.00  0.00    -0.327 N 
HETATM   11  C   UNL     1      41.095 -15.844   0.115  1.00  0.00     0.083 C 
HETATM   12  C   UNL     1      42.357 -15.955   0.958  1.00  0.00     0.240 C 
HETATM   13  H   UNL     1      42.749 -14.014  -1.506  1.00  0.00     0.165 HD
ENDROOT
BRANCH   1  14
HETATM   14  C   UNL     1      43.445 -15.082   3.112  1.00  0.00     0.337 C 
BRANCH  14  15
HETATM   15  C   UNL     1      42.990 -15.387   4.540  1.00  0.00     0.248 C 
HETATM   16  N   UNL     1      43.258 -16.573   5.152  1.00  0.00    -0.323 N 
HETATM   17  H   UNL     1      43.086 -16.508   6.152  1.00  0.00     0.169 HD
HETATM   18  O   UNL     1      42.456 -14.503   5.220  1.00  0.00    -0.271 OA
BRANCH  16  19
HETATM   19  C   UNL     1      43.685 -17.846   4.710  1.00  0.00     0.068 A 
HETATM   20  C   UNL     1      44.597 -18.704   5.354  1.00  0.00     0.097 A 
HETATM   21  C   UNL     1      44.944 -19.927   4.750  1.00  0.00     0.075 A 
HETATM   22  C   UNL     1      44.439 -20.278   3.497  1.00  0.00     0.070 A 
HETATM   23  C   UNL     1      43.545 -19.429   2.858  1.00  0.00     0.039 A 
HETATM   24  C   UNL     1      43.185 -18.219   3.451  1.00  0.00     0.035 A 
BRANCH  20  25
HETATM   25  O   UNL     1      45.162 -18.282   6.526  1.00  0.00    -0.354 OA
HETATM   26  C   UNL     1      44.464 -18.569   7.739  1.00  0.00     0.210 C 
ENDBRANCH  20  25
BRANCH  22  27
HETATM   27  O   UNL     1      44.733 -21.433   2.831  1.00  0.00    -0.356 OA
HETATM   28  C   UNL     1      43.908 -21.721   1.705  1.00  0.00     0.210 C 
ENDBRANCH  22  27
ENDBRANCH  16  19
ENDBRANCH  14  15
ENDBRANCH   1  14
BRANCH   7  29
HETATM   29  C   UNL     1      38.420 -13.672  -3.052  1.00  0.00    -0.002 A 
HETATM   30  C   UNL     1      37.708 -14.770  -3.563  1.00  0.00     0.016 A 
HETATM   31  C   UNL     1      36.583 -14.572  -4.368  1.00  0.00     0.024 A 
HETATM   32  C   UNL     1      36.169 -13.278  -4.671  1.00  0.00     0.034 A 
HETATM   33 CL   UNL     1      34.784 -13.032  -5.660  1.00  0.00    -0.084 Cl
HETATM   34  C   UNL     1      36.874 -12.181  -4.178  1.00  0.00     0.024 A 
HETATM   35  C   UNL     1      38.000 -12.377  -3.368  1.00  0.00     0.016 A 
ENDBRANCH   7  29
TORSDOF 6
ENDMDL
MODEL 8
REMARK VINA RESULT:      -7.6      5.962      8.978
REMARK  6 active torsions:
REMARK  status: ('A' for Active; 'I' for Inactive)
REMARK    1  A    between atoms: O_2  and  C_3 
REMARK    2  A    between atoms: C_5  and  O_6 
REMARK    3  A    between atoms: C_8  and  N_9 
REMARK       I    between atoms: N_9  and  C_10 
REMARK    4  A    between atoms: C_10  and  C_11 
REMARK    5  A    between atoms: C_11  and  N_12 
REMARK    6  A    between atoms: C_18  and  C_19 
ROOT
HETATM    1  N   UNL     1      40.786 -15.185   2.123  1.00  0.00    -0.063 N 
HETATM    2  H   UNL     1      41.034 -14.287   2.559  1.00  0.00     0.280 HD
HETATM    3  C   UNL     1      41.863 -15.506   1.115  1.00  0.00     0.240 C 
HETATM    4  C   UNL     1      41.978 -14.361   0.129  1.00  0.00     0.083 C 
HETATM    5  C   UNL     1      40.639 -14.056  -0.553  1.00  0.00     0.131 A 
HETATM    6  N   UNL     1      40.824 -12.774  -1.275  1.00  0.00    -0.251 NA
HETATM    7  C   UNL     1      40.700 -13.032  -2.550  1.00  0.00     0.132 A 
HETATM    8  C   UNL     1      40.377 -14.488  -2.797  1.00  0.00     0.272 A 
HETATM    9  O   UNL     1      40.240 -15.052  -3.854  1.00  0.00    -0.266 OA
HETATM   10  N   UNL     1      40.304 -15.025  -1.548  1.00  0.00    -0.327 N 
HETATM   11  C   UNL     1      39.513 -13.864   0.470  1.00  0.00     0.083 C 
HETATM   12  C   UNL     1      39.439 -15.010   1.469  1.00  0.00     0.240 C 
HETATM   13  H   UNL     1      40.155 -16.022  -1.439  1.00  0.00     0.165 HD
ENDROOT
BRANCH   1  14
HETATM   14  C   UNL     1      40.783 -16.192   3.308  1.00  0.00     0.337 C 
BRANCH  14  15
HETATM   15  C   UNL     1      41.720 -15.848   4.466  1.00  0.00     0.248 C 
HETATM   16  N   UNL     1      42.865 -16.543   4.708  1.00  0.00    -0.323 N 
HETATM   17  H   UNL     1      43.463 -16.038   5.357  1.00  0.00     0.169 HD
HETATM   18  O   UNL     1      41.510 -14.841   5.153  1.00  0.00    -0.271 OA
BRANCH  16  19
HETATM   19  C   UNL     1      43.380 -17.791   4.285  1.00  0.00     0.068 A 
HETATM   20  C   UNL     1      43.811 -18.851   5.104  1.00  0.00     0.097 A 
HETATM   21  C   UNL     1      44.337 -20.015   4.513  1.00  0.00     0.075 A 
HETATM   22  C   UNL     1      44.488 -20.112   3.129  1.00  0.00     0.070 A 
HETATM   23  C   UNL     1      44.069 -19.064   2.321  1.00  0.00     0.039 A 
HETATM   24  C   UNL     1      43.537 -17.909   2.893  1.00  0.00     0.035 A 
BRANCH  20  25
HETATM   25  O   UNL     1      43.756 -18.681   6.460  1.00  0.00    -0.354 OA
HETATM   26  C   UNL     1      43.769 -19.853   7.276  1.00  0.00     0.210 C 
ENDBRANCH  20  25
BRANCH  22  27
HETATM   27  O   UNL     1      45.002 -21.194   2.473  1.00  0.00    -0.356 OA
HETATM   28  C   UNL     1      44.087 -21.900   1.640  1.00  0.00     0.210 C 
ENDBRANCH  22  27
ENDBRANCH  16  19
ENDBRANCH  14  15
ENDBRANCH   1  14
BRANCH   7  29
HETATM   29  C   UNL     1      40.883 -12.020  -3.608  1.00  0.00    -0.002 A 
HETATM   30  C   UNL     1      42.193 -11.705  -4.005  1.00  0.00     0.016 A 
HETATM   31  C   UNL     1      42.421 -10.767  -5.016  1.00  0.00     0.024 A 
HETATM   32  C   UNL     1      41.341 -10.137  -5.630  1.00  0.00     0.034 A 
HETATM   33 CL   UNL     1      41.618  -8.985  -6.876  1.00  0.00    -0.084 Cl
HETATM   34  C   UNL     1      40.038 -10.436  -5.237  1.00  0.00     0.024 A 
HETATM   35  C   UNL     1      39.807 -11.377  -4.227  1.00  0.00     0.016 A 
ENDBRANCH   7  29
TORSDOF 6
ENDMDL
MODEL 9
REMARK VINA RESULT:      -7.6      6.066      9.068
REMARK  6 active torsions:
REMARK  status: ('A' for Active; 'I' for Inactive)
REMARK    1  A    between atoms: O_2  and  C_3 
REMARK    2  A    between atoms: C_5  and  O_6 
REMARK    3  A    between atoms: C_8  and  N_9 
REMARK       I    between atoms: N_9  and  C_10 
REMARK    4  A    between atoms: C_10  and  C_11 
REMARK    5  A    between atoms: C_11  and  N_12 
REMARK    6  A    between atoms: C_18  and  C_19 
ROOT
HETATM    1  N   UNL     1      39.355 -14.659  -0.470  1.00  0.00    -0.063 N 
HETATM    2  H   UNL     1      38.862 -15.525  -0.722  1.00  0.00     0.280 HD
HETATM    3  C   UNL     1      40.806 -14.843  -0.848  1.00  0.00     0.240 C 
HETATM    4  C   UNL     1      41.346 -16.077  -0.154  1.00  0.00     0.083 C 
HETATM    5  C   UNL     1      41.164 -16.006   1.366  1.00  0.00     0.131 A 
HETATM    6  N   UNL     1      41.483 -17.358   1.887  1.00  0.00    -0.251 NA
HETATM    7  C   UNL     1      42.546 -17.237   2.638  1.00  0.00     0.132 A 
HETATM    8  C   UNL     1      43.007 -15.800   2.728  1.00  0.00     0.272 A 
HETATM    9  O   UNL     1      43.970 -15.362   3.305  1.00  0.00    -0.266 OA
HETATM   10  N   UNL     1      42.096 -15.115   1.983  1.00  0.00    -0.327 N 
HETATM   11  C   UNL     1      39.715 -15.683   1.749  1.00  0.00     0.083 C 
HETATM   12  C   UNL     1      39.183 -14.460   1.015  1.00  0.00     0.240 C 
HETATM   13  H   UNL     1      42.218 -14.120   1.833  1.00  0.00     0.165 HD
ENDROOT
BRANCH   1  14
HETATM   14  C   UNL     1      38.666 -13.566  -1.334  1.00  0.00     0.337 C 
BRANCH  14  15
HETATM   15  C   UNL     1      38.475 -13.917  -2.810  1.00  0.00     0.248 C 
HETATM   16  N   UNL     1      39.191 -13.320  -3.801  1.00  0.00    -0.323 N 
HETATM   17  H   UNL     1      39.098 -13.834  -4.673  1.00  0.00     0.169 HD
HETATM   18  O   UNL     1      37.729 -14.851  -3.131  1.00  0.00    -0.271 OA
BRANCH  16  19
HETATM   19  C   UNL     1      39.993 -12.158  -3.886  1.00  0.00     0.068 A 
HETATM   20  C   UNL     1      39.549 -10.832  -4.051  1.00  0.00     0.097 A 
HETATM   21  C   UNL     1      40.492  -9.793  -4.158  1.00  0.00     0.075 A 
HETATM   22  C   UNL     1      41.861 -10.063  -4.158  1.00  0.00     0.070 A 
HETATM   23  C   UNL     1      42.300 -11.371  -4.004  1.00  0.00     0.039 A 
HETATM   24  C   UNL     1      41.375 -12.409  -3.886  1.00  0.00     0.035 A 
BRANCH  20  25
HETATM   25  O   UNL     1      38.203 -10.612  -4.160  1.00  0.00    -0.354 OA
HETATM   26  C   UNL     1      37.498 -10.219  -2.982  1.00  0.00     0.210 C 
ENDBRANCH  20  25
BRANCH  22  27
HETATM   27  O   UNL     1      42.843  -9.122  -4.274  1.00  0.00    -0.356 OA
HETATM   28  C   UNL     1      42.403  -7.815  -4.633  1.00  0.00     0.210 C 
ENDBRANCH  22  27
ENDBRANCH  16  19
ENDBRANCH  14  15
ENDBRANCH   1  14
BRANCH   7  29
HETATM   29  C   UNL     1      43.218 -18.378   3.288  1.00  0.00    -0.002 A 
HETATM   30  C   UNL     1      43.702 -19.415   2.473  1.00  0.00     0.016 A 
HETATM   31  C   UNL     1      44.363 -20.510   3.038  1.00  0.00     0.024 A 
HETATM   32  C   UNL     1      44.537 -20.575   4.417  1.00  0.00     0.034 A 
HETATM   33 CL   UNL     1      45.353 -21.919   5.114  1.00  0.00    -0.084 Cl
HETATM   34  C   UNL     1      44.052 -19.556   5.236  1.00  0.00     0.024 A 
HETATM   35  C   UNL     1      43.393 -18.457   4.673  1.00  0.00     0.016 A 
ENDBRANCH   7  29
TORSDOF 6
ENDMDL
MODEL 10
REMARK VINA RESULT:      -7.6      5.016      7.866
REMARK  6 active torsions:
REMARK  status: ('A' for Active; 'I' for Inactive)
REMARK    1  A    between atoms: O_2  and  C_3 
REMARK    2  A    between atoms: C_5  and  O_6 
REMARK    3  A    between atoms: C_8  and  N_9 
REMARK       I    between atoms: N_9  and  C_10 
REMARK    4  A    between atoms: C_10  and  C_11 
REMARK    5  A    between atoms: C_11  and  N_12 
REMARK    6  A    between atoms: C_18  and  C_19 
ROOT
HETATM    1  N   UNL     1      39.807 -14.797  -0.902  1.00  0.00    -0.063 N 
HETATM    2  H   UNL     1      39.219 -15.629  -0.762  1.00  0.00     0.280 HD
HETATM    3  C   UNL     1      41.241 -15.268  -0.958  1.00  0.00     0.240 C 
HETATM    4  C   UNL     1      41.562 -16.035   0.308  1.00  0.00     0.083 C 
HETATM    5  C   UNL     1      41.289 -15.203   1.567  1.00  0.00     0.131 A 
HETATM    6  N   UNL     1      41.386 -16.140   2.713  1.00  0.00    -0.251 NA
HETATM    7  C   UNL     1      42.403 -15.753   3.437  1.00  0.00     0.132 A 
HETATM    8  C   UNL     1      43.047 -14.506   2.877  1.00  0.00     0.272 A 
HETATM    9  O   UNL     1      44.021 -13.923   3.284  1.00  0.00    -0.266 OA
HETATM   10  N   UNL     1      42.290 -14.207   1.785  1.00  0.00    -0.327 N 
HETATM   11  C   UNL     1      39.875 -14.611   1.559  1.00  0.00     0.083 C 
HETATM   12  C   UNL     1      39.565 -13.874   0.264  1.00  0.00     0.240 C 
HETATM   13  H   UNL     1      42.556 -13.432   1.188  1.00  0.00     0.165 HD
ENDROOT
BRANCH   1  14
HETATM   14  C   UNL     1      39.332 -14.224  -2.267  1.00  0.00     0.337 C 
BRANCH  14  15
HETATM   15  C   UNL     1      40.285 -14.446  -3.442  1.00  0.00     0.248 C 
HETATM   16  N   UNL     1      41.345 -13.628  -3.687  1.00  0.00    -0.323 N 
HETATM   17  H   UNL     1      41.984 -14.056  -4.352  1.00  0.00     0.169 HD
HETATM   18  O   UNL     1      40.176 -15.460  -4.143  1.00  0.00    -0.271 OA
BRANCH  16  19
HETATM   19  C   UNL     1      41.727 -12.339  -3.249  1.00  0.00     0.068 A 
HETATM   20  C   UNL     1      41.277 -11.104  -3.755  1.00  0.00     0.097 A 
HETATM   21  C   UNL     1      41.795  -9.907  -3.228  1.00  0.00     0.075 A 
HETATM   22  C   UNL     1      42.789  -9.926  -2.248  1.00  0.00     0.070 A 
HETATM   23  C   UNL     1      43.239 -11.142  -1.753  1.00  0.00     0.039 A 
HETATM   24  C   UNL     1      42.726 -12.336  -2.261  1.00  0.00     0.035 A 
BRANCH  20  25
HETATM   25  O   UNL     1      40.386 -11.120  -4.793  1.00  0.00    -0.354 OA
HETATM   26  C   UNL     1      39.010 -10.883  -4.490  1.00  0.00     0.210 C 
ENDBRANCH  20  25
BRANCH  22  27
HETATM   27  O   UNL     1      43.359  -8.816  -1.692  1.00  0.00    -0.356 OA
HETATM   28  C   UNL     1      42.789  -7.570  -2.084  1.00  0.00     0.210 C 
ENDBRANCH  22  27
ENDBRANCH  16  19
ENDBRANCH  14  15
ENDBRANCH   1  14
BRANCH   7  29
HETATM   29  C   UNL     1      42.868 -16.473   4.638  1.00  0.00    -0.002 A 
HETATM   30  C   UNL     1      42.296 -16.139   5.876  1.00  0.00     0.016 A 
HETATM   31  C   UNL     1      42.688 -16.805   7.041  1.00  0.00     0.024 A 
HETATM   32  C   UNL     1      43.657 -17.803   6.973  1.00  0.00     0.034 A 
HETATM   33 CL   UNL     1      44.138 -18.626   8.404  1.00  0.00    -0.084 Cl
HETATM   34  C   UNL     1      44.238 -18.136   5.751  1.00  0.00     0.024 A 
HETATM   35  C   UNL     1      43.845 -17.472   4.582  1.00  0.00     0.016 A 
ENDBRANCH   7  29
TORSDOF 6
ENDMDL
