MODEL 1
REMARK VINA RESULT:      -8.4      0.000      0.000
REMARK  5 active torsions:
REMARK  status: ('A' for Active; 'I' for Inactive)
REMARK    1  A    between atoms: C_5  and  C_6 
REMARK    2  A    between atoms: C_9  and  O_10 
REMARK    3  A    between atoms: N_14  and  C_15 
REMARK    4  A    between atoms: C_15  and  C_16 
REMARK       I    between atoms: C_16  and  N_17 
REMARK    5  A    between atoms: N_17  and  C_18 
ROOT
HETATM    1  C   UNL     1      43.457 -19.279   2.920  1.00  0.00     0.156 C 
HETATM    2  N   UNL     1      43.450 -18.103   3.758  1.00  0.00    -0.346 N 
HETATM    3  C   UNL     1      43.294 -16.828   3.332  1.00  0.00     0.113 A 
HETATM    4  C   UNL     1      43.318 -15.979   4.406  1.00  0.00     0.014 A 
HETATM    5  C   UNL     1      43.126 -14.576   3.955  1.00  0.00     0.158 C 
HETATM    6  N   UNL     1      42.840 -14.813   2.520  1.00  0.00    -0.325 N 
HETATM    7  C   UNL     1      43.040 -16.131   2.114  1.00  0.00     0.272 C 
HETATM    8  O   UNL     1      42.986 -16.573   0.980  1.00  0.00    -0.266 OA
HETATM    9  C   UNL     1      43.455 -16.751   5.574  1.00  0.00     0.002 A 
HETATM   10  C   UNL     1      43.523 -18.094   5.147  1.00  0.00     0.045 A 
HETATM   11  C   UNL     1      43.488 -16.468   6.952  1.00  0.00     0.014 A 
HETATM   12  C   UNL     1      43.581 -17.520   7.869  1.00  0.00     0.001 A 
HETATM   13  C   UNL     1      43.645 -18.840   7.432  1.00  0.00     0.002 A 
HETATM   14  C   UNL     1      43.621 -19.151   6.068  1.00  0.00     0.030 A 
ENDROOT
BRANCH   6  15
HETATM   15  C   UNL     1      42.416 -13.748   1.631  1.00  0.00     0.229 C 
BRANCH  15  16
HETATM   16  C   UNL     1      41.163 -14.068   0.827  1.00  0.00     0.235 C 
HETATM   17  N   UNL     1      41.356 -14.191  -0.535  1.00  0.00    -0.355 N 
HETATM   18  H   UNL     1      42.317 -14.195  -0.865  1.00  0.00     0.162 HD
HETATM   19  O   UNL     1      40.090 -14.314   1.377  1.00  0.00    -0.272 OA
BRANCH  17  20
HETATM   20  C   UNL     1      40.340 -14.828  -1.346  1.00  0.00     0.084 C 
HETATM   21  C   UNL     1      39.432 -13.845  -2.071  1.00  0.00     0.025 C 
HETATM   22  C   UNL     1      38.779 -14.720  -3.133  1.00  0.00     0.002 C 
HETATM   23  C   UNL     1      39.877 -15.678  -3.585  1.00  0.00     0.002 C 
HETATM   24  C   UNL     1      40.939 -15.660  -2.484  1.00  0.00     0.025 C 
ENDBRANCH  17  20
ENDBRANCH  15  16
ENDBRANCH   6  15
BRANCH   5  25
HETATM   25  C   UNL     1      41.990 -13.983   4.749  1.00  0.00    -0.030 A 
HETATM   26  C   UNL     1      42.197 -12.780   5.441  1.00  0.00     0.012 A 
HETATM   27  C   UNL     1      41.165 -12.196   6.180  1.00  0.00     0.037 A 
HETATM   28  C   UNL     1      39.905 -12.793   6.240  1.00  0.00     0.068 A 
HETATM   29  C   UNL     1      39.688 -13.992   5.561  1.00  0.00     0.037 A 
HETATM   30  C   UNL     1      40.722 -14.582   4.825  1.00  0.00     0.012 A 
BRANCH  28  31
HETATM   31  O   UNL     1      38.986 -12.114   6.989  1.00  0.00    -0.356 OA
HETATM   32  C   UNL     1      39.487 -11.352   8.080  1.00  0.00     0.210 C 
ENDBRANCH  28  31
ENDBRANCH   5  25
TORSDOF 5
ENDMDL
MODEL 2
REMARK VINA RESULT:      -8.4      2.056      7.948
REMARK  5 active torsions:
REMARK  status: ('A' for Active; 'I' for Inactive)
REMARK    1  A    between atoms: C_5  and  C_6 
REMARK    2  A    between atoms: C_9  and  O_10 
REMARK    3  A    between atoms: N_14  and  C_15 
REMARK    4  A    between atoms: C_15  and  C_16 
REMARK       I    between atoms: C_16  and  N_17 
REMARK    5  A    between atoms: N_17  and  C_18 
ROOT
HETATM    1  C   UNL     1      38.018 -12.633   0.780  1.00  0.00     0.156 C 
HETATM    2  N   UNL     1      39.225 -13.372   0.497  1.00  0.00    -0.346 N 
HETATM    3  C   UNL     1      40.236 -13.600   1.367  1.00  0.00     0.113 A 
HETATM    4  C   UNL     1      41.204 -14.354   0.758  1.00  0.00     0.014 A 
HETATM    5  C   UNL     1      42.312 -14.631   1.708  1.00  0.00     0.158 C 
HETATM    6  N   UNL     1      41.727 -14.060   2.946  1.00  0.00    -0.325 N 
HETATM    7  C   UNL     1      40.545 -13.352   2.736  1.00  0.00     0.272 C 
HETATM    8  O   UNL     1      39.921 -12.695   3.551  1.00  0.00    -0.266 OA
HETATM    9  C   UNL     1      40.772 -14.652  -0.547  1.00  0.00     0.002 A 
HETATM   10  C   UNL     1      39.512 -14.035  -0.692  1.00  0.00     0.045 A 
HETATM   11  C   UNL     1      41.289 -15.412  -1.613  1.00  0.00     0.014 A 
HETATM   12  C   UNL     1      40.542 -15.547  -2.789  1.00  0.00     0.001 A 
HETATM   13  C   UNL     1      39.299 -14.933  -2.914  1.00  0.00     0.002 A 
HETATM   14  C   UNL     1      38.764 -14.167  -1.874  1.00  0.00     0.030 A 
ENDROOT
BRANCH   6  15
HETATM   15  C   UNL     1      42.360 -14.213   4.241  1.00  0.00     0.229 C 
BRANCH  15  16
HETATM   16  C   UNL     1      42.016 -15.515   4.953  1.00  0.00     0.235 C 
HETATM   17  N   UNL     1      43.091 -16.347   5.203  1.00  0.00    -0.355 N 
HETATM   18  H   UNL     1      44.016 -15.970   5.021  1.00  0.00     0.162 HD
HETATM   19  O   UNL     1      40.882 -15.739   5.374  1.00  0.00    -0.272 OA
BRANCH  17  20
HETATM   20  C   UNL     1      42.954 -17.421   6.164  1.00  0.00     0.084 C 
HETATM   21  C   UNL     1      43.585 -18.729   5.713  1.00  0.00     0.025 C 
HETATM   22  C   UNL     1      43.680 -19.517   7.013  1.00  0.00     0.002 C 
HETATM   23  C   UNL     1      44.036 -18.481   8.075  1.00  0.00     0.002 C 
HETATM   24  C   UNL     1      43.672 -17.119   7.482  1.00  0.00     0.025 C 
ENDBRANCH  17  20
ENDBRANCH  15  16
ENDBRANCH   6  15
BRANCH   5  25
HETATM   25  C   UNL     1      42.542 -16.120   1.734  1.00  0.00    -0.030 A 
HETATM   26  C   UNL     1      43.858 -16.608   1.703  1.00  0.00     0.012 A 
HETATM   27  C   UNL     1      44.109 -17.982   1.734  1.00  0.00     0.037 A 
HETATM   28  C   UNL     1      43.059 -18.898   1.803  1.00  0.00     0.068 A 
HETATM   29  C   UNL     1      41.747 -18.427   1.828  1.00  0.00     0.037 A 
HETATM   30  C   UNL     1      41.492 -17.050   1.791  1.00  0.00     0.012 A 
BRANCH  28  31
HETATM   31  O   UNL     1      43.445 -20.208   1.835  1.00  0.00    -0.356 OA
HETATM   32  C   UNL     1      44.593 -20.518   2.615  1.00  0.00     0.210 C 
ENDBRANCH  28  31
ENDBRANCH   5  25
TORSDOF 5
ENDMDL
MODEL 3
REMARK VINA RESULT:      -8.3      2.541      6.270
REMARK  5 active torsions:
REMARK  status: ('A' for Active; 'I' for Inactive)
REMARK    1  A    between atoms: C_5  and  C_6 
REMARK    2  A    between atoms: C_9  and  O_10 
REMARK    3  A    between atoms: N_14  and  C_15 
REMARK    4  A    between atoms: C_15  and  C_16 
REMARK       I    between atoms: C_16  and  N_17 
REMARK    5  A    between atoms: N_17  and  C_18 
ROOT
HETATM    1  C   UNL     1      41.568 -11.454   0.983  1.00  0.00     0.156 C 
HETATM    2  N   UNL     1      41.175 -12.379   2.018  1.00  0.00    -0.346 N 
HETATM    3  C   UNL     1      41.063 -13.722   1.880  1.00  0.00     0.113 A 
HETATM    4  C   UNL     1      40.690 -14.276   3.075  1.00  0.00     0.014 A 
HETATM    5  C   UNL     1      40.584 -15.753   2.945  1.00  0.00     0.158 C 
HETATM    6  N   UNL     1      41.105 -15.918   1.566  1.00  0.00    -0.325 N 
HETATM    7  C   UNL     1      41.292 -14.716   0.885  1.00  0.00     0.272 C 
HETATM    8  O   UNL     1      41.601 -14.568  -0.284  1.00  0.00    -0.266 OA
HETATM    9  C   UNL     1      40.598 -13.246   4.029  1.00  0.00     0.002 A 
HETATM   10  C   UNL     1      40.921 -12.054   3.347  1.00  0.00     0.045 A 
HETATM   11  C   UNL     1      40.317 -13.192   5.406  1.00  0.00     0.014 A 
HETATM   12  C   UNL     1      40.370 -11.963   6.073  1.00  0.00     0.001 A 
HETATM   13  C   UNL     1      40.693 -10.796   5.386  1.00  0.00     0.002 A 
HETATM   14  C   UNL     1      40.971 -10.819   4.015  1.00  0.00     0.030 A 
ENDROOT
BRANCH   6  15
HETATM   15  C   UNL     1      41.362 -17.224   0.989  1.00  0.00     0.229 C 
BRANCH  15  16
HETATM   16  C   UNL     1      42.708 -17.822   1.376  1.00  0.00     0.235 C 
HETATM   17  N   UNL     1      42.640 -18.950   2.172  1.00  0.00    -0.355 N 
HETATM   18  H   UNL     1      41.721 -19.357   2.315  1.00  0.00     0.162 HD
HETATM   19  O   UNL     1      43.762 -17.394   0.909  1.00  0.00    -0.272 OA
BRANCH  17  20
HETATM   20  C   UNL     1      43.805 -19.797   2.310  1.00  0.00     0.084 C 
HETATM   21  C   UNL     1      44.224 -20.031   3.754  1.00  0.00     0.025 C 
HETATM   22  C   UNL     1      45.146 -21.237   3.641  1.00  0.00     0.002 C 
HETATM   23  C   UNL     1      44.514 -22.117   2.566  1.00  0.00     0.002 C 
HETATM   24  C   UNL     1      43.563 -21.213   1.780  1.00  0.00     0.025 C 
ENDBRANCH  17  20
ENDBRANCH  15  16
ENDBRANCH   6  15
BRANCH   5  25
HETATM   25  C   UNL     1      41.425 -16.378   4.028  1.00  0.00    -0.030 A 
HETATM   26  C   UNL     1      42.719 -15.886   4.257  1.00  0.00     0.012 A 
HETATM   27  C   UNL     1      43.523 -16.435   5.259  1.00  0.00     0.037 A 
HETATM   28  C   UNL     1      43.055 -17.479   6.057  1.00  0.00     0.068 A 
HETATM   29  C   UNL     1      41.773 -17.982   5.836  1.00  0.00     0.037 A 
HETATM   30  C   UNL     1      40.967 -17.437   4.829  1.00  0.00     0.012 A 
BRANCH  28  31
HETATM   31  O   UNL     1      43.939 -17.917   7.003  1.00  0.00    -0.356 OA
HETATM   32  C   UNL     1      45.296 -18.047   6.598  1.00  0.00     0.210 C 
ENDBRANCH  28  31
ENDBRANCH   5  25
TORSDOF 5
ENDMDL
MODEL 4
REMARK VINA RESULT:      -8.2      2.392      5.507
REMARK  5 active torsions:
REMARK  status: ('A' for Active; 'I' for Inactive)
REMARK    1  A    between atoms: C_5  and  C_6 
REMARK    2  A    between atoms: C_9  and  O_10 
REMARK    3  A    between atoms: N_14  and  C_15 
REMARK    4  A    between atoms: C_15  and  C_16 
REMARK       I    between atoms: C_16  and  N_17 
REMARK    5  A    between atoms: N_17  and  C_18 
ROOT
HETATM    1  C   UNL     1      45.048 -18.595   6.545  1.00  0.00     0.156 C 
HETATM    2  N   UNL     1      44.063 -18.510   5.493  1.00  0.00    -0.346 N 
HETATM    3  C   UNL     1      43.009 -17.661   5.462  1.00  0.00     0.113 A 
HETATM    4  C   UNL     1      42.303 -17.848   4.303  1.00  0.00     0.014 A 
HETATM    5  C   UNL     1      41.155 -16.907   4.245  1.00  0.00     0.158 C 
HETATM    6  N   UNL     1      41.440 -16.091   5.450  1.00  0.00    -0.325 N 
HETATM    7  C   UNL     1      42.474 -16.592   6.239  1.00  0.00     0.272 C 
HETATM    8  O   UNL     1      42.837 -16.185   7.329  1.00  0.00    -0.266 OA
HETATM    9  C   UNL     1      42.959 -18.834   3.544  1.00  0.00     0.002 A 
HETATM   10  C   UNL     1      44.078 -19.233   4.304  1.00  0.00     0.045 A 
HETATM   11  C   UNL     1      42.755 -19.406   2.275  1.00  0.00     0.014 A 
HETATM   12  C   UNL     1      43.665 -20.352   1.790  1.00  0.00     0.001 A 
HETATM   13  C   UNL     1      44.765 -20.733   2.553  1.00  0.00     0.002 A 
HETATM   14  C   UNL     1      44.991 -20.185   3.820  1.00  0.00     0.030 A 
ENDROOT
BRANCH   6  15
HETATM   15  C   UNL     1      40.681 -14.898   5.772  1.00  0.00     0.229 C 
BRANCH  15  16
HETATM   16  C   UNL     1      41.298 -13.606   5.252  1.00  0.00     0.235 C 
HETATM   17  N   UNL     1      40.624 -13.018   4.199  1.00  0.00    -0.355 N 
HETATM   18  H   UNL     1      39.720 -13.411   3.955  1.00  0.00     0.162 HD
HETATM   19  O   UNL     1      42.255 -13.076   5.815  1.00  0.00    -0.272 OA
BRANCH  17  20
HETATM   20  C   UNL     1      40.899 -11.639   3.857  1.00  0.00     0.084 C 
HETATM   21  C   UNL     1      40.828 -11.353   2.364  1.00  0.00     0.025 C 
HETATM   22  C   UNL     1      40.726  -9.835   2.322  1.00  0.00     0.002 C 
HETATM   23  C   UNL     1      39.847  -9.465   3.513  1.00  0.00     0.002 C 
HETATM   24  C   UNL     1      39.867 -10.674   4.449  1.00  0.00     0.025 C 
ENDBRANCH  17  20
ENDBRANCH  15  16
ENDBRANCH   6  15
BRANCH   5  25
HETATM   25  C   UNL     1      41.226 -16.165   2.934  1.00  0.00    -0.030 A 
HETATM   26  C   UNL     1      40.059 -16.018   2.169  1.00  0.00     0.012 A 
HETATM   27  C   UNL     1      40.086 -15.331   0.953  1.00  0.00     0.037 A 
HETATM   28  C   UNL     1      41.272 -14.769   0.478  1.00  0.00     0.068 A 
HETATM   29  C   UNL     1      42.440 -14.913   1.225  1.00  0.00     0.037 A 
HETATM   30  C   UNL     1      42.417 -15.607   2.441  1.00  0.00     0.012 A 
BRANCH  28  31
HETATM   31  O   UNL     1      41.156 -14.118  -0.718  1.00  0.00    -0.356 OA
HETATM   32  C   UNL     1      40.876 -14.919  -1.859  1.00  0.00     0.210 C 
ENDBRANCH  28  31
ENDBRANCH   5  25
TORSDOF 5
ENDMDL
MODEL 5
REMARK VINA RESULT:      -7.8      1.898      2.208
REMARK  5 active torsions:
REMARK  status: ('A' for Active; 'I' for Inactive)
REMARK    1  A    between atoms: C_5  and  C_6 
REMARK    2  A    between atoms: C_9  and  O_10 
REMARK    3  A    between atoms: N_14  and  C_15 
REMARK    4  A    between atoms: C_15  and  C_16 
REMARK       I    between atoms: C_16  and  N_17 
REMARK    5  A    between atoms: N_17  and  C_18 
ROOT
HETATM    1  C   UNL     1      43.069 -19.359   2.024  1.00  0.00     0.156 C 
HETATM    2  N   UNL     1      43.180 -18.149   2.802  1.00  0.00    -0.346 N 
HETATM    3  C   UNL     1      42.764 -16.919   2.419  1.00  0.00     0.113 A 
HETATM    4  C   UNL     1      43.012 -16.018   3.420  1.00  0.00     0.014 A 
HETATM    5  C   UNL     1      42.540 -14.666   3.022  1.00  0.00     0.158 C 
HETATM    6  N   UNL     1      41.868 -15.004   1.744  1.00  0.00    -0.325 N 
HETATM    7  C   UNL     1      42.084 -16.315   1.322  1.00  0.00     0.272 C 
HETATM    8  O   UNL     1      41.744 -16.817   0.265  1.00  0.00    -0.266 OA
HETATM    9  C   UNL     1      43.575 -16.712   4.506  1.00  0.00     0.002 A 
HETATM   10  C   UNL     1      43.662 -18.061   4.105  1.00  0.00     0.045 A 
HETATM   11  C   UNL     1      43.985 -16.357   5.805  1.00  0.00     0.014 A 
HETATM   12  C   UNL     1      44.462 -17.346   6.672  1.00  0.00     0.001 A 
HETATM   13  C   UNL     1      44.540 -18.673   6.260  1.00  0.00     0.002 A 
HETATM   14  C   UNL     1      44.146 -19.054   4.973  1.00  0.00     0.030 A 
ENDROOT
BRANCH   6  15
HETATM   15  C   UNL     1      41.083 -14.034   1.004  1.00  0.00     0.229 C 
BRANCH  15  16
HETATM   16  C   UNL     1      41.915 -13.022   0.226  1.00  0.00     0.235 C 
HETATM   17  N   UNL     1      41.772 -13.079  -1.146  1.00  0.00    -0.355 N 
HETATM   18  H   UNL     1      41.039 -13.682  -1.508  1.00  0.00     0.162 HD
HETATM   19  O   UNL     1      42.566 -12.149   0.798  1.00  0.00    -0.272 OA
BRANCH  17  20
HETATM   20  C   UNL     1      42.222 -11.967  -1.957  1.00  0.00     0.084 C 
HETATM   21  C   UNL     1      42.414 -12.320  -3.425  1.00  0.00     0.025 C 
HETATM   22  C   UNL     1      42.459 -10.952  -4.091  1.00  0.00     0.002 C 
HETATM   23  C   UNL     1      41.441 -10.109  -3.330  1.00  0.00     0.002 C 
HETATM   24  C   UNL     1      41.202 -10.826  -2.000  1.00  0.00     0.025 C 
ENDBRANCH  17  20
ENDBRANCH  15  16
ENDBRANCH   6  15
BRANCH   5  25
HETATM   25  C   UNL     1      41.633 -14.150   4.109  1.00  0.00    -0.030 A 
HETATM   26  C   UNL     1      41.893 -12.892   4.674  1.00  0.00     0.012 A 
HETATM   27  C   UNL     1      41.068 -12.378   5.679  1.00  0.00     0.037 A 
HETATM   28  C   UNL     1      39.966 -13.101   6.136  1.00  0.00     0.068 A 
HETATM   29  C   UNL     1      39.700 -14.355   5.587  1.00  0.00     0.037 A 
HETATM   30  C   UNL     1      40.528 -14.875   4.585  1.00  0.00     0.012 A 
BRANCH  28  31
HETATM   31  O   UNL     1      39.241 -12.479   7.113  1.00  0.00    -0.356 OA
HETATM   32  C   UNL     1      39.789 -11.284   7.654  1.00  0.00     0.210 C 
ENDBRANCH  28  31
ENDBRANCH   5  25
TORSDOF 5
ENDMDL
MODEL 6
REMARK VINA RESULT:      -7.7      2.491      6.730
REMARK  5 active torsions:
REMARK  status: ('A' for Active; 'I' for Inactive)
REMARK    1  A    between atoms: C_5  and  C_6 
REMARK    2  A    between atoms: C_9  and  O_10 
REMARK    3  A    between atoms: N_14  and  C_15 
REMARK    4  A    between atoms: C_15  and  C_16 
REMARK       I    between atoms: C_16  and  N_17 
REMARK    5  A    between atoms: N_17  and  C_18 
ROOT
HETATM    1  C   UNL     1      41.888 -12.838  -2.606  1.00  0.00     0.156 C 
HETATM    2  N   UNL     1      41.484 -12.697  -1.228  1.00  0.00    -0.346 N 
HETATM    3  C   UNL     1      41.177 -13.711  -0.385  1.00  0.00     0.113 A 
HETATM    4  C   UNL     1      40.861 -13.204   0.847  1.00  0.00     0.014 A 
HETATM    5  C   UNL     1      40.541 -14.307   1.790  1.00  0.00     0.158 C 
HETATM    6  N   UNL     1      40.885 -15.470   0.937  1.00  0.00    -0.325 N 
HETATM    7  C   UNL     1      41.162 -15.136  -0.388  1.00  0.00     0.272 C 
HETATM    8  O   UNL     1      41.362 -15.899  -1.317  1.00  0.00    -0.266 OA
HETATM    9  C   UNL     1      41.011 -11.806   0.799  1.00  0.00     0.002 A 
HETATM   10  C   UNL     1      41.420 -11.503  -0.517  1.00  0.00     0.045 A 
HETATM   11  C   UNL     1      40.888 -10.762   1.734  1.00  0.00     0.014 A 
HETATM   12  C   UNL     1      41.178  -9.450   1.346  1.00  0.00     0.001 A 
HETATM   13  C   UNL     1      41.582  -9.169   0.044  1.00  0.00     0.002 A 
HETATM   14  C   UNL     1      41.708 -10.184  -0.909  1.00  0.00     0.030 A 
ENDROOT
BRANCH   6  15
HETATM   15  C   UNL     1      40.900 -16.827   1.450  1.00  0.00     0.229 C 
BRANCH  15  16
HETATM   16  C   UNL     1      42.294 -17.373   1.728  1.00  0.00     0.235 C 
HETATM   17  N   UNL     1      42.326 -18.595   2.371  1.00  0.00    -0.355 N 
HETATM   18  H   UNL     1      41.441 -19.082   2.478  1.00  0.00     0.162 HD
HETATM   19  O   UNL     1      43.303 -16.814   1.300  1.00  0.00    -0.272 OA
BRANCH  17  20
HETATM   20  C   UNL     1      43.550 -19.369   2.373  1.00  0.00     0.084 C 
HETATM   21  C   UNL     1      44.139 -19.577   3.761  1.00  0.00     0.025 C 
HETATM   22  C   UNL     1      45.116 -20.723   3.537  1.00  0.00     0.002 C 
HETATM   23  C   UNL     1      44.425 -21.640   2.532  1.00  0.00     0.002 C 
HETATM   24  C   UNL     1      43.339 -20.797   1.862  1.00  0.00     0.025 C 
ENDBRANCH  17  20
ENDBRANCH  15  16
ENDBRANCH   6  15
BRANCH   5  25
HETATM   25  C   UNL     1      41.399 -14.134   3.017  1.00  0.00    -0.030 A 
HETATM   26  C   UNL     1      40.802 -14.225   4.284  1.00  0.00     0.012 A 
HETATM   27  C   UNL     1      41.567 -14.078   5.444  1.00  0.00     0.037 A 
HETATM   28  C   UNL     1      42.940 -13.844   5.368  1.00  0.00     0.068 A 
HETATM   29  C   UNL     1      43.545 -13.746   4.115  1.00  0.00     0.037 A 
HETATM   30  C   UNL     1      42.779 -13.887   2.951  1.00  0.00     0.012 A 
BRANCH  28  31
HETATM   31  O   UNL     1      43.568 -13.729   6.576  1.00  0.00    -0.356 OA
HETATM   32  C   UNL     1      44.959 -14.021   6.605  1.00  0.00     0.210 C 
ENDBRANCH  28  31
ENDBRANCH   5  25
TORSDOF 5
ENDMDL
MODEL 7
REMARK VINA RESULT:      -7.7      2.609      7.224
REMARK  5 active torsions:
REMARK  status: ('A' for Active; 'I' for Inactive)
REMARK    1  A    between atoms: C_5  and  C_6 
REMARK    2  A    between atoms: C_9  and  O_10 
REMARK    3  A    between atoms: N_14  and  C_15 
REMARK    4  A    between atoms: C_15  and  C_16 
REMARK       I    between atoms: C_16  and  N_17 
REMARK    5  A    between atoms: N_17  and  C_18 
ROOT
HETATM    1  C   UNL     1      40.045 -14.351   5.874  1.00  0.00     0.156 C 
HETATM    2  N   UNL     1      40.286 -13.804   4.561  1.00  0.00    -0.346 N 
HETATM    3  C   UNL     1      40.785 -14.480   3.500  1.00  0.00     0.113 A 
HETATM    4  C   UNL     1      40.857 -13.646   2.416  1.00  0.00     0.014 A 
HETATM    5  C   UNL     1      41.382 -14.381   1.237  1.00  0.00     0.158 C 
HETATM    6  N   UNL     1      41.428 -15.753   1.799  1.00  0.00    -0.325 N 
HETATM    7  C   UNL     1      41.178 -15.810   3.169  1.00  0.00     0.272 C 
HETATM    8  O   UNL     1      41.262 -16.784   3.897  1.00  0.00    -0.266 OA
HETATM    9  C   UNL     1      40.344 -12.391   2.793  1.00  0.00     0.002 A 
HETATM   10  C   UNL     1      39.975 -12.511   4.149  1.00  0.00     0.045 A 
HETATM   11  C   UNL     1      40.112 -11.174   2.126  1.00  0.00     0.014 A 
HETATM   12  C   UNL     1      39.515 -10.113   2.815  1.00  0.00     0.001 A 
HETATM   13  C   UNL     1      39.155 -10.250   4.153  1.00  0.00     0.002 A 
HETATM   14  C   UNL     1      39.379 -11.445   4.843  1.00  0.00     0.030 A 
ENDROOT
BRANCH   6  15
HETATM   15  C   UNL     1      41.734 -16.912   0.983  1.00  0.00     0.229 C 
BRANCH  15  16
HETATM   16  C   UNL     1      43.007 -17.642   1.389  1.00  0.00     0.235 C 
HETATM   17  N   UNL     1      42.817 -18.746   2.198  1.00  0.00    -0.355 N 
HETATM   18  H   UNL     1      41.860 -19.053   2.339  1.00  0.00     0.162 HD
HETATM   19  O   UNL     1      44.104 -17.332   0.924  1.00  0.00    -0.272 OA
BRANCH  17  20
HETATM   20  C   UNL     1      43.887 -19.708   2.355  1.00  0.00     0.084 C 
HETATM   21  C   UNL     1      44.261 -19.974   3.806  1.00  0.00     0.025 C 
HETATM   22  C   UNL     1      45.056 -21.269   3.711  1.00  0.00     0.002 C 
HETATM   23  C   UNL     1      44.350 -22.086   2.633  1.00  0.00     0.002 C 
HETATM   24  C   UNL     1      43.507 -21.095   1.830  1.00  0.00     0.025 C 
ENDBRANCH  17  20
ENDBRANCH  15  16
ENDBRANCH   6  15
BRANCH   5  25
HETATM   25  C   UNL     1      40.416 -14.186   0.097  1.00  0.00    -0.030 A 
HETATM   26  C   UNL     1      40.919 -13.991  -1.198  1.00  0.00     0.012 A 
HETATM   27  C   UNL     1      40.053 -13.814  -2.280  1.00  0.00     0.037 A 
HETATM   28  C   UNL     1      38.670 -13.834  -2.097  1.00  0.00     0.068 A 
HETATM   29  C   UNL     1      38.157 -14.021  -0.815  1.00  0.00     0.037 A 
HETATM   30  C   UNL     1      39.023 -14.193   0.272  1.00  0.00     0.012 A 
BRANCH  28  31
HETATM   31  O   UNL     1      37.940 -13.658  -3.239  1.00  0.00    -0.356 OA
HETATM   32  C   UNL     1      37.223 -14.786  -3.721  1.00  0.00     0.210 C 
ENDBRANCH  28  31
ENDBRANCH   5  25
TORSDOF 5
ENDMDL
MODEL 8
REMARK VINA RESULT:      -7.6      1.702      2.366
REMARK  5 active torsions:
REMARK  status: ('A' for Active; 'I' for Inactive)
REMARK    1  A    between atoms: C_5  and  C_6 
REMARK    2  A    between atoms: C_9  and  O_10 
REMARK    3  A    between atoms: N_14  and  C_15 
REMARK    4  A    between atoms: C_15  and  C_16 
REMARK       I    between atoms: C_16  and  N_17 
REMARK    5  A    between atoms: N_17  and  C_18 
ROOT
HETATM    1  C   UNL     1      42.054 -18.211   4.047  1.00  0.00     0.156 C 
HETATM    2  N   UNL     1      42.248 -16.798   4.262  1.00  0.00    -0.346 N 
HETATM    3  C   UNL     1      41.576 -15.801   3.638  1.00  0.00     0.113 A 
HETATM    4  C   UNL     1      42.009 -14.591   4.109  1.00  0.00     0.014 A 
HETATM    5  C   UNL     1      41.264 -13.488   3.448  1.00  0.00     0.158 C 
HETATM    6  N   UNL     1      40.270 -14.281   2.684  1.00  0.00    -0.325 N 
HETATM    7  C   UNL     1      40.510 -15.654   2.703  1.00  0.00     0.272 C 
HETATM    8  O   UNL     1      39.921 -16.516   2.076  1.00  0.00    -0.266 OA
HETATM    9  C   UNL     1      42.973 -14.826   5.105  1.00  0.00     0.002 A 
HETATM   10  C   UNL     1      43.103 -16.227   5.200  1.00  0.00     0.045 A 
HETATM   11  C   UNL     1      43.724 -14.009   5.971  1.00  0.00     0.014 A 
HETATM   12  C   UNL     1      44.576 -14.600   6.910  1.00  0.00     0.001 A 
HETATM   13  C   UNL     1      44.691 -15.985   6.991  1.00  0.00     0.002 A 
HETATM   14  C   UNL     1      43.962 -16.822   6.140  1.00  0.00     0.030 A 
ENDROOT
BRANCH   6  15
HETATM   15  C   UNL     1      39.173 -13.660   1.968  1.00  0.00     0.229 C 
BRANCH  15  16
HETATM   16  C   UNL     1      39.474 -13.357   0.506  1.00  0.00     0.235 C 
HETATM   17  N   UNL     1      39.565 -14.465  -0.315  1.00  0.00    -0.355 N 
HETATM   18  H   UNL     1      39.294 -15.358   0.086  1.00  0.00     0.162 HD
HETATM   19  O   UNL     1      39.511 -12.203   0.082  1.00  0.00    -0.272 OA
BRANCH  17  20
HETATM   20  C   UNL     1      39.495 -14.297  -1.751  1.00  0.00     0.084 C 
HETATM   21  C   UNL     1      40.216 -15.388  -2.530  1.00  0.00     0.025 C 
HETATM   22  C   UNL     1      39.646 -15.224  -3.932  1.00  0.00     0.002 C 
HETATM   23  C   UNL     1      38.177 -14.868  -3.722  1.00  0.00     0.002 C 
HETATM   24  C   UNL     1      38.060 -14.377  -2.278  1.00  0.00     0.025 C 
ENDBRANCH  17  20
ENDBRANCH  15  16
ENDBRANCH   6  15
BRANCH   5  25
HETATM   25  C   UNL     1      40.690 -12.603   4.525  1.00  0.00    -0.030 A 
HETATM   26  C   UNL     1      39.924 -13.184   5.548  1.00  0.00     0.012 A 
HETATM   27  C   UNL     1      39.383 -12.396   6.568  1.00  0.00     0.037 A 
HETATM   28  C   UNL     1      39.598 -11.018   6.594  1.00  0.00     0.068 A 
HETATM   29  C   UNL     1      40.351 -10.428   5.580  1.00  0.00     0.037 A 
HETATM   30  C   UNL     1      40.890 -11.214   4.554  1.00  0.00     0.012 A 
BRANCH  28  31
HETATM   31  O   UNL     1      39.020 -10.370   7.649  1.00  0.00    -0.356 OA
HETATM   32  C   UNL     1      39.114 -11.003   8.918  1.00  0.00     0.210 C 
ENDBRANCH  28  31
ENDBRANCH   5  25
TORSDOF 5
ENDMDL
MODEL 9
REMARK VINA RESULT:      -7.4      2.278      6.956
REMARK  5 active torsions:
REMARK  status: ('A' for Active; 'I' for Inactive)
REMARK    1  A    between atoms: C_5  and  C_6 
REMARK    2  A    between atoms: C_9  and  O_10 
REMARK    3  A    between atoms: N_14  and  C_15 
REMARK    4  A    between atoms: C_15  and  C_16 
REMARK       I    between atoms: C_16  and  N_17 
REMARK    5  A    between atoms: N_17  and  C_18 
ROOT
HETATM    1  C   UNL     1      44.615 -16.663   6.346  1.00  0.00     0.156 C 
HETATM    2  N   UNL     1      43.588 -16.655   5.332  1.00  0.00    -0.346 N 
HETATM    3  C   UNL     1      42.660 -15.685   5.152  1.00  0.00     0.113 A 
HETATM    4  C   UNL     1      41.865 -16.003   4.083  1.00  0.00     0.014 A 
HETATM    5  C   UNL     1      40.855 -14.937   3.860  1.00  0.00     0.158 C 
HETATM    6  N   UNL     1      41.323 -13.939   4.852  1.00  0.00    -0.325 N 
HETATM    7  C   UNL     1      42.326 -14.412   5.698  1.00  0.00     0.272 C 
HETATM    8  O   UNL     1      42.808 -13.845   6.663  1.00  0.00    -0.266 OA
HETATM    9  C   UNL     1      42.331 -17.211   3.533  1.00  0.00     0.002 A 
HETATM   10  C   UNL     1      43.430 -17.603   4.326  1.00  0.00     0.045 A 
HETATM   11  C   UNL     1      41.973 -17.999   2.423  1.00  0.00     0.014 A 
HETATM   12  C   UNL     1      42.713 -19.148   2.125  1.00  0.00     0.001 A 
HETATM   13  C   UNL     1      43.796 -19.519   2.917  1.00  0.00     0.002 A 
HETATM   14  C   UNL     1      44.172 -18.759   4.029  1.00  0.00     0.030 A 
ENDROOT
BRANCH   6  15
HETATM   15  C   UNL     1      40.756 -12.607   4.935  1.00  0.00     0.229 C 
BRANCH  15  16
HETATM   16  C   UNL     1      39.858 -12.385   6.144  1.00  0.00     0.235 C 
HETATM   17  N   UNL     1      40.434 -11.672   7.178  1.00  0.00    -0.355 N 
HETATM   18  H   UNL     1      41.337 -11.246   6.995  1.00  0.00     0.162 HD
HETATM   19  O   UNL     1      38.673 -12.717   6.137  1.00  0.00    -0.272 OA
BRANCH  17  20
HETATM   20  C   UNL     1      39.591 -11.102   8.208  1.00  0.00     0.084 C 
HETATM   21  C   UNL     1      40.274 -10.989   9.563  1.00  0.00     0.025 C 
HETATM   22  C   UNL     1      39.373 -10.011  10.307  1.00  0.00     0.002 C 
HETATM   23  C   UNL     1      38.937  -8.997   9.253  1.00  0.00     0.002 C 
HETATM   24  C   UNL     1      39.185  -9.658   7.896  1.00  0.00     0.025 C 
ENDBRANCH  17  20
ENDBRANCH  15  16
ENDBRANCH   6  15
BRANCH   5  25
HETATM   25  C   UNL     1      40.946 -14.503   2.419  1.00  0.00    -0.030 A 
HETATM   26  C   UNL     1      39.821 -14.644   1.592  1.00  0.00     0.012 A 
HETATM   27  C   UNL     1      39.866 -14.246   0.254  1.00  0.00     0.037 A 
HETATM   28  C   UNL     1      41.028 -13.692  -0.286  1.00  0.00     0.068 A 
HETATM   29  C   UNL     1      42.154 -13.552   0.523  1.00  0.00     0.037 A 
HETATM   30  C   UNL     1      42.113 -13.956   1.863  1.00  0.00     0.012 A 
BRANCH  28  31
HETATM   31  O   UNL     1      40.933 -13.338  -1.603  1.00  0.00    -0.356 OA
HETATM   32  C   UNL     1      42.095 -12.781  -2.201  1.00  0.00     0.210 C 
ENDBRANCH  28  31
ENDBRANCH   5  25
TORSDOF 5
ENDMDL
MODEL 10
REMARK VINA RESULT:      -7.4      2.473      6.806
REMARK  5 active torsions:
REMARK  status: ('A' for Active; 'I' for Inactive)
REMARK    1  A    between atoms: C_5  and  C_6 
REMARK    2  A    between atoms: C_9  and  O_10 
REMARK    3  A    between atoms: N_14  and  C_15 
REMARK    4  A    between atoms: C_15  and  C_16 
REMARK       I    between atoms: C_16  and  N_17 
REMARK    5  A    between atoms: N_17  and  C_18 
ROOT
HETATM    1  C   UNL     1      42.492 -13.445  -3.012  1.00  0.00     0.156 C 
HETATM    2  N   UNL     1      42.078 -12.960  -1.718  1.00  0.00    -0.346 N 
HETATM    3  C   UNL     1      41.424 -13.678  -0.774  1.00  0.00     0.113 A 
HETATM    4  C   UNL     1      41.215 -12.900   0.333  1.00  0.00     0.014 A 
HETATM    5  C   UNL     1      40.517 -13.683   1.385  1.00  0.00     0.158 C 
HETATM    6  N   UNL     1      40.526 -15.022   0.747  1.00  0.00    -0.325 N 
HETATM    7  C   UNL     1      40.964 -15.013  -0.576  1.00  0.00     0.272 C 
HETATM    8  O   UNL     1      40.967 -15.946  -1.360  1.00  0.00    -0.266 OA
HETATM    9  C   UNL     1      41.798 -11.641   0.101  1.00  0.00     0.002 A 
HETATM   10  C   UNL     1      42.351 -11.700  -1.195  1.00  0.00     0.045 A 
HETATM   11  C   UNL     1      41.956 -10.467   0.860  1.00  0.00     0.014 A 
HETATM   12  C   UNL     1      42.662  -9.386   0.319  1.00  0.00     0.001 A 
HETATM   13  C   UNL     1      43.204  -9.462  -0.961  1.00  0.00     0.002 A 
HETATM   14  C   UNL     1      43.057 -10.614  -1.741  1.00  0.00     0.030 A 
ENDROOT
BRANCH   6  15
HETATM   15  C   UNL     1      40.089 -16.214   1.448  1.00  0.00     0.229 C 
BRANCH  15  16
HETATM   16  C   UNL     1      41.225 -17.113   1.917  1.00  0.00     0.235 C 
HETATM   17  N   UNL     1      41.549 -16.997   3.255  1.00  0.00    -0.355 N 
HETATM   18  H   UNL     1      40.928 -16.437   3.832  1.00  0.00     0.162 HD
HETATM   19  O   UNL     1      41.723 -17.961   1.177  1.00  0.00    -0.272 OA
BRANCH  17  20
HETATM   20  C   UNL     1      42.348 -18.025   3.888  1.00  0.00     0.084 C 
HETATM   21  C   UNL     1      43.843 -17.749   3.847  1.00  0.00     0.025 C 
HETATM   22  C   UNL     1      44.385 -18.703   4.904  1.00  0.00     0.002 C 
HETATM   23  C   UNL     1      43.337 -18.698   6.013  1.00  0.00     0.002 C 
HETATM   24  C   UNL     1      42.054 -18.153   5.386  1.00  0.00     0.025 C 
ENDBRANCH  17  20
ENDBRANCH  15  16
ENDBRANCH   6  15
BRANCH   5  25
HETATM   25  C   UNL     1      41.318 -13.571   2.657  1.00  0.00    -0.030 A 
HETATM   26  C   UNL     1      40.652 -13.281   3.859  1.00  0.00     0.012 A 
HETATM   27  C   UNL     1      41.361 -13.178   5.058  1.00  0.00     0.037 A 
HETATM   28  C   UNL     1      42.743 -13.367   5.089  1.00  0.00     0.068 A 
HETATM   29  C   UNL     1      43.417 -13.650   3.902  1.00  0.00     0.037 A 
HETATM   30  C   UNL     1      42.710 -13.748   2.697  1.00  0.00     0.012 A 
BRANCH  28  31
HETATM   31  O   UNL     1      43.308 -13.246   6.327  1.00  0.00    -0.356 OA
HETATM   32  C   UNL     1      44.245 -14.247   6.703  1.00  0.00     0.210 C 
ENDBRANCH  28  31
ENDBRANCH   5  25
TORSDOF 5
ENDMDL
