MODEL 1
REMARK VINA RESULT:      -8.7      0.000      0.000
REMARK  4 active torsions:
REMARK  status: ('A' for Active; 'I' for Inactive)
REMARK    1  A    between atoms: N_2  and  C_4 
REMARK    2  A    between atoms: N_2  and  C_16 
REMARK    3  A    between atoms: C_4  and  C_5 
REMARK    4  A    between atoms: C_16  and  C_17 
ROOT
HETATM    1  C   UNL     1      44.390 -14.717   6.833  1.00  0.00     0.270 C 
HETATM    2  N   UNL     1      43.711 -15.915   6.228  1.00  0.00    -0.064 N 
HETATM    3  H   UNL     1      43.866 -15.837   5.208  1.00  0.00     0.280 HD
ENDROOT
BRANCH   2   4
HETATM    4  C   UNL     1      44.394 -17.222   6.616  1.00  0.00     0.312 C 
BRANCH   4   5
HETATM    5  C   UNL     1      44.362 -18.229   5.473  1.00  0.00     0.133 A 
HETATM    6  N   UNL     1      44.569 -19.480   5.739  1.00  0.00    -0.233 NA
HETATM    7  C   UNL     1      44.534 -20.387   4.657  1.00  0.00     0.074 A 
HETATM    8  C   UNL     1      44.288 -19.980   3.341  1.00  0.00     0.061 A 
HETATM    9  C   UNL     1      44.751 -21.744   4.902  1.00  0.00     0.032 A 
HETATM   10  C   UNL     1      44.061 -18.546   3.108  1.00  0.00     0.259 A 
HETATM   11  C   UNL     1      44.254 -20.893   2.284  1.00  0.00     0.019 A 
HETATM   12  O   UNL     1      43.834 -18.076   2.002  1.00  0.00    -0.267 OA
HETATM   13  N   UNL     1      44.115 -17.745   4.221  1.00  0.00    -0.309 N 
HETATM   14  H   UNL     1      43.968 -16.763   4.021  1.00  0.00     0.170 HD
HETATM   15  C   UNL     1      44.472 -22.244   2.546  1.00  0.00     0.001 A 
HETATM   16  C   UNL     1      44.720 -22.668   3.853  1.00  0.00     0.002 A 
ENDBRANCH   4   5
ENDBRANCH   2   4
BRANCH   2  17
HETATM   17  C   UNL     1      42.227 -15.970   6.478  1.00  0.00     0.273 C 
BRANCH  17  18
HETATM   18  C   UNL     1      41.384 -15.488   5.331  1.00  0.00    -0.028 A 
HETATM   19  C   UNL     1      41.299 -16.234   4.145  1.00  0.00     0.035 A 
HETATM   20  C   UNL     1      40.480 -15.810   3.092  1.00  0.00     0.070 A 
HETATM   21 CL   UNL     1      40.394 -16.801   1.683  1.00  0.00    -0.081 Cl
HETATM   22  C   UNL     1      39.756 -14.619   3.194  1.00  0.00     0.123 A 
HETATM   23  C   UNL     1      39.852 -13.863   4.364  1.00  0.00     0.104 A 
HETATM   24  O   UNL     1      38.875 -14.295   2.198  1.00  0.00    -0.346 OA
HETATM   25  O   UNL     1      39.115 -12.733   4.591  1.00  0.00    -0.348 OA
HETATM   26  C   UNL     1      40.643 -14.303   5.432  1.00  0.00     0.048 A 
HETATM   27  C   UNL     1      39.403 -11.692   3.652  1.00  0.00     0.178 C 
HETATM   28  C   UNL     1      38.659 -11.873   2.339  1.00  0.00     0.053 C 
HETATM   29  C   UNL     1      39.201 -13.060   1.560  1.00  0.00     0.178 C 
ENDBRANCH  17  18
ENDBRANCH   2  17
TORSDOF 4
ENDMDL
MODEL 2
REMARK VINA RESULT:      -8.7      4.213      8.365
REMARK  4 active torsions:
REMARK  status: ('A' for Active; 'I' for Inactive)
REMARK    1  A    between atoms: N_2  and  C_4 
REMARK    2  A    between atoms: N_2  and  C_16 
REMARK    3  A    between atoms: C_4  and  C_5 
REMARK    4  A    between atoms: C_16  and  C_17 
ROOT
HETATM    1  C   UNL     1      40.716 -17.399   1.718  1.00  0.00     0.270 C 
HETATM    2  N   UNL     1      41.617 -16.597   0.819  1.00  0.00    -0.064 N 
HETATM    3  H   UNL     1      41.244 -16.730  -0.137  1.00  0.00     0.280 HD
ENDROOT
BRANCH   2   4
HETATM    4  C   UNL     1      41.494 -15.099   1.069  1.00  0.00     0.312 C 
BRANCH   4   5
HETATM    5  C   UNL     1      41.666 -14.303  -0.219  1.00  0.00     0.133 A 
HETATM    6  N   UNL     1      42.083 -13.078  -0.144  1.00  0.00    -0.233 NA
HETATM    7  C   UNL     1      42.230 -12.367  -1.356  1.00  0.00     0.074 A 
HETATM    8  C   UNL     1      41.944 -12.936  -2.602  1.00  0.00     0.061 A 
HETATM    9  C   UNL     1      42.679 -11.047  -1.317  1.00  0.00     0.032 A 
HETATM   10  C   UNL     1      41.473 -14.330  -2.616  1.00  0.00     0.259 A 
HETATM   11  C   UNL     1      42.097 -12.219  -3.790  1.00  0.00     0.019 A 
HETATM   12  O   UNL     1      41.195 -14.931  -3.645  1.00  0.00    -0.267 OA
HETATM   13  N   UNL     1      41.363 -14.935  -1.390  1.00  0.00    -0.309 N 
HETATM   14  H   UNL     1      41.024 -15.889  -1.437  1.00  0.00     0.170 HD
HETATM   15  C   UNL     1      42.547 -10.901  -3.734  1.00  0.00     0.001 A 
HETATM   16  C   UNL     1      42.837 -10.316  -2.500  1.00  0.00     0.002 A 
ENDBRANCH   4   5
ENDBRANCH   2   4
BRANCH   2  17
HETATM   17  C   UNL     1      43.054 -17.045   0.833  1.00  0.00     0.273 C 
BRANCH  17  18
HETATM   18  C   UNL     1      43.437 -17.877   2.026  1.00  0.00    -0.028 A 
HETATM   19  C   UNL     1      43.684 -19.251   1.888  1.00  0.00     0.035 A 
HETATM   20  C   UNL     1      44.083 -20.018   2.988  1.00  0.00     0.070 A 
HETATM   21 CL   UNL     1      44.410 -21.693   2.733  1.00  0.00    -0.081 Cl
HETATM   22  C   UNL     1      44.212 -19.433   4.251  1.00  0.00     0.123 A 
HETATM   23  C   UNL     1      43.947 -18.069   4.397  1.00  0.00     0.104 A 
HETATM   24  O   UNL     1      44.717 -20.183   5.278  1.00  0.00    -0.346 OA
HETATM   25  O   UNL     1      44.130 -17.390   5.571  1.00  0.00    -0.348 OA
HETATM   26  C   UNL     1      43.582 -17.292   3.292  1.00  0.00     0.048 A 
HETATM   27  C   UNL     1      43.290 -17.875   6.623  1.00  0.00     0.178 C 
HETATM   28  C   UNL     1      43.855 -19.117   7.292  1.00  0.00     0.053 C 
HETATM   29  C   UNL     1      43.796 -20.317   6.361  1.00  0.00     0.178 C 
ENDBRANCH  17  18
ENDBRANCH   2  17
TORSDOF 4
ENDMDL
MODEL 3
REMARK VINA RESULT:      -8.6      2.786      4.023
REMARK  4 active torsions:
REMARK  status: ('A' for Active; 'I' for Inactive)
REMARK    1  A    between atoms: N_2  and  C_4 
REMARK    2  A    between atoms: N_2  and  C_16 
REMARK    3  A    between atoms: C_4  and  C_5 
REMARK    4  A    between atoms: C_16  and  C_17 
ROOT
HETATM    1  C   UNL     1      40.997 -16.124   5.297  1.00  0.00     0.270 C 
HETATM    2  N   UNL     1      41.382 -15.754   3.891  1.00  0.00    -0.064 N 
HETATM    3  H   UNL     1      41.171 -14.745   3.802  1.00  0.00     0.280 HD
ENDROOT
BRANCH   2   4
HETATM    4  C   UNL     1      42.886 -15.848   3.661  1.00  0.00     0.312 C 
BRANCH   4   5
HETATM    5  C   UNL     1      43.378 -17.286   3.770  1.00  0.00     0.133 A 
HETATM    6  N   UNL     1      43.216 -18.078   2.757  1.00  0.00    -0.233 NA
HETATM    7  C   UNL     1      43.681 -19.405   2.890  1.00  0.00     0.074 A 
HETATM    8  C   UNL     1      44.297 -19.873   4.056  1.00  0.00     0.061 A 
HETATM    9  C   UNL     1      43.527 -20.288   1.821  1.00  0.00     0.032 A 
HETATM   10  C   UNL     1      44.449 -18.923   5.169  1.00  0.00     0.259 A 
HETATM   11  C   UNL     1      44.754 -21.188   4.169  1.00  0.00     0.019 A 
HETATM   12  O   UNL     1      44.973 -19.219   6.234  1.00  0.00    -0.267 OA
HETATM   13  N   UNL     1      43.966 -17.658   4.943  1.00  0.00    -0.309 N 
HETATM   14  H   UNL     1      44.076 -17.035   5.735  1.00  0.00     0.170 HD
HETATM   15  C   UNL     1      44.592 -22.058   3.092  1.00  0.00     0.001 A 
HETATM   16  C   UNL     1      43.980 -21.609   1.921  1.00  0.00     0.002 A 
ENDBRANCH   4   5
ENDBRANCH   2   4
BRANCH   2  17
HETATM   17  C   UNL     1      40.612 -16.493   2.829  1.00  0.00     0.273 C 
BRANCH  17  18
HETATM   18  C   UNL     1      40.193 -15.647   1.660  1.00  0.00    -0.028 A 
HETATM   19  C   UNL     1      39.007 -14.898   1.709  1.00  0.00     0.035 A 
HETATM   20  C   UNL     1      38.637 -14.075   0.640  1.00  0.00     0.070 A 
HETATM   21 CL   UNL     1      37.188 -13.152   0.791  1.00  0.00    -0.081 Cl
HETATM   22  C   UNL     1      39.429 -14.009  -0.510  1.00  0.00     0.123 A 
HETATM   23  C   UNL     1      40.600 -14.768  -0.573  1.00  0.00     0.104 A 
HETATM   24  O   UNL     1      39.103 -13.107  -1.486  1.00  0.00    -0.346 OA
HETATM   25  O   UNL     1      41.483 -14.703  -1.616  1.00  0.00    -0.348 OA
HETATM   26  C   UNL     1      40.991 -15.565   0.510  1.00  0.00     0.048 A 
HETATM   27  C   UNL     1      40.901 -15.123  -2.855  1.00  0.00     0.178 C 
HETATM   28  C   UNL     1      40.088 -14.022  -3.517  1.00  0.00     0.053 C 
HETATM   29  C   UNL     1      38.816 -13.734  -2.737  1.00  0.00     0.178 C 
ENDBRANCH  17  18
ENDBRANCH   2  17
TORSDOF 4
ENDMDL
MODEL 4
REMARK VINA RESULT:      -8.3      3.325      4.426
REMARK  4 active torsions:
REMARK  status: ('A' for Active; 'I' for Inactive)
REMARK    1  A    between atoms: N_2  and  C_4 
REMARK    2  A    between atoms: N_2  and  C_16 
REMARK    3  A    between atoms: C_4  and  C_5 
REMARK    4  A    between atoms: C_16  and  C_17 
ROOT
HETATM    1  C   UNL     1      43.105 -13.756   4.964  1.00  0.00     0.270 C 
HETATM    2  N   UNL     1      42.279 -14.483   3.939  1.00  0.00    -0.064 N 
HETATM    3  H   UNL     1      42.954 -14.852   3.248  1.00  0.00     0.280 HD
ENDROOT
BRANCH   2   4
HETATM    4  C   UNL     1      41.609 -15.726   4.514  1.00  0.00     0.312 C 
BRANCH   4   5
HETATM    5  C   UNL     1      42.460 -16.971   4.292  1.00  0.00     0.133 A 
HETATM    6  N   UNL     1      42.242 -17.696   3.240  1.00  0.00    -0.233 NA
HETATM    7  C   UNL     1      43.046 -18.844   3.065  1.00  0.00     0.074 A 
HETATM    8  C   UNL     1      44.045 -19.209   3.974  1.00  0.00     0.061 A 
HETATM    9  C   UNL     1      42.844 -19.649   1.943  1.00  0.00     0.032 A 
HETATM   10  C   UNL     1      44.240 -18.344   5.148  1.00  0.00     0.259 A 
HETATM   11  C   UNL     1      44.832 -20.346   3.783  1.00  0.00     0.019 A 
HETATM   12  O   UNL     1      45.083 -18.562   6.006  1.00  0.00    -0.267 OA
HETATM   13  N   UNL     1      43.411 -17.253   5.229  1.00  0.00    -0.309 N 
HETATM   14  H   UNL     1      43.564 -16.688   6.056  1.00  0.00     0.170 HD
HETATM   15  C   UNL     1      44.618 -21.140   2.657  1.00  0.00     0.001 A 
HETATM   16  C   UNL     1      43.625 -20.791   1.739  1.00  0.00     0.002 A 
ENDBRANCH   4   5
ENDBRANCH   2   4
BRANCH   2  17
HETATM   17  C   UNL     1      41.291 -13.608   3.214  1.00  0.00     0.273 C 
BRANCH  17  18
HETATM   18  C   UNL     1      41.529 -13.492   1.735  1.00  0.00    -0.028 A 
HETATM   19  C   UNL     1      42.015 -12.297   1.181  1.00  0.00     0.035 A 
HETATM   20  C   UNL     1      42.279 -12.200  -0.189  1.00  0.00     0.070 A 
HETATM   21 CL   UNL     1      42.915 -10.713  -0.790  1.00  0.00    -0.081 Cl
HETATM   22  C   UNL     1      42.035 -13.285  -1.036  1.00  0.00     0.123 A 
HETATM   23  C   UNL     1      41.532 -14.470  -0.493  1.00  0.00     0.104 A 
HETATM   24  O   UNL     1      42.414 -13.198  -2.348  1.00  0.00    -0.346 OA
HETATM   25  O   UNL     1      41.345 -15.611  -1.225  1.00  0.00    -0.348 OA
HETATM   26  C   UNL     1      41.300 -14.581   0.882  1.00  0.00     0.048 A 
HETATM   27  C   UNL     1      40.382 -15.442  -2.271  1.00  0.00     0.178 C 
HETATM   28  C   UNL     1      40.976 -14.786  -3.507  1.00  0.00     0.053 C 
HETATM   29  C   UNL     1      41.312 -13.327  -3.246  1.00  0.00     0.178 C 
ENDBRANCH  17  18
ENDBRANCH   2  17
TORSDOF 4
ENDMDL
MODEL 5
REMARK VINA RESULT:      -8.2      1.571      2.083
REMARK  4 active torsions:
REMARK  status: ('A' for Active; 'I' for Inactive)
REMARK    1  A    between atoms: N_2  and  C_4 
REMARK    2  A    between atoms: N_2  and  C_16 
REMARK    3  A    between atoms: C_4  and  C_5 
REMARK    4  A    between atoms: C_16  and  C_17 
ROOT
HETATM    1  C   UNL     1      44.701 -14.932   6.662  1.00  0.00     0.270 C 
HETATM    2  N   UNL     1      43.752 -15.950   6.092  1.00  0.00    -0.064 N 
HETATM    3  H   UNL     1      43.907 -15.933   5.069  1.00  0.00     0.280 HD
ENDROOT
BRANCH   2   4
HETATM    4  C   UNL     1      44.115 -17.372   6.506  1.00  0.00     0.312 C 
BRANCH   4   5
HETATM    5  C   UNL     1      44.126 -18.315   5.310  1.00  0.00     0.133 A 
HETATM    6  N   UNL     1      44.433 -19.560   5.500  1.00  0.00    -0.233 NA
HETATM    7  C   UNL     1      44.435 -20.408   4.370  1.00  0.00     0.074 A 
HETATM    8  C   UNL     1      44.123 -19.951   3.085  1.00  0.00     0.061 A 
HETATM    9  C   UNL     1      44.758 -21.755   4.535  1.00  0.00     0.032 A 
HETATM   10  C   UNL     1      43.785 -18.527   2.938  1.00  0.00     0.259 A 
HETATM   11  C   UNL     1      44.129 -20.805   1.980  1.00  0.00     0.019 A 
HETATM   12  O   UNL     1      43.494 -18.016   1.865  1.00  0.00    -0.267 OA
HETATM   13  N   UNL     1      43.810 -17.785   4.092  1.00  0.00    -0.309 N 
HETATM   14  H   UNL     1      43.585 -16.807   3.951  1.00  0.00     0.170 HD
HETATM   15  C   UNL     1      44.453 -22.148   2.161  1.00  0.00     0.001 A 
HETATM   16  C   UNL     1      44.767 -22.622   3.436  1.00  0.00     0.002 A 
ENDBRANCH   4   5
ENDBRANCH   2   4
BRANCH   2  17
HETATM   17  C   UNL     1      42.300 -15.651   6.355  1.00  0.00     0.273 C 
BRANCH  17  18
HETATM   18  C   UNL     1      41.636 -14.809   5.301  1.00  0.00    -0.028 A 
HETATM   19  C   UNL     1      41.526 -13.419   5.462  1.00  0.00     0.035 A 
HETATM   20  C   UNL     1      40.948 -12.629   4.463  1.00  0.00     0.070 A 
HETATM   21 CL   UNL     1      40.885 -10.923   4.713  1.00  0.00    -0.081 Cl
HETATM   22  C   UNL     1      40.442 -13.215   3.299  1.00  0.00     0.123 A 
HETATM   23  C   UNL     1      40.531 -14.601   3.143  1.00  0.00     0.104 A 
HETATM   24  O   UNL     1      39.992 -12.405   2.293  1.00  0.00    -0.346 OA
HETATM   25  O   UNL     1      40.146 -15.254   2.004  1.00  0.00    -0.348 OA
HETATM   26  C   UNL     1      41.141 -15.390   4.125  1.00  0.00     0.048 A 
HETATM   27  C   UNL     1      38.748 -15.108   1.733  1.00  0.00     0.178 C 
HETATM   28  C   UNL     1      38.425 -13.791   1.047  1.00  0.00     0.053 C 
HETATM   29  C   UNL     1      38.612 -12.618   1.994  1.00  0.00     0.178 C 
ENDBRANCH  17  18
ENDBRANCH   2  17
TORSDOF 4
ENDMDL
MODEL 6
REMARK VINA RESULT:      -8.1      5.434      7.336
REMARK  4 active torsions:
REMARK  status: ('A' for Active; 'I' for Inactive)
REMARK    1  A    between atoms: N_2  and  C_4 
REMARK    2  A    between atoms: N_2  and  C_16 
REMARK    3  A    between atoms: C_4  and  C_5 
REMARK    4  A    between atoms: C_16  and  C_17 
ROOT
HETATM    1  C   UNL     1      39.789 -12.428   6.644  1.00  0.00     0.270 C 
HETATM    2  N   UNL     1      41.274 -12.192   6.663  1.00  0.00    -0.064 N 
HETATM    3  H   UNL     1      41.652 -12.849   7.366  1.00  0.00     0.280 HD
ENDROOT
BRANCH   2   4
HETATM    4  C   UNL     1      41.942 -12.610   5.357  1.00  0.00     0.312 C 
BRANCH   4   5
HETATM    5  C   UNL     1      42.531 -14.011   5.455  1.00  0.00     0.133 A 
HETATM    6  N   UNL     1      42.597 -14.736   4.383  1.00  0.00    -0.233 NA
HETATM    7  C   UNL     1      43.147 -16.031   4.509  1.00  0.00     0.074 A 
HETATM    8  C   UNL     1      43.610 -16.537   5.728  1.00  0.00     0.061 A 
HETATM    9  C   UNL     1      43.237 -16.842   3.377  1.00  0.00     0.032 A 
HETATM   10  C   UNL     1      43.505 -15.663   6.907  1.00  0.00     0.259 A 
HETATM   11  C   UNL     1      44.153 -17.820   5.832  1.00  0.00     0.019 A 
HETATM   12  O   UNL     1      43.879 -15.998   8.022  1.00  0.00    -0.267 OA
HETATM   13  N   UNL     1      42.957 -14.425   6.684  1.00  0.00    -0.309 N 
HETATM   14  H   UNL     1      42.889 -13.856   7.519  1.00  0.00     0.170 HD
HETATM   15  C   UNL     1      44.237 -18.617   4.692  1.00  0.00     0.001 A 
HETATM   16  C   UNL     1      43.780 -18.128   3.467  1.00  0.00     0.002 A 
ENDBRANCH   4   5
ENDBRANCH   2   4
BRANCH   2  17
HETATM   17  C   UNL     1      41.668 -10.795   7.063  1.00  0.00     0.273 C 
BRANCH  17  18
HETATM   18  C   UNL     1      42.112 -10.658   8.493  1.00  0.00    -0.028 A 
HETATM   19  C   UNL     1      43.394 -11.072   8.884  1.00  0.00     0.035 A 
HETATM   20  C   UNL     1      43.826 -10.905  10.205  1.00  0.00     0.070 A 
HETATM   21 CL   UNL     1      45.431 -11.399  10.602  1.00  0.00    -0.081 Cl
HETATM   22  C   UNL     1      42.974 -10.350  11.164  1.00  0.00     0.123 A 
HETATM   23  C   UNL     1      41.689  -9.955  10.784  1.00  0.00     0.104 A 
HETATM   24  O   UNL     1      43.466 -10.092  12.415  1.00  0.00    -0.346 OA
HETATM   25  O   UNL     1      40.817  -9.323  11.628  1.00  0.00    -0.348 OA
HETATM   26  C   UNL     1      41.267 -10.088   9.456  1.00  0.00     0.048 A 
HETATM   27  C   UNL     1      40.457 -10.132  12.752  1.00  0.00     0.178 C 
HETATM   28  C   UNL     1      41.502 -10.091  13.855  1.00  0.00     0.053 C 
HETATM   29  C   UNL     1      42.772 -10.811  13.435  1.00  0.00     0.178 C 
ENDBRANCH  17  18
ENDBRANCH   2  17
TORSDOF 4
ENDMDL
MODEL 7
REMARK VINA RESULT:      -8.0      3.558      5.194
REMARK  4 active torsions:
REMARK  status: ('A' for Active; 'I' for Inactive)
REMARK    1  A    between atoms: N_2  and  C_4 
REMARK    2  A    between atoms: N_2  and  C_16 
REMARK    3  A    between atoms: C_4  and  C_5 
REMARK    4  A    between atoms: C_16  and  C_17 
ROOT
HETATM    1  C   UNL     1      40.011 -13.537   3.343  1.00  0.00     0.270 C 
HETATM    2  N   UNL     1      41.087 -14.331   2.654  1.00  0.00    -0.064 N 
HETATM    3  H   UNL     1      41.850 -14.426   3.346  1.00  0.00     0.280 HD
ENDROOT
BRANCH   2   4
HETATM    4  C   UNL     1      40.653 -15.765   2.371  1.00  0.00     0.312 C 
BRANCH   4   5
HETATM    5  C   UNL     1      41.682 -16.769   2.875  1.00  0.00     0.133 A 
HETATM    6  N   UNL     1      41.931 -17.820   2.158  1.00  0.00    -0.233 NA
HETATM    7  C   UNL     1      42.888 -18.732   2.655  1.00  0.00     0.074 A 
HETATM    8  C   UNL     1      43.557 -18.535   3.868  1.00  0.00     0.061 A 
HETATM    9  C   UNL     1      43.186 -19.875   1.911  1.00  0.00     0.032 A 
HETATM   10  C   UNL     1      43.228 -17.323   4.633  1.00  0.00     0.259 A 
HETATM   11  C   UNL     1      44.504 -19.447   4.341  1.00  0.00     0.019 A 
HETATM   12  O   UNL     1      43.750 -17.045   5.703  1.00  0.00    -0.267 OA
HETATM   13  N   UNL     1      42.286 -16.499   4.068  1.00  0.00    -0.309 N 
HETATM   14  H   UNL     1      42.075 -15.681   4.628  1.00  0.00     0.170 HD
HETATM   15  C   UNL     1      44.789 -20.583   3.587  1.00  0.00     0.001 A 
HETATM   16  C   UNL     1      44.131 -20.796   2.374  1.00  0.00     0.002 A 
ENDBRANCH   4   5
ENDBRANCH   2   4
BRANCH   2  17
HETATM   17  C   UNL     1      41.645 -13.669   1.422  1.00  0.00     0.273 C 
BRANCH  17  18
HETATM   18  C   UNL     1      40.771 -13.780   0.204  1.00  0.00    -0.028 A 
HETATM   19  C   UNL     1      39.576 -13.049   0.114  1.00  0.00     0.035 A 
HETATM   20  C   UNL     1      38.783 -13.117  -1.037  1.00  0.00     0.070 A 
HETATM   21 CL   UNL     1      37.350 -12.157  -1.092  1.00  0.00    -0.081 Cl
HETATM   22  C   UNL     1      39.153 -13.939  -2.105  1.00  0.00     0.123 A 
HETATM   23  C   UNL     1      40.331 -14.684  -2.012  1.00  0.00     0.104 A 
HETATM   24  O   UNL     1      38.421 -13.892  -3.260  1.00  0.00    -0.346 OA
HETATM   25  O   UNL     1      40.821 -15.446  -3.037  1.00  0.00    -0.348 OA
HETATM   26  C   UNL     1      41.145 -14.591  -0.877  1.00  0.00     0.048 A 
HETATM   27  C   UNL     1      39.936 -16.510  -3.403  1.00  0.00     0.178 C 
HETATM   28  C   UNL     1      38.820 -16.046  -4.325  1.00  0.00     0.053 C 
HETATM   29  C   UNL     1      37.835 -15.152  -3.588  1.00  0.00     0.178 C 
ENDBRANCH  17  18
ENDBRANCH   2  17
TORSDOF 4
ENDMDL
MODEL 8
REMARK VINA RESULT:      -7.9      4.353      8.899
REMARK  4 active torsions:
REMARK  status: ('A' for Active; 'I' for Inactive)
REMARK    1  A    between atoms: N_2  and  C_4 
REMARK    2  A    between atoms: N_2  and  C_16 
REMARK    3  A    between atoms: C_4  and  C_5 
REMARK    4  A    between atoms: C_16  and  C_17 
ROOT
HETATM    1  C   UNL     1      43.913 -13.715   4.941  1.00  0.00     0.270 C 
HETATM    2  N   UNL     1      42.960 -13.781   6.103  1.00  0.00    -0.064 N 
HETATM    3  H   UNL     1      43.545 -13.980   6.932  1.00  0.00     0.280 HD
ENDROOT
BRANCH   2   4
HETATM    4  C   UNL     1      42.323 -12.429   6.404  1.00  0.00     0.312 C 
BRANCH   4   5
HETATM    5  C   UNL     1      42.772 -11.891   7.757  1.00  0.00     0.133 A 
HETATM    6  N   UNL     1      42.093 -10.930   8.302  1.00  0.00    -0.233 NA
HETATM    7  C   UNL     1      42.536 -10.453   9.555  1.00  0.00     0.074 A 
HETATM    8  C   UNL     1      43.658 -10.976  10.206  1.00  0.00     0.061 A 
HETATM    9  C   UNL     1      41.831  -9.421  10.175  1.00  0.00     0.032 A 
HETATM   10  C   UNL     1      44.385 -12.063   9.533  1.00  0.00     0.259 A 
HETATM   11  C   UNL     1      44.080 -10.492  11.447  1.00  0.00     0.019 A 
HETATM   12  O   UNL     1      45.377 -12.599  10.007  1.00  0.00    -0.267 OA
HETATM   13  N   UNL     1      43.878 -12.458   8.320  1.00  0.00    -0.309 N 
HETATM   14  H   UNL     1      44.410 -13.199   7.880  1.00  0.00     0.170 HD
HETATM   15  C   UNL     1      43.364  -9.461  12.053  1.00  0.00     0.001 A 
HETATM   16  C   UNL     1      42.242  -8.927  11.418  1.00  0.00     0.002 A 
ENDBRANCH   4   5
ENDBRANCH   2   4
BRANCH   2  17
HETATM   17  C   UNL     1      41.923 -14.867   5.984  1.00  0.00     0.273 C 
BRANCH  17  18
HETATM   18  C   UNL     1      42.486 -16.256   5.870  1.00  0.00    -0.028 A 
HETATM   19  C   UNL     1      43.053 -16.890   6.986  1.00  0.00     0.035 A 
HETATM   20  C   UNL     1      43.538 -18.200   6.893  1.00  0.00     0.070 A 
HETATM   21 CL   UNL     1      44.183 -18.928   8.318  1.00  0.00    -0.081 Cl
HETATM   22  C   UNL     1      43.492 -18.888   5.677  1.00  0.00     0.123 A 
HETATM   23  C   UNL     1      42.946 -18.253   4.559  1.00  0.00     0.104 A 
HETATM   24  O   UNL     1      43.864 -20.204   5.649  1.00  0.00    -0.346 OA
HETATM   25  O   UNL     1      42.778 -18.875   3.351  1.00  0.00    -0.348 OA
HETATM   26  C   UNL     1      42.428 -16.957   4.657  1.00  0.00     0.048 A 
HETATM   27  C   UNL     1      44.018 -19.287   2.767  1.00  0.00     0.178 C 
HETATM   28  C   UNL     1      44.518 -20.604   3.337  1.00  0.00     0.053 C 
HETATM   29  C   UNL     1      44.971 -20.441   4.779  1.00  0.00     0.178 C 
ENDBRANCH  17  18
ENDBRANCH   2  17
TORSDOF 4
ENDMDL
MODEL 9
REMARK VINA RESULT:      -7.8      3.626      5.502
REMARK  4 active torsions:
REMARK  status: ('A' for Active; 'I' for Inactive)
REMARK    1  A    between atoms: N_2  and  C_4 
REMARK    2  A    between atoms: N_2  and  C_16 
REMARK    3  A    between atoms: C_4  and  C_5 
REMARK    4  A    between atoms: C_16  and  C_17 
ROOT
HETATM    1  C   UNL     1      40.673 -15.127   5.596  1.00  0.00     0.270 C 
HETATM    2  N   UNL     1      41.996 -15.033   4.887  1.00  0.00    -0.064 N 
HETATM    3  H   UNL     1      42.662 -15.571   5.467  1.00  0.00     0.280 HD
ENDROOT
BRANCH   2   4
HETATM    4  C   UNL     1      41.986 -15.762   3.548  1.00  0.00     0.312 C 
BRANCH   4   5
HETATM    5  C   UNL     1      42.742 -17.082   3.626  1.00  0.00     0.133 A 
HETATM    6  N   UNL     1      42.555 -17.964   2.694  1.00  0.00    -0.233 NA
HETATM    7  C   UNL     1      43.270 -19.178   2.798  1.00  0.00     0.074 A 
HETATM    8  C   UNL     1      44.151 -19.446   3.851  1.00  0.00     0.061 A 
HETATM    9  C   UNL     1      43.097 -20.152   1.813  1.00  0.00     0.032 A 
HETATM   10  C   UNL     1      44.316 -18.404   4.876  1.00  0.00     0.259 A 
HETATM   11  C   UNL     1      44.851 -20.652   3.935  1.00  0.00     0.019 A 
HETATM   12  O   UNL     1      45.060 -18.525   5.839  1.00  0.00    -0.267 OA
HETATM   13  N   UNL     1      43.580 -17.261   4.688  1.00  0.00    -0.309 N 
HETATM   14  H   UNL     1      43.709 -16.571   5.419  1.00  0.00     0.170 HD
HETATM   15  C   UNL     1      44.668 -21.614   2.943  1.00  0.00     0.001 A 
HETATM   16  C   UNL     1      43.792 -21.364   1.884  1.00  0.00     0.002 A 
ENDBRANCH   4   5
ENDBRANCH   2   4
BRANCH   2  17
HETATM   17  C   UNL     1      42.519 -13.628   4.748  1.00  0.00     0.273 C 
BRANCH  17  18
HETATM   18  C   UNL     1      42.747 -12.916   6.052  1.00  0.00    -0.028 A 
HETATM   19  C   UNL     1      41.921 -11.848   6.436  1.00  0.00     0.035 A 
HETATM   20  C   UNL     1      42.103 -11.213   7.670  1.00  0.00     0.070 A 
HETATM   21 CL   UNL     1      41.021  -9.937   8.091  1.00  0.00    -0.081 Cl
HETATM   22  C   UNL     1      43.132 -11.611   8.527  1.00  0.00     0.123 A 
HETATM   23  C   UNL     1      43.971 -12.659   8.140  1.00  0.00     0.104 A 
HETATM   24  O   UNL     1      43.209 -11.050   9.772  1.00  0.00    -0.346 OA
HETATM   25  O   UNL     1      44.947 -13.177   8.946  1.00  0.00    -0.348 OA
HETATM   26  C   UNL     1      43.769 -13.321   6.923  1.00  0.00     0.048 A 
HETATM   27  C   UNL     1      45.958 -12.217   9.271  1.00  0.00     0.178 C 
HETATM   28  C   UNL     1      45.545 -11.303  10.413  1.00  0.00     0.053 C 
HETATM   29  C   UNL     1      44.438 -10.354   9.984  1.00  0.00     0.178 C 
ENDBRANCH  17  18
ENDBRANCH   2  17
TORSDOF 4
ENDMDL
MODEL 10
REMARK VINA RESULT:      -7.8      3.555      7.749
REMARK  4 active torsions:
REMARK  status: ('A' for Active; 'I' for Inactive)
REMARK    1  A    between atoms: N_2  and  C_4 
REMARK    2  A    between atoms: N_2  and  C_16 
REMARK    3  A    between atoms: C_4  and  C_5 
REMARK    4  A    between atoms: C_16  and  C_17 
ROOT
HETATM    1  C   UNL     1      40.316 -14.743   5.051  1.00  0.00     0.270 C 
HETATM    2  N   UNL     1      41.315 -14.469   3.960  1.00  0.00    -0.064 N 
HETATM    3  H   UNL     1      41.097 -15.146   3.208  1.00  0.00     0.280 HD
ENDROOT
BRANCH   2   4
HETATM    4  C   UNL     1      41.105 -13.105   3.314  1.00  0.00     0.312 C 
BRANCH   4   5
HETATM    5  C   UNL     1      41.391 -13.145   1.819  1.00  0.00     0.133 A 
HETATM    6  N   UNL     1      41.859 -12.081   1.244  1.00  0.00    -0.233 NA
HETATM    7  C   UNL     1      42.111 -12.152  -0.144  1.00  0.00     0.074 A 
HETATM    8  C   UNL     1      41.876 -13.309  -0.894  1.00  0.00     0.061 A 
HETATM    9  C   UNL     1      42.617 -11.028  -0.798  1.00  0.00     0.032 A 
HETATM   10  C   UNL     1      41.343 -14.480  -0.182  1.00  0.00     0.259 A 
HETATM   11  C   UNL     1      42.134 -13.360  -2.266  1.00  0.00     0.019 A 
HETATM   12  O   UNL     1      41.101 -15.545  -0.733  1.00  0.00    -0.267 OA
HETATM   13  N   UNL     1      41.131 -14.314   1.164  1.00  0.00    -0.309 N 
HETATM   14  H   UNL     1      40.752 -15.136   1.619  1.00  0.00     0.170 HD
HETATM   15  C   UNL     1      42.640 -12.229  -2.905  1.00  0.00     0.001 A 
HETATM   16  C   UNL     1      42.881 -11.065  -2.172  1.00  0.00     0.002 A 
ENDBRANCH   4   5
ENDBRANCH   2   4
BRANCH   2  17
HETATM   17  C   UNL     1      42.748 -14.670   4.376  1.00  0.00     0.273 C 
BRANCH  17  18
HETATM   18  C   UNL     1      43.154 -16.109   4.538  1.00  0.00    -0.028 A 
HETATM   19  C   UNL     1      43.771 -16.548   5.720  1.00  0.00     0.035 A 
HETATM   20  C   UNL     1      44.110 -17.895   5.890  1.00  0.00     0.070 A 
HETATM   21 CL   UNL     1      44.826 -18.367   7.387  1.00  0.00    -0.081 Cl
HETATM   22  C   UNL     1      43.867 -18.821   4.872  1.00  0.00     0.123 A 
HETATM   23  C   UNL     1      43.272 -18.385   3.686  1.00  0.00     0.104 A 
HETATM   24  O   UNL     1      44.101 -20.147   5.116  1.00  0.00    -0.346 OA
HETATM   25  O   UNL     1      42.916 -19.230   2.670  1.00  0.00    -0.348 OA
HETATM   26  C   UNL     1      42.899 -17.045   3.526  1.00  0.00     0.048 A 
HETATM   27  C   UNL     1      44.040 -19.906   2.097  1.00  0.00     0.178 C 
HETATM   28  C   UNL     1      44.465 -21.117   2.911  1.00  0.00     0.053 C 
HETATM   29  C   UNL     1      45.081 -20.700   4.237  1.00  0.00     0.178 C 
ENDBRANCH  17  18
ENDBRANCH   2  17
TORSDOF 4
ENDMDL
