MODEL 1
REMARK VINA RESULT:      -8.8      0.000      0.000
REMARK  5 active torsions:
REMARK  status: ('A' for Active; 'I' for Inactive)
REMARK    1  A    between atoms: C_5  and  C_6 
REMARK    2  A    between atoms: C_9  and  O_10 
REMARK    3  A    between atoms: N_14  and  C_15 
REMARK    4  A    between atoms: C_15  and  C_16 
REMARK       I    between atoms: C_16  and  N_17 
REMARK    5  A    between atoms: N_17  and  C_18 
ROOT
HETATM    1  C   UNL     1      43.564 -20.943   7.763  1.00  0.00     0.156 C 
HETATM    2  N   UNL     1      43.833 -20.200   6.555  1.00  0.00    -0.346 N 
HETATM    3  C   UNL     1      43.839 -18.853   6.433  1.00  0.00     0.113 A 
HETATM    4  C   UNL     1      44.064 -18.510   5.128  1.00  0.00     0.014 A 
HETATM    5  C   UNL     1      44.078 -17.033   4.973  1.00  0.00     0.158 A 
HETATM    6  N   UNL     1      43.928 -16.633   6.397  1.00  0.00    -0.325 N 
HETATM    7  C   UNL     1      43.770 -17.709   7.275  1.00  0.00     0.272 A 
HETATM    8  O   UNL     1      43.733 -17.672   8.492  1.00  0.00    -0.266 OA
HETATM    9  C   UNL     1      44.330 -19.688   4.408  1.00  0.00     0.002 A 
HETATM   10  C   UNL     1      44.177 -20.749   5.324  1.00  0.00     0.045 A 
HETATM   11  C   UNL     1      44.717 -19.978   3.086  1.00  0.00     0.014 A 
HETATM   12  C   UNL     1      44.937 -21.306   2.710  1.00  0.00     0.001 A 
HETATM   13  C   UNL     1      44.771 -22.342   3.626  1.00  0.00     0.002 A 
HETATM   14  C   UNL     1      44.385 -22.084   4.945  1.00  0.00     0.030 A 
ENDROOT
BRANCH   6  15
HETATM   15  C   UNL     1      44.326 -15.307   6.847  1.00  0.00     0.229 C 
BRANCH  15  16
HETATM   16  C   UNL     1      43.837 -14.203   5.895  1.00  0.00     0.235 C 
HETATM   17  N   UNL     1      42.567 -13.733   6.159  1.00  0.00    -0.355 N 
HETATM   18  H   UNL     1      41.979 -14.307   6.751  1.00  0.00     0.162 HD
HETATM   19  O   UNL     1      44.508 -13.825   4.937  1.00  0.00    -0.272 OA
BRANCH  17  20
HETATM   20  C   UNL     1      41.935 -12.656   5.410  1.00  0.00     0.084 C 
HETATM   21  C   UNL     1      40.847 -13.187   4.469  1.00  0.00     0.025 C 
HETATM   22  C   UNL     1      39.589 -13.639   5.210  1.00  0.00     0.002 C 
HETATM   23  C   UNL     1      39.056 -12.554   6.142  1.00  0.00     0.000 C 
HETATM   24  C   UNL     1      40.126 -12.077   7.116  1.00  0.00     0.002 C 
HETATM   25  C   UNL     1      41.381 -11.605   6.381  1.00  0.00     0.025 C 
ENDBRANCH  17  20
ENDBRANCH  15  16
ENDBRANCH   6  15
BRANCH   5  26
HETATM   26  C   UNL     1      42.890 -16.684   4.101  1.00  0.00    -0.030 A 
HETATM   27  C   UNL     1      41.571 -17.016   4.449  1.00  0.00     0.012 A 
HETATM   28  C   UNL     1      40.506 -16.710   3.598  1.00  0.00     0.037 A 
HETATM   29  C   UNL     1      40.727 -16.072   2.378  1.00  0.00     0.068 A 
HETATM   30  C   UNL     1      42.029 -15.733   2.018  1.00  0.00     0.037 A 
HETATM   31  C   UNL     1      43.099 -16.032   2.873  1.00  0.00     0.012 A 
BRANCH  29  32
HETATM   32  O   UNL     1      39.599 -15.847   1.638  1.00  0.00    -0.356 OA
HETATM   33  C   UNL     1      39.213 -14.493   1.446  1.00  0.00     0.210 C 
ENDBRANCH  29  32
ENDBRANCH   5  26
TORSDOF 5
ENDMDL
MODEL 2
REMARK VINA RESULT:      -8.8      2.568      3.374
REMARK  5 active torsions:
REMARK  status: ('A' for Active; 'I' for Inactive)
REMARK    1  A    between atoms: C_5  and  C_6 
REMARK    2  A    between atoms: C_9  and  O_10 
REMARK    3  A    between atoms: N_14  and  C_15 
REMARK    4  A    between atoms: C_15  and  C_16 
REMARK       I    between atoms: C_16  and  N_17 
REMARK    5  A    between atoms: N_17  and  C_18 
ROOT
HETATM    1  C   UNL     1      43.816 -19.188   7.756  1.00  0.00     0.156 C 
HETATM    2  N   UNL     1      43.819 -18.525   6.474  1.00  0.00    -0.346 N 
HETATM    3  C   UNL     1      43.586 -17.211   6.256  1.00  0.00     0.113 A 
HETATM    4  C   UNL     1      43.602 -16.957   4.912  1.00  0.00     0.014 A 
HETATM    5  C   UNL     1      43.352 -15.517   4.652  1.00  0.00     0.158 A 
HETATM    6  N   UNL     1      43.299 -15.017   6.051  1.00  0.00    -0.325 N 
HETATM    7  C   UNL     1      43.423 -16.021   7.016  1.00  0.00     0.272 A 
HETATM    8  O   UNL     1      43.518 -15.879   8.223  1.00  0.00    -0.266 OA
HETATM    9  C   UNL     1      43.978 -18.139   4.250  1.00  0.00     0.002 A 
HETATM   10  C   UNL     1      44.108 -19.123   5.252  1.00  0.00     0.045 A 
HETATM   11  C   UNL     1      44.257 -18.483   2.914  1.00  0.00     0.014 A 
HETATM   12  C   UNL     1      44.651 -19.789   2.609  1.00  0.00     0.001 A 
HETATM   13  C   UNL     1      44.765 -20.751   3.611  1.00  0.00     0.002 A 
HETATM   14  C   UNL     1      44.492 -20.438   4.946  1.00  0.00     0.030 A 
ENDROOT
BRANCH   6  15
HETATM   15  C   UNL     1      43.518 -13.610   6.351  1.00  0.00     0.229 C 
BRANCH  15  16
HETATM   16  C   UNL     1      44.685 -13.402   7.331  1.00  0.00     0.235 C 
HETATM   17  N   UNL     1      44.333 -12.825   8.534  1.00  0.00    -0.355 N 
HETATM   18  H   UNL     1      43.437 -12.356   8.574  1.00  0.00     0.162 HD
HETATM   19  O   UNL     1      45.845 -13.669   7.028  1.00  0.00    -0.272 OA
BRANCH  17  20
HETATM   20  C   UNL     1      45.276 -12.586   9.618  1.00  0.00     0.084 C 
HETATM   21  C   UNL     1      45.751 -11.128   9.641  1.00  0.00     0.025 C 
HETATM   22  C   UNL     1      44.675 -10.160  10.134  1.00  0.00     0.002 C 
HETATM   23  C   UNL     1      44.095 -10.591  11.479  1.00  0.00     0.000 C 
HETATM   24  C   UNL     1      43.567 -12.021  11.429  1.00  0.00     0.002 C 
HETATM   25  C   UNL     1      44.644 -12.997  10.955  1.00  0.00     0.025 C 
ENDBRANCH  17  20
ENDBRANCH  15  16
ENDBRANCH   6  15
BRANCH   5  26
HETATM   26  C   UNL     1      42.031 -15.439   3.914  1.00  0.00    -0.030 A 
HETATM   27  C   UNL     1      41.838 -16.010   2.646  1.00  0.00     0.012 A 
HETATM   28  C   UNL     1      40.615 -15.883   1.981  1.00  0.00     0.037 A 
HETATM   29  C   UNL     1      39.557 -15.181   2.559  1.00  0.00     0.068 A 
HETATM   30  C   UNL     1      39.732 -14.612   3.818  1.00  0.00     0.037 A 
HETATM   31  C   UNL     1      40.955 -14.743   4.490  1.00  0.00     0.012 A 
BRANCH  29  32
HETATM   32  O   UNL     1      38.426 -15.122   1.794  1.00  0.00    -0.356 OA
HETATM   33  C   UNL     1      38.188 -13.912   1.087  1.00  0.00     0.210 C 
ENDBRANCH  29  32
ENDBRANCH   5  26
TORSDOF 5
ENDMDL
MODEL 3
REMARK VINA RESULT:      -8.7      2.526      7.443
REMARK  5 active torsions:
REMARK  status: ('A' for Active; 'I' for Inactive)
REMARK    1  A    between atoms: C_5  and  C_6 
REMARK    2  A    between atoms: C_9  and  O_10 
REMARK    3  A    between atoms: N_14  and  C_15 
REMARK    4  A    between atoms: C_15  and  C_16 
REMARK       I    between atoms: C_16  and  N_17 
REMARK    5  A    between atoms: N_17  and  C_18 
ROOT
HETATM    1  C   UNL     1      40.908 -10.338   8.371  1.00  0.00     0.156 C 
HETATM    2  N   UNL     1      42.035 -11.172   8.029  1.00  0.00    -0.346 N 
HETATM    3  C   UNL     1      42.154 -11.932   6.917  1.00  0.00     0.113 A 
HETATM    4  C   UNL     1      43.325 -12.639   6.966  1.00  0.00     0.014 A 
HETATM    5  C   UNL     1      43.477 -13.479   5.751  1.00  0.00     0.158 A 
HETATM    6  N   UNL     1      42.270 -13.045   4.997  1.00  0.00    -0.325 N 
HETATM    7  C   UNL     1      41.467 -12.135   5.689  1.00  0.00     0.272 A 
HETATM    8  O   UNL     1      40.487 -11.544   5.269  1.00  0.00    -0.266 OA
HETATM    9  C   UNL     1      44.038 -12.222   8.104  1.00  0.00     0.002 A 
HETATM   10  C   UNL     1      43.206 -11.296   8.768  1.00  0.00     0.045 A 
HETATM   11  C   UNL     1      45.312 -12.499   8.634  1.00  0.00     0.014 A 
HETATM   12  C   UNL     1      45.723 -11.855   9.805  1.00  0.00     0.001 A 
HETATM   13  C   UNL     1      44.885 -10.951  10.452  1.00  0.00     0.002 A 
HETATM   14  C   UNL     1      43.613 -10.659   9.950  1.00  0.00     0.030 A 
ENDROOT
BRANCH   6  15
HETATM   15  C   UNL     1      42.182 -13.231   3.557  1.00  0.00     0.229 C 
BRANCH  15  16
HETATM   16  C   UNL     1      41.441 -14.527   3.184  1.00  0.00     0.235 C 
HETATM   17  N   UNL     1      42.258 -15.567   2.791  1.00  0.00    -0.355 N 
HETATM   18  H   UNL     1      43.207 -15.331   2.527  1.00  0.00     0.162 HD
HETATM   19  O   UNL     1      40.215 -14.596   3.176  1.00  0.00    -0.272 OA
BRANCH  17  20
HETATM   20  C   UNL     1      41.764 -16.892   2.444  1.00  0.00     0.084 C 
HETATM   21  C   UNL     1      42.239 -17.324   1.052  1.00  0.00     0.025 C 
HETATM   22  C   UNL     1      43.725 -17.682   1.015  1.00  0.00     0.002 C 
HETATM   23  C   UNL     1      44.090 -18.707   2.085  1.00  0.00     0.000 C 
HETATM   24  C   UNL     1      43.671 -18.241   3.475  1.00  0.00     0.002 C 
HETATM   25  C   UNL     1      42.182 -17.900   3.524  1.00  0.00     0.025 C 
ENDBRANCH  17  20
ENDBRANCH  15  16
ENDBRANCH   6  15
BRANCH   5  26
HETATM   26  C   UNL     1      43.434 -14.919   6.218  1.00  0.00    -0.030 A 
HETATM   27  C   UNL     1      42.231 -15.601   6.460  1.00  0.00     0.012 A 
HETATM   28  C   UNL     1      42.235 -16.917   6.928  1.00  0.00     0.037 A 
HETATM   29  C   UNL     1      43.435 -17.586   7.172  1.00  0.00     0.068 A 
HETATM   30  C   UNL     1      44.637 -16.924   6.934  1.00  0.00     0.037 A 
HETATM   31  C   UNL     1      44.636 -15.605   6.458  1.00  0.00     0.012 A 
BRANCH  29  32
HETATM   32  O   UNL     1      43.293 -18.862   7.642  1.00  0.00    -0.356 OA
HETATM   33  C   UNL     1      43.754 -19.912   6.803  1.00  0.00     0.210 C 
ENDBRANCH  29  32
ENDBRANCH   5  26
TORSDOF 5
ENDMDL
MODEL 4
REMARK VINA RESULT:      -8.7      3.059      6.820
REMARK  5 active torsions:
REMARK  status: ('A' for Active; 'I' for Inactive)
REMARK    1  A    between atoms: C_5  and  C_6 
REMARK    2  A    between atoms: C_9  and  O_10 
REMARK    3  A    between atoms: N_14  and  C_15 
REMARK    4  A    between atoms: C_15  and  C_16 
REMARK       I    between atoms: C_16  and  N_17 
REMARK    5  A    between atoms: N_17  and  C_18 
ROOT
HETATM    1  C   UNL     1      42.472 -11.481   0.036  1.00  0.00     0.156 C 
HETATM    2  N   UNL     1      41.990 -12.842   0.051  1.00  0.00    -0.346 N 
HETATM    3  C   UNL     1      41.673 -13.562   1.151  1.00  0.00     0.113 A 
HETATM    4  C   UNL     1      41.320 -14.832   0.784  1.00  0.00     0.014 A 
HETATM    5  C   UNL     1      40.964 -15.639   1.979  1.00  0.00     0.158 A 
HETATM    6  N   UNL     1      41.078 -14.591   3.029  1.00  0.00    -0.325 N 
HETATM    7  C   UNL     1      41.514 -13.353   2.548  1.00  0.00     0.272 A 
HETATM    8  O   UNL     1      41.593 -12.306   3.167  1.00  0.00    -0.266 OA
HETATM    9  C   UNL     1      41.300 -14.889  -0.621  1.00  0.00     0.002 A 
HETATM   10  C   UNL     1      41.730 -13.623  -1.070  1.00  0.00     0.045 A 
HETATM   11  C   UNL     1      40.934 -15.862  -1.569  1.00  0.00     0.014 A 
HETATM   12  C   UNL     1      41.007 -15.555  -2.931  1.00  0.00     0.001 A 
HETATM   13  C   UNL     1      41.443 -14.303  -3.356  1.00  0.00     0.002 A 
HETATM   14  C   UNL     1      41.816 -13.318  -2.437  1.00  0.00     0.030 A 
ENDROOT
BRANCH   6  15
HETATM   15  C   UNL     1      40.408 -14.743   4.311  1.00  0.00     0.229 C 
BRANCH  15  16
HETATM   16  C   UNL     1      41.397 -14.707   5.489  1.00  0.00     0.235 C 
HETATM   17  N   UNL     1      41.867 -15.942   5.885  1.00  0.00    -0.355 N 
HETATM   18  H   UNL     1      41.348 -16.754   5.574  1.00  0.00     0.162 HD
HETATM   19  O   UNL     1      41.684 -13.662   6.066  1.00  0.00    -0.272 OA
BRANCH  17  20
HETATM   20  C   UNL     1      42.847 -16.127   6.947  1.00  0.00     0.084 C 
HETATM   21  C   UNL     1      42.691 -17.493   7.626  1.00  0.00     0.025 C 
HETATM   22  C   UNL     1      43.170 -18.651   6.750  1.00  0.00     0.002 C 
HETATM   23  C   UNL     1      44.590 -18.428   6.238  1.00  0.00     0.000 C 
HETATM   24  C   UNL     1      44.721 -17.096   5.509  1.00  0.00     0.002 C 
HETATM   25  C   UNL     1      44.262 -15.931   6.386  1.00  0.00     0.025 C 
ENDBRANCH  17  20
ENDBRANCH  15  16
ENDBRANCH   6  15
BRANCH   5  26
HETATM   26  C   UNL     1      42.003 -16.736   2.079  1.00  0.00    -0.030 A 
HETATM   27  C   UNL     1      41.829 -17.874   2.882  1.00  0.00     0.012 A 
HETATM   28  C   UNL     1      42.828 -18.845   2.978  1.00  0.00     0.037 A 
HETATM   29  C   UNL     1      44.029 -18.706   2.281  1.00  0.00     0.068 A 
HETATM   30  C   UNL     1      44.217 -17.584   1.477  1.00  0.00     0.037 A 
HETATM   31  C   UNL     1      43.213 -16.611   1.374  1.00  0.00     0.012 A 
BRANCH  29  32
HETATM   32  O   UNL     1      44.924 -19.720   2.476  1.00  0.00    -0.356 OA
HETATM   33  C   UNL     1      44.524 -20.776   3.339  1.00  0.00     0.210 C 
ENDBRANCH  29  32
ENDBRANCH   5  26
TORSDOF 5
ENDMDL
MODEL 5
REMARK VINA RESULT:      -8.4      3.004      6.570
REMARK  5 active torsions:
REMARK  status: ('A' for Active; 'I' for Inactive)
REMARK    1  A    between atoms: C_5  and  C_6 
REMARK    2  A    between atoms: C_9  and  O_10 
REMARK    3  A    between atoms: N_14  and  C_15 
REMARK    4  A    between atoms: C_15  and  C_16 
REMARK       I    between atoms: C_16  and  N_17 
REMARK    5  A    between atoms: N_17  and  C_18 
ROOT
HETATM    1  C   UNL     1      43.967 -17.888   2.251  1.00  0.00     0.156 C 
HETATM    2  N   UNL     1      43.072 -17.349   3.246  1.00  0.00    -0.346 N 
HETATM    3  C   UNL     1      41.983 -16.584   3.008  1.00  0.00     0.113 A 
HETATM    4  C   UNL     1      41.419 -16.202   4.194  1.00  0.00     0.014 A 
HETATM    5  C   UNL     1      40.218 -15.362   3.953  1.00  0.00     0.158 A 
HETATM    6  N   UNL     1      40.160 -15.432   2.469  1.00  0.00    -0.325 N 
HETATM    7  C   UNL     1      41.216 -16.145   1.894  1.00  0.00     0.272 A 
HETATM    8  O   UNL     1      41.354 -16.443   0.720  1.00  0.00    -0.266 OA
HETATM    9  C   UNL     1      42.112 -16.849   5.233  1.00  0.00     0.002 A 
HETATM   10  C   UNL     1      43.156 -17.569   4.617  1.00  0.00     0.045 A 
HETATM   11  C   UNL     1      41.952 -16.935   6.629  1.00  0.00     0.014 A 
HETATM   12  C   UNL     1      42.833 -17.726   7.373  1.00  0.00     0.001 A 
HETATM   13  C   UNL     1      43.865 -18.422   6.748  1.00  0.00     0.002 A 
HETATM   14  C   UNL     1      44.048 -18.353   5.364  1.00  0.00     0.030 A 
ENDROOT
BRANCH   6  15
HETATM   15  C   UNL     1      38.924 -15.150   1.755  1.00  0.00     0.229 C 
BRANCH  15  16
HETATM   16  C   UNL     1      39.132 -14.143   0.612  1.00  0.00     0.235 C 
HETATM   17  N   UNL     1      39.239 -14.707  -0.642  1.00  0.00    -0.355 N 
HETATM   18  H   UNL     1      39.438 -15.699  -0.685  1.00  0.00     0.162 HD
HETATM   19  O   UNL     1      39.260 -12.939   0.820  1.00  0.00    -0.272 OA
BRANCH  17  20
HETATM   20  C   UNL     1      39.391 -13.930  -1.864  1.00  0.00     0.084 C 
HETATM   21  C   UNL     1      40.432 -14.552  -2.803  1.00  0.00     0.025 C 
HETATM   22  C   UNL     1      39.937 -15.832  -3.476  1.00  0.00     0.002 C 
HETATM   23  C   UNL     1      38.595 -15.626  -4.172  1.00  0.00     0.000 C 
HETATM   24  C   UNL     1      37.547 -15.067  -3.216  1.00  0.00     0.002 C 
HETATM   25  C   UNL     1      38.028 -13.776  -2.554  1.00  0.00     0.025 C 
ENDBRANCH  17  20
ENDBRANCH  15  16
ENDBRANCH   6  15
BRANCH   5  26
HETATM   26  C   UNL     1      40.542 -13.987   4.499  1.00  0.00    -0.030 A 
HETATM   27  C   UNL     1      41.374 -13.081   3.823  1.00  0.00     0.012 A 
HETATM   28  C   UNL     1      41.680 -11.836   4.379  1.00  0.00     0.037 A 
HETATM   29  C   UNL     1      41.170 -11.464   5.623  1.00  0.00     0.068 A 
HETATM   30  C   UNL     1      40.340 -12.350   6.305  1.00  0.00     0.037 A 
HETATM   31  C   UNL     1      40.027 -13.598   5.747  1.00  0.00     0.012 A 
BRANCH  29  32
HETATM   32  O   UNL     1      41.561 -10.227   6.054  1.00  0.00    -0.356 OA
HETATM   33  C   UNL     1      41.646 -10.031   7.459  1.00  0.00     0.210 C 
ENDBRANCH  29  32
ENDBRANCH   5  26
TORSDOF 5
ENDMDL
MODEL 6
REMARK VINA RESULT:      -8.3      2.479      5.407
REMARK  5 active torsions:
REMARK  status: ('A' for Active; 'I' for Inactive)
REMARK    1  A    between atoms: C_5  and  C_6 
REMARK    2  A    between atoms: C_9  and  O_10 
REMARK    3  A    between atoms: N_14  and  C_15 
REMARK    4  A    between atoms: C_15  and  C_16 
REMARK       I    between atoms: C_16  and  N_17 
REMARK    5  A    between atoms: N_17  and  C_18 
ROOT
HETATM    1  C   UNL     1      44.043 -19.735   1.419  1.00  0.00     0.156 C 
HETATM    2  N   UNL     1      43.643 -19.304   2.738  1.00  0.00    -0.346 N 
HETATM    3  C   UNL     1      42.890 -18.220   3.027  1.00  0.00     0.113 A 
HETATM    4  C   UNL     1      42.773 -18.088   4.384  1.00  0.00     0.014 A 
HETATM    5  C   UNL     1      41.946 -16.903   4.723  1.00  0.00     0.158 A 
HETATM    6  N   UNL     1      41.551 -16.476   3.354  1.00  0.00    -0.325 N 
HETATM    7  C   UNL     1      42.120 -17.245   2.335  1.00  0.00     0.272 A 
HETATM    8  O   UNL     1      41.886 -17.180   1.141  1.00  0.00    -0.266 OA
HETATM    9  C   UNL     1      43.382 -19.206   4.983  1.00  0.00     0.002 A 
HETATM   10  C   UNL     1      43.930 -19.964   3.928  1.00  0.00     0.045 A 
HETATM   11  C   UNL     1      43.503 -19.682   6.302  1.00  0.00     0.014 A 
HETATM   12  C   UNL     1      44.166 -20.889   6.538  1.00  0.00     0.001 A 
HETATM   13  C   UNL     1      44.710 -21.620   5.484  1.00  0.00     0.002 A 
HETATM   14  C   UNL     1      44.607 -21.171   4.165  1.00  0.00     0.030 A 
ENDROOT
BRANCH   6  15
HETATM   15  C   UNL     1      40.385 -15.632   3.142  1.00  0.00     0.229 C 
BRANCH  15  16
HETATM   16  C   UNL     1      40.712 -14.399   2.282  1.00  0.00     0.235 C 
HETATM   17  N   UNL     1      40.400 -14.530   0.944  1.00  0.00    -0.355 N 
HETATM   18  H   UNL     1      40.246 -15.469   0.597  1.00  0.00     0.162 HD
HETATM   19  O   UNL     1      41.268 -13.409   2.748  1.00  0.00    -0.272 OA
BRANCH  17  20
HETATM   20  C   UNL     1      40.583 -13.465  -0.032  1.00  0.00     0.084 C 
HETATM   21  C   UNL     1      41.429 -13.931  -1.223  1.00  0.00     0.025 C 
HETATM   22  C   UNL     1      40.675 -14.885  -2.151  1.00  0.00     0.002 C 
HETATM   23  C   UNL     1      39.335 -14.305  -2.596  1.00  0.00     0.000 C 
HETATM   24  C   UNL     1      38.474 -13.903  -1.404  1.00  0.00     0.002 C 
HETATM   25  C   UNL     1      39.215 -12.934  -0.483  1.00  0.00     0.025 C 
ENDBRANCH  17  20
ENDBRANCH  15  16
ENDBRANCH   6  15
BRANCH   5  26
HETATM   26  C   UNL     1      42.862 -15.932   5.438  1.00  0.00    -0.030 A 
HETATM   27  C   UNL     1      43.460 -14.839   4.791  1.00  0.00     0.012 A 
HETATM   28  C   UNL     1      44.331 -13.988   5.476  1.00  0.00     0.037 A 
HETATM   29  C   UNL     1      44.633 -14.207   6.820  1.00  0.00     0.068 A 
HETATM   30  C   UNL     1      44.046 -15.285   7.478  1.00  0.00     0.037 A 
HETATM   31  C   UNL     1      43.167 -16.137   6.794  1.00  0.00     0.012 A 
BRANCH  29  32
HETATM   32  O   UNL     1      45.510 -13.309   7.363  1.00  0.00    -0.356 OA
HETATM   33  C   UNL     1      45.112 -12.665   8.565  1.00  0.00     0.210 C 
ENDBRANCH  29  32
ENDBRANCH   5  26
TORSDOF 5
ENDMDL
MODEL 7
REMARK VINA RESULT:      -7.8      2.570      5.294
REMARK  5 active torsions:
REMARK  status: ('A' for Active; 'I' for Inactive)
REMARK    1  A    between atoms: C_5  and  C_6 
REMARK    2  A    between atoms: C_9  and  O_10 
REMARK    3  A    between atoms: N_14  and  C_15 
REMARK    4  A    between atoms: C_15  and  C_16 
REMARK       I    between atoms: C_16  and  N_17 
REMARK    5  A    between atoms: N_17  and  C_18 
ROOT
HETATM    1  C   UNL     1      44.037 -17.770   1.265  1.00  0.00     0.156 C 
HETATM    2  N   UNL     1      43.223 -17.495   2.425  1.00  0.00    -0.346 N 
HETATM    3  C   UNL     1      42.098 -16.744   2.449  1.00  0.00     0.113 A 
HETATM    4  C   UNL     1      41.636 -16.648   3.733  1.00  0.00     0.014 A 
HETATM    5  C   UNL     1      40.398 -15.829   3.780  1.00  0.00     0.158 A 
HETATM    6  N   UNL     1      40.207 -15.584   2.326  1.00  0.00    -0.325 N 
HETATM    7  C   UNL     1      41.222 -16.113   1.524  1.00  0.00     0.272 A 
HETATM    8  O   UNL     1      41.260 -16.148   0.307  1.00  0.00    -0.266 OA
HETATM    9  C   UNL     1      42.436 -17.471   4.546  1.00  0.00     0.002 A 
HETATM   10  C   UNL     1      43.438 -17.997   3.704  1.00  0.00     0.045 A 
HETATM   11  C   UNL     1      42.407 -17.859   5.898  1.00  0.00     0.014 A 
HETATM   12  C   UNL     1      43.372 -18.750   6.378  1.00  0.00     0.001 A 
HETATM   13  C   UNL     1      44.359 -19.252   5.533  1.00  0.00     0.002 A 
HETATM   14  C   UNL     1      44.413 -18.883   4.186  1.00  0.00     0.030 A 
ENDROOT
BRANCH   6  15
HETATM   15  C   UNL     1      38.904 -15.211   1.797  1.00  0.00     0.229 C 
BRANCH  15  16
HETATM   16  C   UNL     1      38.916 -13.810   1.163  1.00  0.00     0.235 C 
HETATM   17  N   UNL     1      38.677 -12.775   2.043  1.00  0.00    -0.355 N 
HETATM   18  H   UNL     1      38.262 -13.017   2.935  1.00  0.00     0.162 HD
HETATM   19  O   UNL     1      39.062 -13.644  -0.046  1.00  0.00    -0.272 OA
BRANCH  17  20
HETATM   20  C   UNL     1      38.693 -11.371   1.659  1.00  0.00     0.084 C 
HETATM   21  C   UNL     1      37.784 -10.528   2.561  1.00  0.00     0.025 C 
HETATM   22  C   UNL     1      38.358 -10.327   3.963  1.00  0.00     0.002 C 
HETATM   23  C   UNL     1      39.783  -9.780   3.921  1.00  0.00     0.000 C 
HETATM   24  C   UNL     1      40.696 -10.659   3.074  1.00  0.00     0.002 C 
HETATM   25  C   UNL     1      40.137 -10.848   1.663  1.00  0.00     0.025 C 
ENDBRANCH  17  20
ENDBRANCH  15  16
ENDBRANCH   6  15
BRANCH   5  26
HETATM   26  C   UNL     1      40.737 -14.589   4.581  1.00  0.00    -0.030 A 
HETATM   27  C   UNL     1      42.028 -14.039   4.615  1.00  0.00     0.012 A 
HETATM   28  C   UNL     1      42.309 -12.915   5.397  1.00  0.00     0.037 A 
HETATM   29  C   UNL     1      41.313 -12.314   6.168  1.00  0.00     0.068 A 
HETATM   30  C   UNL     1      40.026 -12.846   6.143  1.00  0.00     0.037 A 
HETATM   31  C   UNL     1      39.740 -13.969   5.354  1.00  0.00     0.012 A 
BRANCH  29  32
HETATM   32  O   UNL     1      41.728 -11.234   6.896  1.00  0.00    -0.356 OA
HETATM   33  C   UNL     1      40.794 -10.676   7.809  1.00  0.00     0.210 C 
ENDBRANCH  29  32
ENDBRANCH   5  26
TORSDOF 5
ENDMDL
MODEL 8
REMARK VINA RESULT:      -7.7      4.037      8.256
REMARK  5 active torsions:
REMARK  status: ('A' for Active; 'I' for Inactive)
REMARK    1  A    between atoms: C_5  and  C_6 
REMARK    2  A    between atoms: C_9  and  O_10 
REMARK    3  A    between atoms: N_14  and  C_15 
REMARK    4  A    between atoms: C_15  and  C_16 
REMARK       I    between atoms: C_16  and  N_17 
REMARK    5  A    between atoms: N_17  and  C_18 
ROOT
HETATM    1  C   UNL     1      40.286 -13.019  -3.794  1.00  0.00     0.156 C 
HETATM    2  N   UNL     1      41.068 -12.798  -2.600  1.00  0.00    -0.346 N 
HETATM    3  C   UNL     1      41.251 -13.681  -1.593  1.00  0.00     0.113 A 
HETATM    4  C   UNL     1      41.990 -13.101  -0.599  1.00  0.00     0.014 A 
HETATM    5  C   UNL     1      42.206 -14.057   0.516  1.00  0.00     0.158 A 
HETATM    6  N   UNL     1      41.562 -15.265  -0.065  1.00  0.00    -0.325 N 
HETATM    7  C   UNL     1      40.976 -15.049  -1.316  1.00  0.00     0.272 A 
HETATM    8  O   UNL     1      40.480 -15.881  -2.055  1.00  0.00    -0.266 OA
HETATM    9  C   UNL     1      42.396 -11.830  -1.045  1.00  0.00     0.002 A 
HETATM   10  C   UNL     1      41.801 -11.652  -2.312  1.00  0.00     0.045 A 
HETATM   11  C   UNL     1      43.229 -10.818  -0.533  1.00  0.00     0.014 A 
HETATM   12  C   UNL     1      43.445  -9.660  -1.286  1.00  0.00     0.001 A 
HETATM   13  C   UNL     1      42.842  -9.498  -2.531  1.00  0.00     0.002 A 
HETATM   14  C   UNL     1      42.007 -10.485  -3.063  1.00  0.00     0.030 A 
ENDROOT
BRANCH   6  15
HETATM   15  C   UNL     1      41.884 -16.595   0.430  1.00  0.00     0.229 C 
BRANCH  15  16
HETATM   16  C   UNL     1      41.193 -16.896   1.770  1.00  0.00     0.235 C 
HETATM   17  N   UNL     1      42.053 -17.103   2.829  1.00  0.00    -0.355 N 
HETATM   18  H   UNL     1      43.020 -17.303   2.604  1.00  0.00     0.162 HD
HETATM   19  O   UNL     1      39.974 -17.009   1.863  1.00  0.00    -0.272 OA
BRANCH  17  20
HETATM   20  C   UNL     1      41.606 -17.355   4.192  1.00  0.00     0.084 C 
HETATM   21  C   UNL     1      42.519 -18.355   4.910  1.00  0.00     0.025 C 
HETATM   22  C   UNL     1      43.877 -17.759   5.284  1.00  0.00     0.002 C 
HETATM   23  C   UNL     1      43.730 -16.457   6.068  1.00  0.00     0.000 C 
HETATM   24  C   UNL     1      42.873 -15.445   5.318  1.00  0.00     0.002 C 
HETATM   25  C   UNL     1      41.506 -16.028   4.958  1.00  0.00     0.025 C 
ENDBRANCH  17  20
ENDBRANCH  15  16
ENDBRANCH   6  15
BRANCH   5  26
HETATM   26  C   UNL     1      41.482 -13.483   1.716  1.00  0.00    -0.030 A 
HETATM   27  C   UNL     1      40.084 -13.506   1.840  1.00  0.00     0.012 A 
HETATM   28  C   UNL     1      39.452 -12.931   2.945  1.00  0.00     0.037 A 
HETATM   29  C   UNL     1      40.195 -12.315   3.953  1.00  0.00     0.068 A 
HETATM   30  C   UNL     1      41.583 -12.287   3.847  1.00  0.00     0.037 A 
HETATM   31  C   UNL     1      42.220 -12.869   2.742  1.00  0.00     0.012 A 
BRANCH  29  32
HETATM   32  O   UNL     1      39.449 -11.781   4.967  1.00  0.00    -0.356 OA
HETATM   33  C   UNL     1      39.112 -12.645   6.043  1.00  0.00     0.210 C 
ENDBRANCH  29  32
ENDBRANCH   5  26
TORSDOF 5
ENDMDL
MODEL 9
REMARK VINA RESULT:      -7.5      1.913      2.788
REMARK  5 active torsions:
REMARK  status: ('A' for Active; 'I' for Inactive)
REMARK    1  A    between atoms: C_5  and  C_6 
REMARK    2  A    between atoms: C_9  and  O_10 
REMARK    3  A    between atoms: N_14  and  C_15 
REMARK    4  A    between atoms: C_15  and  C_16 
REMARK       I    between atoms: C_16  and  N_17 
REMARK    5  A    between atoms: N_17  and  C_18 
ROOT
HETATM    1  C   UNL     1      43.519 -19.069   6.572  1.00  0.00     0.156 C 
HETATM    2  N   UNL     1      43.545 -18.414   5.286  1.00  0.00    -0.346 N 
HETATM    3  C   UNL     1      43.407 -17.087   5.066  1.00  0.00     0.113 A 
HETATM    4  C   UNL     1      43.413 -16.840   3.721  1.00  0.00     0.014 A 
HETATM    5  C   UNL     1      43.266 -15.386   3.458  1.00  0.00     0.158 A 
HETATM    6  N   UNL     1      43.281 -14.878   4.855  1.00  0.00    -0.325 N 
HETATM    7  C   UNL     1      43.350 -15.884   5.823  1.00  0.00     0.272 A 
HETATM    8  O   UNL     1      43.481 -15.745   7.026  1.00  0.00    -0.266 OA
HETATM    9  C   UNL     1      43.684 -18.050   3.058  1.00  0.00     0.002 A 
HETATM   10  C   UNL     1      43.762 -19.037   4.063  1.00  0.00     0.045 A 
HETATM   11  C   UNL     1      43.908 -18.420   1.718  1.00  0.00     0.014 A 
HETATM   12  C   UNL     1      44.196 -19.753   1.413  1.00  0.00     0.001 A 
HETATM   13  C   UNL     1      44.258 -20.716   2.417  1.00  0.00     0.002 A 
HETATM   14  C   UNL     1      44.039 -20.378   3.756  1.00  0.00     0.030 A 
ENDROOT
BRANCH   6  15
HETATM   15  C   UNL     1      43.612 -13.490   5.142  1.00  0.00     0.229 C 
BRANCH  15  16
HETATM   16  C   UNL     1      42.381 -12.682   5.586  1.00  0.00     0.235 C 
HETATM   17  N   UNL     1      41.493 -12.381   4.574  1.00  0.00    -0.355 N 
HETATM   18  H   UNL     1      41.831 -12.469   3.623  1.00  0.00     0.162 HD
HETATM   19  O   UNL     1      42.245 -12.283   6.740  1.00  0.00    -0.272 OA
BRANCH  17  20
HETATM   20  C   UNL     1      40.242 -11.667   4.787  1.00  0.00     0.084 C 
HETATM   21  C   UNL     1      40.477 -10.166   4.995  1.00  0.00     0.025 C 
HETATM   22  C   UNL     1      40.869  -9.441   3.707  1.00  0.00     0.002 C 
HETATM   23  C   UNL     1      39.878  -9.711   2.578  1.00  0.00     0.000 C 
HETATM   24  C   UNL     1      39.698 -11.205   2.335  1.00  0.00     0.002 C 
HETATM   25  C   UNL     1      39.286 -11.933   3.615  1.00  0.00     0.025 C 
ENDBRANCH  17  20
ENDBRANCH  15  16
ENDBRANCH   6  15
BRANCH   5  26
HETATM   26  C   UNL     1      41.940 -15.212   2.747  1.00  0.00    -0.030 A 
HETATM   27  C   UNL     1      41.815 -14.513   1.536  1.00  0.00     0.012 A 
HETATM   28  C   UNL     1      40.567 -14.342   0.932  1.00  0.00     0.037 A 
HETATM   29  C   UNL     1      39.412 -14.857   1.520  1.00  0.00     0.068 A 
HETATM   30  C   UNL     1      39.518 -15.556   2.720  1.00  0.00     0.037 A 
HETATM   31  C   UNL     1      40.770 -15.736   3.325  1.00  0.00     0.012 A 
BRANCH  29  32
HETATM   32  O   UNL     1      38.258 -14.604   0.831  1.00  0.00    -0.356 OA
HETATM   33  C   UNL     1      38.381 -13.892  -0.392  1.00  0.00     0.210 C 
ENDBRANCH  29  32
ENDBRANCH   5  26
TORSDOF 5
ENDMDL
MODEL 10
REMARK VINA RESULT:      -7.4      3.682      8.468
REMARK  5 active torsions:
REMARK  status: ('A' for Active; 'I' for Inactive)
REMARK    1  A    between atoms: C_5  and  C_6 
REMARK    2  A    between atoms: C_9  and  O_10 
REMARK    3  A    between atoms: N_14  and  C_15 
REMARK    4  A    between atoms: C_15  and  C_16 
REMARK       I    between atoms: C_16  and  N_17 
REMARK    5  A    between atoms: N_17  and  C_18 
ROOT
HETATM    1  C   UNL     1      38.750  -8.955   3.934  1.00  0.00     0.156 C 
HETATM    2  N   UNL     1      38.738 -10.157   3.136  1.00  0.00    -0.346 N 
HETATM    3  C   UNL     1      39.679 -11.128   3.145  1.00  0.00     0.113 A 
HETATM    4  C   UNL     1      39.370 -12.078   2.210  1.00  0.00     0.014 A 
HETATM    5  C   UNL     1      40.390 -13.157   2.207  1.00  0.00     0.158 A 
HETATM    6  N   UNL     1      41.237 -12.701   3.341  1.00  0.00    -0.325 N 
HETATM    7  C   UNL     1      40.831 -11.485   3.898  1.00  0.00     0.272 A 
HETATM    8  O   UNL     1      41.277 -10.942   4.894  1.00  0.00    -0.266 OA
HETATM    9  C   UNL     1      38.114 -11.758   1.664  1.00  0.00     0.002 A 
HETATM   10  C   UNL     1      37.730 -10.538   2.257  1.00  0.00     0.045 A 
HETATM   11  C   UNL     1      37.240 -12.381   0.754  1.00  0.00     0.014 A 
HETATM   12  C   UNL     1      36.015 -11.777   0.456  1.00  0.00     0.001 A 
HETATM   13  C   UNL     1      35.655 -10.567   1.045  1.00  0.00     0.002 A 
HETATM   14  C   UNL     1      36.505  -9.924   1.950  1.00  0.00     0.030 A 
ENDROOT
BRANCH   6  15
HETATM   15  C   UNL     1      42.114 -13.629   4.039  1.00  0.00     0.229 C 
BRANCH  15  16
HETATM   16  C   UNL     1      41.529 -15.050   4.090  1.00  0.00     0.235 C 
HETATM   17  N   UNL     1      42.078 -15.933   3.183  1.00  0.00    -0.355 N 
HETATM   18  H   UNL     1      42.598 -15.536   2.410  1.00  0.00     0.162 HD
HETATM   19  O   UNL     1      40.600 -15.346   4.837  1.00  0.00    -0.272 OA
BRANCH  17  20
HETATM   20  C   UNL     1      41.702 -17.338   3.098  1.00  0.00     0.084 C 
HETATM   21  C   UNL     1      41.864 -17.881   1.674  1.00  0.00     0.025 C 
HETATM   22  C   UNL     1      43.327 -18.072   1.273  1.00  0.00     0.002 C 
HETATM   23  C   UNL     1      44.091 -18.913   2.293  1.00  0.00     0.000 C 
HETATM   24  C   UNL     1      43.977 -18.331   3.697  1.00  0.00     0.002 C 
HETATM   25  C   UNL     1      42.516 -18.155   4.112  1.00  0.00     0.025 C 
ENDBRANCH  17  20
ENDBRANCH  15  16
ENDBRANCH   6  15
BRANCH   5  26
HETATM   26  C   UNL     1      41.074 -13.094   0.856  1.00  0.00    -0.030 A 
HETATM   27  C   UNL     1      41.909 -12.030   0.479  1.00  0.00     0.012 A 
HETATM   28  C   UNL     1      42.490 -11.990  -0.791  1.00  0.00     0.037 A 
HETATM   29  C   UNL     1      42.250 -13.004  -1.719  1.00  0.00     0.068 A 
HETATM   30  C   UNL     1      41.426 -14.068  -1.359  1.00  0.00     0.037 A 
HETATM   31  C   UNL     1      40.847 -14.114  -0.083  1.00  0.00     0.012 A 
BRANCH  29  32
HETATM   32  O   UNL     1      42.868 -12.831  -2.926  1.00  0.00    -0.356 OA
HETATM   33  C   UNL     1      42.299 -11.875  -3.810  1.00  0.00     0.210 C 
ENDBRANCH  29  32
ENDBRANCH   5  26
TORSDOF 5
ENDMDL
