MODEL 1
REMARK VINA RESULT:      -7.4      0.000      0.000
REMARK  5 active torsions:
REMARK  status: ('A' for Active; 'I' for Inactive)
REMARK    1  A    between atoms: C_8  and  N_9 
REMARK       I    between atoms: N_9  and  C_10 
REMARK    2  A    between atoms: C_10  and  C_11 
REMARK    3  A    between atoms: C_11  and  N_12 
REMARK    4  A    between atoms: N_12  and  C_13 
REMARK    5  A    between atoms: C_13  and  C_14 
ROOT
HETATM    1  C   UNL     1      42.405 -16.186   5.775  1.00  0.00     0.372 C 
ENDROOT
BRANCH   1   2
HETATM    2  C   UNL     1      42.501 -15.766   4.295  1.00  0.00     0.250 C 
HETATM    3  N   UNL     1      41.643 -16.491   3.491  1.00  0.00    -0.322 N 
HETATM    4  H   UNL     1      41.018 -17.144   3.943  1.00  0.00     0.169 HD
HETATM    5  O   UNL     1      43.218 -14.834   3.944  1.00  0.00    -0.271 OA
BRANCH   3   6
HETATM    6  C   UNL     1      41.473 -16.359   2.121  1.00  0.00     0.085 A 
HETATM    7  C   UNL     1      40.383 -15.691   1.591  1.00  0.00     0.052 A 
HETATM    8  C   UNL     1      39.231 -14.996   2.213  1.00  0.00     0.072 C 
HETATM    9  N   UNL     1      40.534 -15.746   0.236  1.00  0.00    -0.280 N 
HETATM   10  H   UNL     1      39.930 -15.356  -0.481  1.00  0.00     0.189 HD
HETATM   11  N   UNL     1      41.625 -16.403  -0.161  1.00  0.00    -0.177 NA
HETATM   12  C   UNL     1      42.213 -16.794   0.982  1.00  0.00     0.079 A 
HETATM   13  C   UNL     1      43.453 -17.603   0.883  1.00  0.00     0.075 C 
ENDBRANCH   3   6
ENDBRANCH   1   2
BRANCH   1  14
HETATM   14  N   UNL     1      42.318 -17.646   5.873  1.00  0.00     0.101 N 
HETATM   15  H   UNL     1      42.201 -18.028   4.927  1.00  0.00     0.317 HD
BRANCH  14  16
HETATM   16  C   UNL     1      43.467 -18.285   6.530  1.00  0.00     0.254 C 
HETATM   17  C   UNL     1      44.661 -17.341   6.730  1.00  0.00     0.048 C 
BRANCH  16  18
HETATM   18  C   UNL     1      43.935 -19.506   5.745  1.00  0.00     0.035 A 
HETATM   19  C   UNL     1      43.988 -20.795   6.302  1.00  0.00     0.045 A 
HETATM   20 CL   UNL     1      43.521 -21.120   7.936  1.00  0.00    -0.084 Cl
HETATM   21  C   UNL     1      44.461 -21.885   5.556  1.00  0.00     0.024 A 
HETATM   22  C   UNL     1      44.897 -21.711   4.244  1.00  0.00     0.005 A 
HETATM   23  C   UNL     1      44.871 -20.442   3.680  1.00  0.00     0.043 A 
HETATM   24  C   UNL     1      44.405 -19.362   4.428  1.00  0.00     0.126 A 
HETATM   25  F   UNL     1      44.442 -18.148   3.857  1.00  0.00    -0.205 F 
ENDBRANCH  16  18
ENDBRANCH  14  16
ENDBRANCH   1  14
TORSDOF 5
ENDMDL
MODEL 2
REMARK VINA RESULT:      -7.4      2.481      4.142
REMARK  5 active torsions:
REMARK  status: ('A' for Active; 'I' for Inactive)
REMARK    1  A    between atoms: C_8  and  N_9 
REMARK       I    between atoms: N_9  and  C_10 
REMARK    2  A    between atoms: C_10  and  C_11 
REMARK    3  A    between atoms: C_11  and  N_12 
REMARK    4  A    between atoms: N_12  and  C_13 
REMARK    5  A    between atoms: C_13  and  C_14 
ROOT
HETATM    1  C   UNL     1      41.367 -16.820   1.359  1.00  0.00     0.372 C 
ENDROOT
BRANCH   1   2
HETATM    2  C   UNL     1      40.415 -16.051   2.295  1.00  0.00     0.250 C 
HETATM    3  N   UNL     1      41.072 -15.529   3.393  1.00  0.00    -0.322 N 
HETATM    4  H   UNL     1      42.076 -15.639   3.433  1.00  0.00     0.169 HD
HETATM    5  O   UNL     1      39.234 -15.888   2.006  1.00  0.00    -0.271 OA
BRANCH   3   6
HETATM    6  C   UNL     1      40.517 -14.779   4.418  1.00  0.00     0.085 A 
HETATM    7  C   UNL     1      40.425 -15.273   5.707  1.00  0.00     0.052 A 
HETATM    8  C   UNL     1      40.837 -16.558   6.321  1.00  0.00     0.072 C 
HETATM    9  N   UNL     1      39.842 -14.285   6.446  1.00  0.00    -0.280 N 
HETATM   10  H   UNL     1      39.622 -14.287   7.437  1.00  0.00     0.189 HD
HETATM   11  N   UNL     1      39.536 -13.193   5.744  1.00  0.00    -0.177 NA
HETATM   12  C   UNL     1      39.937 -13.478   4.494  1.00  0.00     0.079 A 
HETATM   13  C   UNL     1      39.693 -12.462   3.439  1.00  0.00     0.075 C 
ENDBRANCH   3   6
ENDBRANCH   1   2
BRANCH   1  14
HETATM   14  N   UNL     1      41.935 -17.973   2.064  1.00  0.00     0.101 N 
HETATM   15  H   UNL     1      41.885 -18.789   1.443  1.00  0.00     0.317 HD
BRANCH  14  16
HETATM   16  C   UNL     1      43.315 -17.787   2.533  1.00  0.00     0.254 C 
HETATM   17  C   UNL     1      44.295 -17.403   1.415  1.00  0.00     0.048 C 
BRANCH  16  18
HETATM   18  C   UNL     1      43.831 -19.043   3.225  1.00  0.00     0.035 A 
HETATM   19  C   UNL     1      44.262 -19.054   4.563  1.00  0.00     0.045 A 
HETATM   20 CL   UNL     1      44.242 -17.636   5.555  1.00  0.00    -0.084 Cl
HETATM   21  C   UNL     1      44.765 -20.224   5.150  1.00  0.00     0.024 A 
HETATM   22  C   UNL     1      44.856 -21.404   4.415  1.00  0.00     0.005 A 
HETATM   23  C   UNL     1      44.454 -21.412   3.086  1.00  0.00     0.043 A 
HETATM   24  C   UNL     1      43.960 -20.244   2.506  1.00  0.00     0.126 A 
HETATM   25  F   UNL     1      43.627 -20.288   1.207  1.00  0.00    -0.205 F 
ENDBRANCH  16  18
ENDBRANCH  14  16
ENDBRANCH   1  14
TORSDOF 5
ENDMDL
MODEL 3
REMARK VINA RESULT:      -7.3      2.212      3.016
REMARK  5 active torsions:
REMARK  status: ('A' for Active; 'I' for Inactive)
REMARK    1  A    between atoms: C_8  and  N_9 
REMARK       I    between atoms: N_9  and  C_10 
REMARK    2  A    between atoms: C_10  and  C_11 
REMARK    3  A    between atoms: C_11  and  N_12 
REMARK    4  A    between atoms: N_12  and  C_13 
REMARK    5  A    between atoms: C_13  and  C_14 
ROOT
HETATM    1  C   UNL     1      42.728 -17.114   6.106  1.00  0.00     0.372 C 
ENDROOT
BRANCH   1   2
HETATM    2  C   UNL     1      41.468 -16.486   5.478  1.00  0.00     0.250 C 
HETATM    3  N   UNL     1      41.634 -16.217   4.133  1.00  0.00    -0.322 N 
HETATM    4  H   UNL     1      42.500 -16.511   3.701  1.00  0.00     0.169 HD
HETATM    5  O   UNL     1      40.439 -16.339   6.130  1.00  0.00    -0.271 OA
BRANCH   3   6
HETATM    6  C   UNL     1      40.699 -15.666   3.271  1.00  0.00     0.085 A 
HETATM    7  C   UNL     1      40.369 -16.279   2.075  1.00  0.00     0.052 A 
HETATM    8  C   UNL     1      40.825 -17.534   1.431  1.00  0.00     0.072 C 
HETATM    9  N   UNL     1      39.430 -15.480   1.491  1.00  0.00    -0.280 N 
HETATM   10  H   UNL     1      38.950 -15.616   0.607  1.00  0.00     0.189 HD
HETATM   11  N   UNL     1      39.127 -14.392   2.202  1.00  0.00    -0.177 NA
HETATM   12  C   UNL     1      39.901 -14.484   3.296  1.00  0.00     0.079 A 
HETATM   13  C   UNL     1      39.833 -13.381   4.288  1.00  0.00     0.075 C 
ENDBRANCH   3   6
ENDBRANCH   1   2
BRANCH   1  14
HETATM   14  N   UNL     1      42.759 -18.552   5.824  1.00  0.00     0.101 N 
HETATM   15  H   UNL     1      42.425 -18.702   4.865  1.00  0.00     0.317 HD
BRANCH  14  16
HETATM   16  C   UNL     1      44.076 -19.182   5.998  1.00  0.00     0.254 C 
HETATM   17  C   UNL     1      45.240 -18.182   5.979  1.00  0.00     0.048 C 
BRANCH  16  18
HETATM   18  C   UNL     1      44.321 -20.239   4.926  1.00  0.00     0.035 A 
HETATM   19  C   UNL     1      44.319 -19.945   3.552  1.00  0.00     0.045 A 
HETATM   20 CL   UNL     1      44.043 -18.348   2.945  1.00  0.00    -0.084 Cl
HETATM   21  C   UNL     1      44.511 -20.955   2.597  1.00  0.00     0.024 A 
HETATM   22  C   UNL     1      44.702 -22.277   2.992  1.00  0.00     0.005 A 
HETATM   23  C   UNL     1      44.688 -22.593   4.345  1.00  0.00     0.043 A 
HETATM   24  C   UNL     1      44.490 -21.586   5.288  1.00  0.00     0.126 A 
HETATM   25  F   UNL     1      44.439 -21.947   6.580  1.00  0.00    -0.205 F 
ENDBRANCH  16  18
ENDBRANCH  14  16
ENDBRANCH   1  14
TORSDOF 5
ENDMDL
MODEL 4
REMARK VINA RESULT:      -7.2      2.410      4.068
REMARK  5 active torsions:
REMARK  status: ('A' for Active; 'I' for Inactive)
REMARK    1  A    between atoms: C_8  and  N_9 
REMARK       I    between atoms: N_9  and  C_10 
REMARK    2  A    between atoms: C_10  and  C_11 
REMARK    3  A    between atoms: C_11  and  N_12 
REMARK    4  A    between atoms: N_12  and  C_13 
REMARK    5  A    between atoms: C_13  and  C_14 
ROOT
HETATM    1  C   UNL     1      43.248 -16.363   1.692  1.00  0.00     0.372 C 
ENDROOT
BRANCH   1   2
HETATM    2  C   UNL     1      42.895 -15.401   2.843  1.00  0.00     0.250 C 
HETATM    3  N   UNL     1      41.639 -15.648   3.363  1.00  0.00    -0.322 N 
HETATM    4  H   UNL     1      41.132 -16.443   3.000  1.00  0.00     0.169 HD
HETATM    5  O   UNL     1      43.708 -14.581   3.258  1.00  0.00    -0.271 OA
BRANCH   3   6
HETATM    6  C   UNL     1      41.022 -14.977   4.408  1.00  0.00     0.085 A 
HETATM    7  C   UNL     1      40.758 -15.603   5.613  1.00  0.00     0.052 A 
HETATM    8  C   UNL     1      41.020 -16.975   6.109  1.00  0.00     0.072 C 
HETATM    9  N   UNL     1      40.160 -14.663   6.400  1.00  0.00    -0.280 N 
HETATM   10  H   UNL     1      39.833 -14.759   7.356  1.00  0.00     0.189 HD
HETATM   11  N   UNL     1      40.002 -13.480   5.804  1.00  0.00    -0.177 NA
HETATM   12  C   UNL     1      40.519 -13.653   4.577  1.00  0.00     0.079 A 
HETATM   13  C   UNL     1      40.456 -12.511   3.630  1.00  0.00     0.075 C 
ENDBRANCH   3   6
ENDBRANCH   1   2
BRANCH   1  14
HETATM   14  N   UNL     1      44.155 -17.408   2.178  1.00  0.00     0.101 N 
HETATM   15  H   UNL     1      44.317 -17.255   3.181  1.00  0.00     0.317 HD
BRANCH  14  16
HETATM   16  C   UNL     1      43.684 -18.781   1.953  1.00  0.00     0.254 C 
HETATM   17  C   UNL     1      42.165 -18.884   1.761  1.00  0.00     0.048 C 
BRANCH  16  18
HETATM   18  C   UNL     1      44.095 -19.695   3.102  1.00  0.00     0.035 A 
HETATM   19  C   UNL     1      44.355 -21.066   2.930  1.00  0.00     0.045 A 
HETATM   20 CL   UNL     1      44.235 -21.847   1.390  1.00  0.00    -0.084 Cl
HETATM   21  C   UNL     1      44.694 -21.879   4.021  1.00  0.00     0.024 A 
HETATM   22  C   UNL     1      44.775 -21.345   5.305  1.00  0.00     0.005 A 
HETATM   23  C   UNL     1      44.504 -19.997   5.501  1.00  0.00     0.043 A 
HETATM   24  C   UNL     1      44.161 -19.195   4.414  1.00  0.00     0.126 A 
HETATM   25  F   UNL     1      43.864 -17.910   4.658  1.00  0.00    -0.205 F 
ENDBRANCH  16  18
ENDBRANCH  14  16
ENDBRANCH   1  14
TORSDOF 5
ENDMDL
MODEL 5
REMARK VINA RESULT:      -7.1      2.781      5.453
REMARK  5 active torsions:
REMARK  status: ('A' for Active; 'I' for Inactive)
REMARK    1  A    between atoms: C_8  and  N_9 
REMARK       I    between atoms: N_9  and  C_10 
REMARK    2  A    between atoms: C_10  and  C_11 
REMARK    3  A    between atoms: C_11  and  N_12 
REMARK    4  A    between atoms: N_12  and  C_13 
REMARK    5  A    between atoms: C_13  and  C_14 
ROOT
HETATM    1  C   UNL     1      43.334 -16.927   1.369  1.00  0.00     0.372 C 
ENDROOT
BRANCH   1   2
HETATM    2  C   UNL     1      43.151 -18.344   1.946  1.00  0.00     0.250 C 
HETATM    3  N   UNL     1      44.297 -18.807   2.565  1.00  0.00    -0.322 N 
HETATM    4  H   UNL     1      45.080 -18.171   2.634  1.00  0.00     0.169 HD
HETATM    5  O   UNL     1      42.066 -18.914   1.901  1.00  0.00    -0.271 OA
BRANCH   3   6
HETATM    6  C   UNL     1      44.470 -20.030   3.194  1.00  0.00     0.085 A 
HETATM    7  C   UNL     1      44.825 -20.112   4.529  1.00  0.00     0.052 A 
HETATM    8  C   UNL     1      45.083 -19.083   5.563  1.00  0.00     0.072 C 
HETATM    9  N   UNL     1      44.901 -21.444   4.815  1.00  0.00    -0.280 N 
HETATM   10  H   UNL     1      45.128 -21.885   5.700  1.00  0.00     0.189 HD
HETATM   11  N   UNL     1      44.635 -22.237   3.775  1.00  0.00    -0.177 NA
HETATM   12  C   UNL     1      44.374 -21.388   2.767  1.00  0.00     0.079 A 
HETATM   13  C   UNL     1      44.079 -21.966   1.432  1.00  0.00     0.075 C 
ENDBRANCH   3   6
ENDBRANCH   1   2
BRANCH   1  14
HETATM   14  N   UNL     1      43.580 -15.975   2.456  1.00  0.00     0.101 N 
HETATM   15  H   UNL     1      43.896 -15.089   2.045  1.00  0.00     0.317 HD
BRANCH  14  16
HETATM   16  C   UNL     1      42.425 -15.734   3.333  1.00  0.00     0.254 C 
HETATM   17  C   UNL     1      41.796 -14.346   3.150  1.00  0.00     0.048 C 
BRANCH  16  18
HETATM   18  C   UNL     1      42.806 -15.909   4.798  1.00  0.00     0.035 A 
HETATM   19  C   UNL     1      42.233 -16.892   5.623  1.00  0.00     0.045 A 
HETATM   20 CL   UNL     1      41.038 -18.004   5.047  1.00  0.00    -0.084 Cl
HETATM   21  C   UNL     1      42.584 -16.994   6.977  1.00  0.00     0.024 A 
HETATM   22  C   UNL     1      43.509 -16.115   7.538  1.00  0.00     0.005 A 
HETATM   23  C   UNL     1      44.074 -15.124   6.746  1.00  0.00     0.043 A 
HETATM   24  C   UNL     1      43.716 -15.024   5.403  1.00  0.00     0.126 A 
HETATM   25  F   UNL     1      44.253 -14.022   4.689  1.00  0.00    -0.205 F 
ENDBRANCH  16  18
ENDBRANCH  14  16
ENDBRANCH   1  14
TORSDOF 5
ENDMDL
MODEL 6
REMARK VINA RESULT:      -7.1      2.105      3.021
REMARK  5 active torsions:
REMARK  status: ('A' for Active; 'I' for Inactive)
REMARK    1  A    between atoms: C_8  and  N_9 
REMARK       I    between atoms: N_9  and  C_10 
REMARK    2  A    between atoms: C_10  and  C_11 
REMARK    3  A    between atoms: C_11  and  N_12 
REMARK    4  A    between atoms: N_12  and  C_13 
REMARK    5  A    between atoms: C_13  and  C_14 
ROOT
HETATM    1  C   UNL     1      42.928 -17.431   6.893  1.00  0.00     0.372 C 
ENDROOT
BRANCH   1   2
HETATM    2  C   UNL     1      41.637 -16.805   6.332  1.00  0.00     0.250 C 
HETATM    3  N   UNL     1      41.872 -16.055   5.196  1.00  0.00    -0.322 N 
HETATM    4  H   UNL     1      42.812 -16.050   4.825  1.00  0.00     0.169 HD
HETATM    5  O   UNL     1      40.543 -17.047   6.834  1.00  0.00    -0.271 OA
BRANCH   3   6
HETATM    6  C   UNL     1      40.933 -15.371   4.439  1.00  0.00     0.085 A 
HETATM    7  C   UNL     1      40.538 -15.826   3.194  1.00  0.00     0.052 A 
HETATM    8  C   UNL     1      40.918 -17.014   2.393  1.00  0.00     0.072 C 
HETATM    9  N   UNL     1      39.615 -14.929   2.742  1.00  0.00    -0.280 N 
HETATM   10  H   UNL     1      39.101 -14.941   1.867  1.00  0.00     0.189 HD
HETATM   11  N   UNL     1      39.383 -13.921   3.585  1.00  0.00    -0.177 NA
HETATM   12  C   UNL     1      40.188 -14.170   4.631  1.00  0.00     0.079 A 
HETATM   13  C   UNL     1      40.200 -13.189   5.746  1.00  0.00     0.075 C 
ENDBRANCH   3   6
ENDBRANCH   1   2
BRANCH   1  14
HETATM   14  N   UNL     1      43.019 -18.836   6.484  1.00  0.00     0.101 N 
HETATM   15  H   UNL     1      42.326 -19.003   5.744  1.00  0.00     0.317 HD
BRANCH  14  16
HETATM   16  C   UNL     1      44.350 -19.256   6.024  1.00  0.00     0.254 C 
HETATM   17  C   UNL     1      45.398 -18.135   6.076  1.00  0.00     0.048 C 
BRANCH  16  18
HETATM   18  C   UNL     1      44.290 -19.803   4.603  1.00  0.00     0.035 A 
HETATM   19  C   UNL     1      44.563 -21.146   4.291  1.00  0.00     0.045 A 
HETATM   20 CL   UNL     1      44.991 -22.310   5.498  1.00  0.00    -0.084 Cl
HETATM   21  C   UNL     1      44.533 -21.601   2.964  1.00  0.00     0.024 A 
HETATM   22  C   UNL     1      44.237 -20.725   1.922  1.00  0.00     0.005 A 
HETATM   23  C   UNL     1      43.982 -19.390   2.205  1.00  0.00     0.043 A 
HETATM   24  C   UNL     1      44.020 -18.943   3.525  1.00  0.00     0.126 A 
HETATM   25  F   UNL     1      43.813 -17.635   3.745  1.00  0.00    -0.205 F 
ENDBRANCH  16  18
ENDBRANCH  14  16
ENDBRANCH   1  14
TORSDOF 5
ENDMDL
MODEL 7
REMARK VINA RESULT:      -7.0      2.634      3.629
REMARK  5 active torsions:
REMARK  status: ('A' for Active; 'I' for Inactive)
REMARK    1  A    between atoms: C_8  and  N_9 
REMARK       I    between atoms: N_9  and  C_10 
REMARK    2  A    between atoms: C_10  and  C_11 
REMARK    3  A    between atoms: C_11  and  N_12 
REMARK    4  A    between atoms: N_12  and  C_13 
REMARK    5  A    between atoms: C_13  and  C_14 
ROOT
HETATM    1  C   UNL     1      41.631 -17.739   1.353  1.00  0.00     0.372 C 
ENDROOT
BRANCH   1   2
HETATM    2  C   UNL     1      41.053 -16.363   0.969  1.00  0.00     0.250 C 
HETATM    3  N   UNL     1      41.671 -15.831  -0.147  1.00  0.00    -0.322 N 
HETATM    4  H   UNL     1      42.359 -16.404  -0.618  1.00  0.00     0.169 HD
HETATM    5  O   UNL     1      40.101 -15.882   1.575  1.00  0.00    -0.271 OA
BRANCH   3   6
HETATM    6  C   UNL     1      41.386 -14.621  -0.761  1.00  0.00     0.085 A 
HETATM    7  C   UNL     1      40.915 -14.564  -2.060  1.00  0.00     0.052 A 
HETATM    8  C   UNL     1      40.598 -15.611  -3.060  1.00  0.00     0.072 C 
HETATM    9  N   UNL     1      40.740 -13.239  -2.337  1.00  0.00    -0.280 N 
HETATM   10  H   UNL     1      40.399 -12.815  -3.194  1.00  0.00     0.189 HD
HETATM   11  N   UNL     1      41.068 -12.428  -1.330  1.00  0.00    -0.177 NA
HETATM   12  C   UNL     1      41.473 -13.257  -0.353  1.00  0.00     0.079 A 
HETATM   13  C   UNL     1      41.956 -12.652   0.914  1.00  0.00     0.075 C 
ENDBRANCH   3   6
ENDBRANCH   1   2
BRANCH   1  14
HETATM   14  N   UNL     1      42.127 -17.703   2.732  1.00  0.00     0.101 N 
HETATM   15  H   UNL     1      41.678 -18.463   3.258  1.00  0.00     0.317 HD
BRANCH  14  16
HETATM   16  C   UNL     1      43.588 -17.803   2.861  1.00  0.00     0.254 C 
HETATM   17  C   UNL     1      44.337 -17.555   1.545  1.00  0.00     0.048 C 
BRANCH  16  18
HETATM   18  C   UNL     1      43.995 -19.167   3.406  1.00  0.00     0.035 A 
HETATM   19  C   UNL     1      44.432 -19.360   4.728  1.00  0.00     0.045 A 
HETATM   20 CL   UNL     1      44.544 -18.062   5.867  1.00  0.00    -0.084 Cl
HETATM   21  C   UNL     1      44.835 -20.626   5.178  1.00  0.00     0.024 A 
HETATM   22  C   UNL     1      44.816 -21.723   4.320  1.00  0.00     0.005 A 
HETATM   23  C   UNL     1      44.406 -21.552   3.004  1.00  0.00     0.043 A 
HETATM   24  C   UNL     1      44.013 -20.290   2.560  1.00  0.00     0.126 A 
HETATM   25  F   UNL     1      43.670 -20.164   1.269  1.00  0.00    -0.205 F 
ENDBRANCH  16  18
ENDBRANCH  14  16
ENDBRANCH   1  14
TORSDOF 5
ENDMDL
MODEL 8
REMARK VINA RESULT:      -7.0      2.375      3.562
REMARK  5 active torsions:
REMARK  status: ('A' for Active; 'I' for Inactive)
REMARK    1  A    between atoms: C_8  and  N_9 
REMARK       I    between atoms: N_9  and  C_10 
REMARK    2  A    between atoms: C_10  and  C_11 
REMARK    3  A    between atoms: C_11  and  N_12 
REMARK    4  A    between atoms: N_12  and  C_13 
REMARK    5  A    between atoms: C_13  and  C_14 
ROOT
HETATM    1  C   UNL     1      41.007 -15.662   3.636  1.00  0.00     0.372 C 
ENDROOT
BRANCH   1   2
HETATM    2  C   UNL     1      40.187 -15.784   2.337  1.00  0.00     0.250 C 
HETATM    3  N   UNL     1      40.185 -14.609   1.609  1.00  0.00    -0.322 N 
HETATM    4  H   UNL     1      40.753 -13.847   1.951  1.00  0.00     0.169 HD
HETATM    5  O   UNL     1      39.682 -16.851   2.002  1.00  0.00    -0.271 OA
BRANCH   3   6
HETATM    6  C   UNL     1      39.557 -14.383   0.393  1.00  0.00     0.085 A 
HETATM    7  C   UNL     1      40.117 -14.807  -0.799  1.00  0.00     0.052 A 
HETATM    8  C   UNL     1      41.367 -15.538  -1.117  1.00  0.00     0.072 C 
HETATM    9  N   UNL     1      39.245 -14.428  -1.777  1.00  0.00    -0.280 N 
HETATM   10  H   UNL     1      39.319 -14.577  -2.778  1.00  0.00     0.189 HD
HETATM   11  N   UNL     1      38.168 -13.784  -1.323  1.00  0.00    -0.177 NA
HETATM   12  C   UNL     1      38.344 -13.740   0.008  1.00  0.00     0.079 A 
HETATM   13  C   UNL     1      37.319 -13.035   0.820  1.00  0.00     0.075 C 
ENDBRANCH   3   6
ENDBRANCH   1   2
BRANCH   1  14
HETATM   14  N   UNL     1      41.603 -16.958   3.971  1.00  0.00     0.101 N 
HETATM   15  H   UNL     1      41.157 -17.679   3.393  1.00  0.00     0.317 HD
BRANCH  14  16
HETATM   16  C   UNL     1      43.063 -17.022   3.810  1.00  0.00     0.254 C 
HETATM   17  C   UNL     1      43.601 -16.078   2.725  1.00  0.00     0.048 C 
BRANCH  16  18
HETATM   18  C   UNL     1      43.515 -18.443   3.490  1.00  0.00     0.035 A 
HETATM   19  C   UNL     1      44.409 -19.160   4.304  1.00  0.00     0.045 A 
HETATM   20 CL   UNL     1      45.079 -18.495   5.754  1.00  0.00    -0.084 Cl
HETATM   21  C   UNL     1      44.829 -20.451   3.952  1.00  0.00     0.024 A 
HETATM   22  C   UNL     1      44.372 -21.051   2.781  1.00  0.00     0.005 A 
HETATM   23  C   UNL     1      43.503 -20.353   1.952  1.00  0.00     0.043 A 
HETATM   24  C   UNL     1      43.094 -19.068   2.303  1.00  0.00     0.126 A 
HETATM   25  F   UNL     1      42.291 -18.416   1.449  1.00  0.00    -0.205 F 
ENDBRANCH  16  18
ENDBRANCH  14  16
ENDBRANCH   1  14
TORSDOF 5
ENDMDL
MODEL 9
REMARK VINA RESULT:      -6.9      4.374      6.301
REMARK  5 active torsions:
REMARK  status: ('A' for Active; 'I' for Inactive)
REMARK    1  A    between atoms: C_8  and  N_9 
REMARK       I    between atoms: N_9  and  C_10 
REMARK    2  A    between atoms: C_10  and  C_11 
REMARK    3  A    between atoms: C_11  and  N_12 
REMARK    4  A    between atoms: N_12  and  C_13 
REMARK    5  A    between atoms: C_13  and  C_14 
ROOT
HETATM    1  C   UNL     1      43.655 -15.494   6.953  1.00  0.00     0.372 C 
ENDROOT
BRANCH   1   2
HETATM    2  C   UNL     1      44.331 -14.112   7.037  1.00  0.00     0.250 C 
HETATM    3  N   UNL     1      44.423 -13.655   8.339  1.00  0.00    -0.322 N 
HETATM    4  H   UNL     1      44.117 -14.277   9.075  1.00  0.00     0.169 HD
HETATM    5  O   UNL     1      44.785 -13.564   6.038  1.00  0.00    -0.271 OA
BRANCH   3   6
HETATM    6  C   UNL     1      44.983 -12.461   8.765  1.00  0.00     0.085 A 
HETATM    7  C   UNL     1      44.290 -11.592   9.588  1.00  0.00     0.052 A 
HETATM    8  C   UNL     1      42.940 -11.649  10.198  1.00  0.00     0.072 C 
HETATM    9  N   UNL     1      45.128 -10.538   9.811  1.00  0.00    -0.280 N 
HETATM   10  H   UNL     1      44.962  -9.711  10.375  1.00  0.00     0.189 HD
HETATM   11  N   UNL     1      46.306 -10.644   9.193  1.00  0.00    -0.177 NA
HETATM   12  C   UNL     1      46.235 -11.816   8.540  1.00  0.00     0.079 A 
HETATM   13  C   UNL     1      47.395 -12.214   7.702  1.00  0.00     0.075 C 
ENDBRANCH   3   6
ENDBRANCH   1   2
BRANCH   1  14
HETATM   14  N   UNL     1      43.759 -16.016   5.587  1.00  0.00     0.101 N 
HETATM   15  H   UNL     1      44.626 -16.560   5.513  1.00  0.00     0.317 HD
BRANCH  14  16
HETATM   16  C   UNL     1      42.618 -16.836   5.155  1.00  0.00     0.254 C 
HETATM   17  C   UNL     1      41.822 -17.439   6.321  1.00  0.00     0.048 C 
BRANCH  16  18
HETATM   18  C   UNL     1      43.072 -17.964   4.237  1.00  0.00     0.035 A 
HETATM   19  C   UNL     1      44.065 -18.890   4.602  1.00  0.00     0.045 A 
HETATM   20 CL   UNL     1      44.863 -18.838   6.137  1.00  0.00    -0.084 Cl
HETATM   21  C   UNL     1      44.481 -19.891   3.712  1.00  0.00     0.024 A 
HETATM   22  C   UNL     1      43.922 -19.986   2.439  1.00  0.00     0.005 A 
HETATM   23  C   UNL     1      42.953 -19.069   2.051  1.00  0.00     0.043 A 
HETATM   24  C   UNL     1      42.548 -18.073   2.938  1.00  0.00     0.126 A 
HETATM   25  F   UNL     1      41.643 -17.183   2.502  1.00  0.00    -0.205 F 
ENDBRANCH  16  18
ENDBRANCH  14  16
ENDBRANCH   1  14
TORSDOF 5
ENDMDL
MODEL 10
REMARK VINA RESULT:      -6.9      3.442      4.929
REMARK  5 active torsions:
REMARK  status: ('A' for Active; 'I' for Inactive)
REMARK    1  A    between atoms: C_8  and  N_9 
REMARK       I    between atoms: N_9  and  C_10 
REMARK    2  A    between atoms: C_10  and  C_11 
REMARK    3  A    between atoms: C_11  and  N_12 
REMARK    4  A    between atoms: N_12  and  C_13 
REMARK    5  A    between atoms: C_13  and  C_14 
ROOT
HETATM    1  C   UNL     1      38.762 -14.943   1.691  1.00  0.00     0.372 C 
ENDROOT
BRANCH   1   2
HETATM    2  C   UNL     1      39.068 -13.987   0.522  1.00  0.00     0.250 C 
HETATM    3  N   UNL     1      39.485 -14.664  -0.609  1.00  0.00    -0.322 N 
HETATM    4  H   UNL     1      39.479 -15.675  -0.577  1.00  0.00     0.169 HD
HETATM    5  O   UNL     1      38.870 -12.780   0.618  1.00  0.00    -0.271 OA
BRANCH   3   6
HETATM    6  C   UNL     1      39.827 -14.111  -1.833  1.00  0.00     0.085 A 
HETATM    7  C   UNL     1      38.988 -14.207  -2.929  1.00  0.00     0.052 A 
HETATM    8  C   UNL     1      37.653 -14.822  -3.120  1.00  0.00     0.072 C 
HETATM    9  N   UNL     1      39.625 -13.559  -3.947  1.00  0.00    -0.280 N 
HETATM   10  H   UNL     1      39.307 -13.419  -4.900  1.00  0.00     0.189 HD
HETATM   11  N   UNL     1      40.815 -13.058  -3.608  1.00  0.00    -0.177 NA
HETATM   12  C   UNL     1      40.961 -13.392  -2.315  1.00  0.00     0.079 A 
HETATM   13  C   UNL     1      42.227 -13.011  -1.639  1.00  0.00     0.075 C 
ENDBRANCH   3   6
ENDBRANCH   1   2
BRANCH   1  14
HETATM   14  N   UNL     1      39.717 -16.055   1.689  1.00  0.00     0.101 N 
HETATM   15  H   UNL     1      40.216 -16.051   0.791  1.00  0.00     0.317 HD
BRANCH  14  16
HETATM   16  C   UNL     1      40.683 -16.036   2.796  1.00  0.00     0.254 C 
HETATM   17  C   UNL     1      41.242 -14.638   3.097  1.00  0.00     0.048 C 
BRANCH  16  18
HETATM   18  C   UNL     1      41.848 -16.980   2.521  1.00  0.00     0.035 A 
HETATM   19  C   UNL     1      42.298 -17.928   3.456  1.00  0.00     0.045 A 
HETATM   20 CL   UNL     1      41.564 -18.117   5.012  1.00  0.00    -0.084 Cl
HETATM   21  C   UNL     1      43.398 -18.752   3.177  1.00  0.00     0.024 A 
HETATM   22  C   UNL     1      44.076 -18.643   1.965  1.00  0.00     0.005 A 
HETATM   23  C   UNL     1      43.661 -17.700   1.034  1.00  0.00     0.043 A 
HETATM   24  C   UNL     1      42.570 -16.880   1.319  1.00  0.00     0.126 A 
HETATM   25  F   UNL     1      42.235 -15.952   0.409  1.00  0.00    -0.205 F 
ENDBRANCH  16  18
ENDBRANCH  14  16
ENDBRANCH   1  14
TORSDOF 5
ENDMDL
