MODEL 1
REMARK VINA RESULT:      -8.7      0.000      0.000
REMARK  7 active torsions:
REMARK  status: ('A' for Active; 'I' for Inactive)
REMARK    1  A    between atoms: C_4  and  C_5 
REMARK    2  A    between atoms: C_5  and  N_6 
REMARK       I    between atoms: N_6  and  C_7 
REMARK       I    between atoms: C_7  and  N_8 
REMARK    3  A    between atoms: N_8  and  C_9 
REMARK    4  A    between atoms: C_9  and  C_10 
REMARK    5  A    between atoms: C_12  and  O_13 
REMARK    6  A    between atoms: O_13  and  C_14 
REMARK    7  A    between atoms: C_23  and  O_24 
ROOT
HETATM    1  N   UNL     1      43.308 -16.303   5.437  1.00  0.00    -0.335 N 
HETATM    2  C   UNL     1      42.602 -15.379   6.143  1.00  0.00     0.316 C 
HETATM    3  N   UNL     1      43.333 -14.525   6.903  1.00  0.00    -0.339 N 
HETATM    4  O   UNL     1      41.383 -15.257   6.110  1.00  0.00    -0.247 OA
HETATM    5  H   UNL     1      44.223 -16.530   5.783  1.00  0.00     0.165 HD
HETATM    6  H   UNL     1      42.755 -13.842   7.376  1.00  0.00     0.164 HD
ENDROOT
BRANCH   1   7
HETATM    7  C   UNL     1      42.648 -17.328   4.634  1.00  0.00     0.118 C 
HETATM    8  C   UNL     1      42.481 -16.811   3.204  1.00  0.00     0.037 C 
BRANCH   7   9
HETATM    9  C   UNL     1      43.394 -18.662   4.625  1.00  0.00    -0.002 A 
HETATM   10  C   UNL     1      43.733 -19.307   3.417  1.00  0.00     0.018 A 
HETATM   11  C   UNL     1      44.390 -20.543   3.409  1.00  0.00    -0.061 A 
HETATM   12  C   UNL     1      44.746 -21.220   2.118  1.00  0.00     0.048 C 
HETATM   13  C   UNL     1      44.704 -21.151   4.627  1.00  0.00     0.009 A 
HETATM   14  C   UNL     1      44.365 -20.536   5.834  1.00  0.00     0.038 A 
HETATM   15  C   UNL     1      43.712 -19.299   5.844  1.00  0.00     0.076 A 
BRANCH  15  16
HETATM   16  O   UNL     1      43.315 -18.648   6.984  1.00  0.00    -0.355 OA
HETATM   17  C   UNL     1      44.227 -18.620   8.075  1.00  0.00     0.210 C 
ENDBRANCH  15  16
ENDBRANCH   7   9
ENDBRANCH   1   7
BRANCH   3  18
HETATM   18  C   UNL     1      44.769 -14.373   6.982  1.00  0.00     0.163 C 
BRANCH  18  19
HETATM   19  C   UNL     1      45.182 -13.133   7.730  1.00  0.00    -0.035 A 
HETATM   20  C   UNL     1      44.252 -12.430   8.502  1.00  0.00     0.066 A 
HETATM   21  C   UNL     1      44.673 -11.298   9.182  1.00  0.00     0.164 A 
HETATM   22  N   UNL     1      45.936 -10.828   9.158  1.00  0.00    -0.237 NA
HETATM   23  C   UNL     1      46.824 -11.530   8.425  1.00  0.00     0.120 A 
HETATM   24  C   UNL     1      46.503 -12.672   7.709  1.00  0.00     0.028 A 
BRANCH  21  25
HETATM   25  O   UNL     1      43.714 -10.625   9.915  1.00  0.00    -0.329 OA
BRANCH  25  26
HETATM   26  C   UNL     1      43.987 -10.474  11.325  1.00  0.00     0.130 C 
HETATM   27  C   UNL     1      43.183  -9.383  12.081  1.00  0.00     0.032 C 
HETATM   28  C   UNL     1      43.070 -10.368  13.258  1.00  0.00     0.005 C 
HETATM   29  C   UNL     1      43.270 -11.504  12.238  1.00  0.00     0.032 C 
ENDBRANCH  25  26
ENDBRANCH  21  25
ENDBRANCH  18  19
ENDBRANCH   3  18
TORSDOF 7
ENDMDL
MODEL 2
REMARK VINA RESULT:      -8.6      1.376      2.405
REMARK  7 active torsions:
REMARK  status: ('A' for Active; 'I' for Inactive)
REMARK    1  A    between atoms: C_4  and  C_5 
REMARK    2  A    between atoms: C_5  and  N_6 
REMARK       I    between atoms: N_6  and  C_7 
REMARK       I    between atoms: C_7  and  N_8 
REMARK    3  A    between atoms: N_8  and  C_9 
REMARK    4  A    between atoms: C_9  and  C_10 
REMARK    5  A    between atoms: C_12  and  O_13 
REMARK    6  A    between atoms: O_13  and  C_14 
REMARK    7  A    between atoms: C_23  and  O_24 
ROOT
HETATM    1  N   UNL     1      43.182 -16.372   6.025  1.00  0.00    -0.335 N 
HETATM    2  C   UNL     1      43.445 -16.265   7.355  1.00  0.00     0.316 C 
HETATM    3  N   UNL     1      44.098 -15.141   7.744  1.00  0.00    -0.339 N 
HETATM    4  O   UNL     1      43.109 -17.085   8.201  1.00  0.00    -0.247 OA
HETATM    5  H   UNL     1      43.771 -15.844   5.406  1.00  0.00     0.165 HD
HETATM    6  H   UNL     1      44.235 -15.104   8.746  1.00  0.00     0.164 HD
ENDROOT
BRANCH   1   7
HETATM    7  C   UNL     1      42.549 -17.559   5.457  1.00  0.00     0.118 C 
HETATM    8  C   UNL     1      41.032 -17.361   5.453  1.00  0.00     0.037 C 
BRANCH   7   9
HETATM    9  C   UNL     1      43.039 -17.889   4.048  1.00  0.00    -0.002 A 
HETATM   10  C   UNL     1      43.297 -19.218   3.651  1.00  0.00     0.018 A 
HETATM   11  C   UNL     1      43.775 -19.518   2.369  1.00  0.00    -0.061 A 
HETATM   12  C   UNL     1      44.045 -20.935   1.957  1.00  0.00     0.048 C 
HETATM   13  C   UNL     1      44.009 -18.473   1.473  1.00  0.00     0.009 A 
HETATM   14  C   UNL     1      43.773 -17.149   1.850  1.00  0.00     0.038 A 
HETATM   15  C   UNL     1      43.292 -16.848   3.129  1.00  0.00     0.076 A 
BRANCH  15  16
HETATM   16  O   UNL     1      43.069 -15.574   3.586  1.00  0.00    -0.355 OA
HETATM   17  C   UNL     1      42.147 -14.769   2.863  1.00  0.00     0.210 C 
ENDBRANCH  15  16
ENDBRANCH   7   9
ENDBRANCH   1   7
BRANCH   3  18
HETATM   18  C   UNL     1      44.454 -13.975   6.964  1.00  0.00     0.163 C 
BRANCH  18  19
HETATM   19  C   UNL     1      44.984 -12.849   7.813  1.00  0.00    -0.035 A 
HETATM   20  C   UNL     1      44.126 -12.130   8.650  1.00  0.00     0.066 A 
HETATM   21  C   UNL     1      44.653 -11.106   9.421  1.00  0.00     0.164 A 
HETATM   22  N   UNL     1      45.955 -10.758   9.426  1.00  0.00    -0.237 NA
HETATM   23  C   UNL     1      46.772 -11.476   8.628  1.00  0.00     0.120 A 
HETATM   24  C   UNL     1      46.343 -12.516   7.819  1.00  0.00     0.028 A 
BRANCH  21  25
HETATM   25  O   UNL     1      43.764 -10.410  10.217  1.00  0.00    -0.329 OA
BRANCH  25  26
HETATM   26  C   UNL     1      43.909 -10.600  11.641  1.00  0.00     0.130 C 
HETATM   27  C   UNL     1      43.341  -9.484  12.558  1.00  0.00     0.032 C 
HETATM   28  C   UNL     1      42.843 -10.595  13.500  1.00  0.00     0.005 C 
HETATM   29  C   UNL     1      42.850 -11.536  12.282  1.00  0.00     0.032 C 
ENDBRANCH  25  26
ENDBRANCH  21  25
ENDBRANCH  18  19
ENDBRANCH   3  18
TORSDOF 7
ENDMDL
MODEL 3
REMARK VINA RESULT:      -8.4      1.285      2.266
REMARK  7 active torsions:
REMARK  status: ('A' for Active; 'I' for Inactive)
REMARK    1  A    between atoms: C_4  and  C_5 
REMARK    2  A    between atoms: C_5  and  N_6 
REMARK       I    between atoms: N_6  and  C_7 
REMARK       I    between atoms: C_7  and  N_8 
REMARK    3  A    between atoms: N_8  and  C_9 
REMARK    4  A    between atoms: C_9  and  C_10 
REMARK    5  A    between atoms: C_12  and  O_13 
REMARK    6  A    between atoms: O_13  and  C_14 
REMARK    7  A    between atoms: C_23  and  O_24 
ROOT
HETATM    1  N   UNL     1      43.064 -16.337   6.129  1.00  0.00    -0.335 N 
HETATM    2  C   UNL     1      43.454 -16.274   7.430  1.00  0.00     0.316 C 
HETATM    3  N   UNL     1      44.242 -15.221   7.765  1.00  0.00    -0.339 N 
HETATM    4  O   UNL     1      43.120 -17.071   8.299  1.00  0.00    -0.247 OA
HETATM    5  H   UNL     1      43.642 -15.857   5.462  1.00  0.00     0.165 HD
HETATM    6  H   UNL     1      44.471 -15.211   8.751  1.00  0.00     0.164 HD
ENDROOT
BRANCH   1   7
HETATM    7  C   UNL     1      42.274 -17.452   5.614  1.00  0.00     0.118 C 
HETATM    8  C   UNL     1      40.789 -17.101   5.720  1.00  0.00     0.037 C 
BRANCH   7   9
HETATM    9  C   UNL     1      42.622 -17.825   4.174  1.00  0.00    -0.002 A 
HETATM   10  C   UNL     1      41.918 -17.277   3.081  1.00  0.00     0.018 A 
HETATM   11  C   UNL     1      42.217 -17.642   1.763  1.00  0.00    -0.061 A 
HETATM   12  C   UNL     1      41.462 -17.052   0.608  1.00  0.00     0.048 C 
HETATM   13  C   UNL     1      43.227 -18.577   1.532  1.00  0.00     0.009 A 
HETATM   14  C   UNL     1      43.927 -19.143   2.600  1.00  0.00     0.038 A 
HETATM   15  C   UNL     1      43.633 -18.777   3.917  1.00  0.00     0.076 A 
BRANCH  15  16
HETATM   16  O   UNL     1      44.250 -19.311   5.020  1.00  0.00    -0.355 OA
HETATM   17  C   UNL     1      45.013 -20.496   4.835  1.00  0.00     0.210 C 
ENDBRANCH  15  16
ENDBRANCH   7   9
ENDBRANCH   1   7
BRANCH   3  18
HETATM   18  C   UNL     1      44.634 -14.083   6.963  1.00  0.00     0.163 C 
BRANCH  18  19
HETATM   19  C   UNL     1      45.096 -12.917   7.797  1.00  0.00    -0.035 A 
HETATM   20  C   UNL     1      44.199 -12.245   8.633  1.00  0.00     0.066 A 
HETATM   21  C   UNL     1      44.664 -11.182   9.390  1.00  0.00     0.164 A 
HETATM   22  N   UNL     1      45.941 -10.752   9.384  1.00  0.00    -0.237 NA
HETATM   23  C   UNL     1      46.798 -11.424   8.589  1.00  0.00     0.120 A 
HETATM   24  C   UNL     1      46.431 -12.497   7.792  1.00  0.00     0.028 A 
BRANCH  21  25
HETATM   25  O   UNL     1      43.736 -10.536  10.185  1.00  0.00    -0.329 OA
BRANCH  25  26
HETATM   26  C   UNL     1      43.913 -10.686  11.611  1.00  0.00     0.130 C 
HETATM   27  C   UNL     1      43.444  -9.505  12.502  1.00  0.00     0.032 C 
HETATM   28  C   UNL     1      42.906 -10.548  13.497  1.00  0.00     0.005 C 
HETATM   29  C   UNL     1      42.817 -11.530  12.315  1.00  0.00     0.032 C 
ENDBRANCH  25  26
ENDBRANCH  21  25
ENDBRANCH  18  19
ENDBRANCH   3  18
TORSDOF 7
ENDMDL
MODEL 4
REMARK VINA RESULT:      -8.1      2.779      4.654
REMARK  7 active torsions:
REMARK  status: ('A' for Active; 'I' for Inactive)
REMARK    1  A    between atoms: C_4  and  C_5 
REMARK    2  A    between atoms: C_5  and  N_6 
REMARK       I    between atoms: N_6  and  C_7 
REMARK       I    between atoms: C_7  and  N_8 
REMARK    3  A    between atoms: N_8  and  C_9 
REMARK    4  A    between atoms: C_9  and  C_10 
REMARK    5  A    between atoms: C_12  and  O_13 
REMARK    6  A    between atoms: O_13  and  C_14 
REMARK    7  A    between atoms: C_23  and  O_24 
ROOT
HETATM    1  N   UNL     1      42.150 -16.835   2.812  1.00  0.00    -0.335 N 
HETATM    2  C   UNL     1      40.816 -16.632   2.642  1.00  0.00     0.316 C 
HETATM    3  N   UNL     1      40.278 -15.593   3.331  1.00  0.00    -0.339 N 
HETATM    4  O   UNL     1      40.098 -17.293   1.901  1.00  0.00    -0.247 OA
HETATM    5  H   UNL     1      42.554 -16.476   3.659  1.00  0.00     0.165 HD
HETATM    6  H   UNL     1      39.292 -15.474   3.137  1.00  0.00     0.164 HD
ENDROOT
BRANCH   1   7
HETATM    7  C   UNL     1      42.844 -17.957   2.189  1.00  0.00     0.118 C 
HETATM    8  C   UNL     1      43.755 -17.426   1.080  1.00  0.00     0.037 C 
BRANCH   7   9
HETATM    9  C   UNL     1      43.658 -18.789   3.180  1.00  0.00    -0.002 A 
HETATM   10  C   UNL     1      44.151 -18.232   4.378  1.00  0.00     0.018 A 
HETATM   11  C   UNL     1      44.922 -18.986   5.271  1.00  0.00    -0.061 A 
HETATM   12  C   UNL     1      45.440 -18.383   6.544  1.00  0.00     0.048 C 
HETATM   13  C   UNL     1      45.215 -20.315   4.957  1.00  0.00     0.009 A 
HETATM   14  C   UNL     1      44.749 -20.881   3.769  1.00  0.00     0.038 A 
HETATM   15  C   UNL     1      43.975 -20.131   2.878  1.00  0.00     0.076 A 
BRANCH  15  16
HETATM   16  O   UNL     1      43.510 -20.604   1.677  1.00  0.00    -0.355 OA
HETATM   17  C   UNL     1      43.869 -21.929   1.310  1.00  0.00     0.210 C 
ENDBRANCH  15  16
ENDBRANCH   7   9
ENDBRANCH   1   7
BRANCH   3  18
HETATM   18  C   UNL     1      40.941 -14.589   4.133  1.00  0.00     0.163 C 
BRANCH  18  19
HETATM   19  C   UNL     1      41.727 -15.183   5.273  1.00  0.00    -0.035 A 
HETATM   20  C   UNL     1      42.980 -14.667   5.613  1.00  0.00     0.066 A 
HETATM   21  C   UNL     1      43.669 -15.236   6.673  1.00  0.00     0.164 A 
HETATM   22  N   UNL     1      43.201 -16.260   7.414  1.00  0.00    -0.237 NA
HETATM   23  C   UNL     1      41.982 -16.732   7.085  1.00  0.00     0.120 A 
HETATM   24  C   UNL     1      41.216 -16.234   6.043  1.00  0.00     0.028 A 
BRANCH  21  25
HETATM   25  O   UNL     1      44.912 -14.705   6.959  1.00  0.00    -0.329 OA
BRANCH  25  26
HETATM   26  C   UNL     1      44.930 -13.316   7.352  1.00  0.00     0.130 C 
HETATM   27  C   UNL     1      44.590 -13.002   8.834  1.00  0.00     0.032 C 
HETATM   28  C   UNL     1      45.707 -11.944   8.803  1.00  0.00     0.005 C 
HETATM   29  C   UNL     1      46.342 -12.746   7.653  1.00  0.00     0.032 C 
ENDBRANCH  25  26
ENDBRANCH  21  25
ENDBRANCH  18  19
ENDBRANCH   3  18
TORSDOF 7
ENDMDL
MODEL 5
REMARK VINA RESULT:      -7.9      4.246      7.405
REMARK  7 active torsions:
REMARK  status: ('A' for Active; 'I' for Inactive)
REMARK    1  A    between atoms: C_4  and  C_5 
REMARK    2  A    between atoms: C_5  and  N_6 
REMARK       I    between atoms: N_6  and  C_7 
REMARK       I    between atoms: C_7  and  N_8 
REMARK    3  A    between atoms: N_8  and  C_9 
REMARK    4  A    between atoms: C_9  and  C_10 
REMARK    5  A    between atoms: C_12  and  O_13 
REMARK    6  A    between atoms: O_13  and  C_14 
REMARK    7  A    between atoms: C_23  and  O_24 
ROOT
HETATM    1  N   UNL     1      43.236 -16.965   5.788  1.00  0.00    -0.335 N 
HETATM    2  C   UNL     1      43.333 -15.702   6.285  1.00  0.00     0.316 C 
HETATM    3  N   UNL     1      42.198 -14.959   6.248  1.00  0.00    -0.339 N 
HETATM    4  O   UNL     1      44.347 -15.222   6.776  1.00  0.00    -0.247 OA
HETATM    5  H   UNL     1      42.496 -17.133   5.129  1.00  0.00     0.165 HD
HETATM    6  H   UNL     1      42.326 -14.043   6.661  1.00  0.00     0.164 HD
ENDROOT
BRANCH   1   7
HETATM    7  C   UNL     1      44.393 -17.849   5.699  1.00  0.00     0.118 C 
HETATM    8  C   UNL     1      44.587 -18.554   7.044  1.00  0.00     0.037 C 
BRANCH   7   9
HETATM    9  C   UNL     1      44.280 -18.883   4.579  1.00  0.00    -0.002 A 
HETATM   10  C   UNL     1      44.529 -20.251   4.812  1.00  0.00     0.018 A 
HETATM   11  C   UNL     1      44.455 -21.194   3.780  1.00  0.00    -0.061 A 
HETATM   12  C   UNL     1      44.721 -22.647   4.040  1.00  0.00     0.048 C 
HETATM   13  C   UNL     1      44.138 -20.761   2.490  1.00  0.00     0.009 A 
HETATM   14  C   UNL     1      43.901 -19.409   2.235  1.00  0.00     0.038 A 
HETATM   15  C   UNL     1      43.971 -18.467   3.266  1.00  0.00     0.076 A 
BRANCH  15  16
HETATM   16  O   UNL     1      43.786 -17.119   3.090  1.00  0.00    -0.355 OA
HETATM   17  C   UNL     1      43.548 -16.656   1.767  1.00  0.00     0.210 C 
ENDBRANCH  15  16
ENDBRANCH   7   9
ENDBRANCH   1   7
BRANCH   3  18
HETATM   18  C   UNL     1      40.860 -15.353   5.866  1.00  0.00     0.163 C 
BRANCH  18  19
HETATM   19  C   UNL     1      40.356 -14.602   4.661  1.00  0.00    -0.035 A 
HETATM   20  C   UNL     1      40.268 -15.236   3.418  1.00  0.00     0.066 A 
HETATM   21  C   UNL     1      39.792 -14.512   2.336  1.00  0.00     0.164 A 
HETATM   22  N   UNL     1      39.394 -13.227   2.402  1.00  0.00    -0.237 NA
HETATM   23  C   UNL     1      39.466 -12.638   3.614  1.00  0.00     0.120 A 
HETATM   24  C   UNL     1      39.929 -13.273   4.754  1.00  0.00     0.028 A 
BRANCH  21  25
HETATM   25  O   UNL     1      39.742 -15.174   1.124  1.00  0.00    -0.329 OA
BRANCH  25  26
HETATM   26  C   UNL     1      40.622 -14.675   0.094  1.00  0.00     0.130 C 
HETATM   27  C   UNL     1      41.180 -15.714  -0.915  1.00  0.00     0.032 C 
HETATM   28  C   UNL     1      40.972 -14.664  -2.020  1.00  0.00     0.005 C 
HETATM   29  C   UNL     1      39.900 -14.026  -1.117  1.00  0.00     0.032 C 
ENDBRANCH  25  26
ENDBRANCH  21  25
ENDBRANCH  18  19
ENDBRANCH   3  18
TORSDOF 7
ENDMDL
MODEL 6
REMARK VINA RESULT:      -7.7      4.255      7.098
REMARK  7 active torsions:
REMARK  status: ('A' for Active; 'I' for Inactive)
REMARK    1  A    between atoms: C_4  and  C_5 
REMARK    2  A    between atoms: C_5  and  N_6 
REMARK       I    between atoms: N_6  and  C_7 
REMARK       I    between atoms: C_7  and  N_8 
REMARK    3  A    between atoms: N_8  and  C_9 
REMARK    4  A    between atoms: C_9  and  C_10 
REMARK    5  A    between atoms: C_12  and  O_13 
REMARK    6  A    between atoms: O_13  and  C_14 
REMARK    7  A    between atoms: C_23  and  O_24 
ROOT
HETATM    1  N   UNL     1      43.256 -16.933   5.777  1.00  0.00    -0.335 N 
HETATM    2  C   UNL     1      43.282 -15.642   6.206  1.00  0.00     0.316 C 
HETATM    3  N   UNL     1      42.128 -14.943   6.060  1.00  0.00    -0.339 N 
HETATM    4  O   UNL     1      44.248 -15.100   6.729  1.00  0.00    -0.247 OA
HETATM    5  H   UNL     1      42.564 -17.163   5.086  1.00  0.00     0.165 HD
HETATM    6  H   UNL     1      42.201 -14.002   6.427  1.00  0.00     0.164 HD
ENDROOT
BRANCH   1   7
HETATM    7  C   UNL     1      44.445 -17.780   5.808  1.00  0.00     0.118 C 
HETATM    8  C   UNL     1      44.622 -18.337   7.222  1.00  0.00     0.037 C 
BRANCH   7   9
HETATM    9  C   UNL     1      44.398 -18.924   4.797  1.00  0.00    -0.002 A 
HETATM   10  C   UNL     1      44.636 -20.259   5.184  1.00  0.00     0.018 A 
HETATM   11  C   UNL     1      44.623 -21.304   4.252  1.00  0.00    -0.061 A 
HETATM   12  C   UNL     1      44.877 -22.721   4.676  1.00  0.00     0.048 C 
HETATM   13  C   UNL     1      44.380 -21.009   2.909  1.00  0.00     0.009 A 
HETATM   14  C   UNL     1      44.156 -19.692   2.502  1.00  0.00     0.038 A 
HETATM   15  C   UNL     1      44.165 -18.648   3.432  1.00  0.00     0.076 A 
BRANCH  15  16
HETATM   16  O   UNL     1      43.988 -17.327   3.107  1.00  0.00    -0.355 OA
HETATM   17  C   UNL     1      44.060 -16.974   1.732  1.00  0.00     0.210 C 
ENDBRANCH  15  16
ENDBRANCH   7   9
ENDBRANCH   1   7
BRANCH   3  18
HETATM   18  C   UNL     1      40.830 -15.405   5.621  1.00  0.00     0.163 C 
BRANCH  18  19
HETATM   19  C   UNL     1      40.703 -15.441   4.121  1.00  0.00    -0.035 A 
HETATM   20  C   UNL     1      40.742 -14.257   3.379  1.00  0.00     0.066 A 
HETATM   21  C   UNL     1      40.629 -14.333   1.999  1.00  0.00     0.164 A 
HETATM   22  N   UNL     1      40.493 -15.485   1.315  1.00  0.00    -0.237 NA
HETATM   23  C   UNL     1      40.479 -16.619   2.045  1.00  0.00     0.120 A 
HETATM   24  C   UNL     1      40.582 -16.649   3.426  1.00  0.00     0.028 A 
BRANCH  21  25
HETATM   25  O   UNL     1      40.652 -13.135   1.311  1.00  0.00    -0.329 OA
BRANCH  25  26
HETATM   26  C   UNL     1      41.824 -12.894   0.502  1.00  0.00     0.130 C 
HETATM   27  C   UNL     1      41.638 -12.960  -1.038  1.00  0.00     0.032 C 
HETATM   28  C   UNL     1      42.578 -11.747  -1.144  1.00  0.00     0.005 C 
HETATM   29  C   UNL     1      42.177 -11.396   0.300  1.00  0.00     0.032 C 
ENDBRANCH  25  26
ENDBRANCH  21  25
ENDBRANCH  18  19
ENDBRANCH   3  18
TORSDOF 7
ENDMDL
MODEL 7
REMARK VINA RESULT:      -7.7      5.626      8.560
REMARK  7 active torsions:
REMARK  status: ('A' for Active; 'I' for Inactive)
REMARK    1  A    between atoms: C_4  and  C_5 
REMARK    2  A    between atoms: C_5  and  N_6 
REMARK       I    between atoms: N_6  and  C_7 
REMARK       I    between atoms: C_7  and  N_8 
REMARK    3  A    between atoms: N_8  and  C_9 
REMARK    4  A    between atoms: C_9  and  C_10 
REMARK    5  A    between atoms: C_12  and  O_13 
REMARK    6  A    between atoms: O_13  and  C_14 
REMARK    7  A    between atoms: C_23  and  O_24 
ROOT
HETATM    1  N   UNL     1      42.185 -16.837   2.750  1.00  0.00    -0.335 N 
HETATM    2  C   UNL     1      42.498 -15.559   2.406  1.00  0.00     0.316 C 
HETATM    3  N   UNL     1      42.126 -15.169   1.160  1.00  0.00    -0.339 N 
HETATM    4  O   UNL     1      43.052 -14.753   3.144  1.00  0.00    -0.247 OA
HETATM    5  H   UNL     1      42.050 -17.486   1.995  1.00  0.00     0.165 HD
HETATM    6  H   UNL     1      42.357 -14.201   0.976  1.00  0.00     0.164 HD
ENDROOT
BRANCH   1   7
HETATM    7  C   UNL     1      42.586 -17.411   4.031  1.00  0.00     0.118 C 
HETATM    8  C   UNL     1      41.335 -17.696   4.863  1.00  0.00     0.037 C 
BRANCH   7   9
HETATM    9  C   UNL     1      43.421 -18.683   3.888  1.00  0.00    -0.002 A 
HETATM   10  C   UNL     1      43.257 -19.550   2.788  1.00  0.00     0.018 A 
HETATM   11  C   UNL     1      44.000 -20.731   2.672  1.00  0.00    -0.061 A 
HETATM   12  C   UNL     1      43.818 -21.647   1.497  1.00  0.00     0.048 C 
HETATM   13  C   UNL     1      44.914 -21.057   3.676  1.00  0.00     0.009 A 
HETATM   14  C   UNL     1      45.081 -20.220   4.781  1.00  0.00     0.038 A 
HETATM   15  C   UNL     1      44.343 -19.037   4.896  1.00  0.00     0.076 A 
BRANCH  15  16
HETATM   16  O   UNL     1      44.424 -18.181   5.965  1.00  0.00    -0.355 OA
HETATM   17  C   UNL     1      44.217 -18.726   7.261  1.00  0.00     0.210 C 
ENDBRANCH  15  16
ENDBRANCH   7   9
ENDBRANCH   1   7
BRANCH   3  18
HETATM   18  C   UNL     1      41.335 -15.879   0.180  1.00  0.00     0.163 C 
BRANCH  18  19
HETATM   19  C   UNL     1      41.163 -15.103  -1.100  1.00  0.00    -0.035 A 
HETATM   20  C   UNL     1      41.281 -13.710  -1.104  1.00  0.00     0.066 A 
HETATM   21  C   UNL     1      41.123 -13.033  -2.303  1.00  0.00     0.164 A 
HETATM   22  N   UNL     1      40.871 -13.634  -3.482  1.00  0.00    -0.237 NA
HETATM   23  C   UNL     1      40.781 -14.980  -3.464  1.00  0.00     0.120 A 
HETATM   24  C   UNL     1      40.921 -15.747  -2.318  1.00  0.00     0.028 A 
BRANCH  21  25
HETATM   25  O   UNL     1      41.228 -11.656  -2.253  1.00  0.00    -0.329 OA
BRANCH  25  26
HETATM   26  C   UNL     1      42.570 -11.124  -2.277  1.00  0.00     0.130 C 
HETATM   27  C   UNL     1      42.734  -9.659  -2.762  1.00  0.00     0.032 C 
HETATM   28  C   UNL     1      43.782  -9.471  -1.650  1.00  0.00     0.005 C 
HETATM   29  C   UNL     1      43.096 -10.629  -0.903  1.00  0.00     0.032 C 
ENDBRANCH  25  26
ENDBRANCH  21  25
ENDBRANCH  18  19
ENDBRANCH   3  18
TORSDOF 7
ENDMDL
MODEL 8
REMARK VINA RESULT:      -7.6      2.119      9.725
REMARK  7 active torsions:
REMARK  status: ('A' for Active; 'I' for Inactive)
REMARK    1  A    between atoms: C_4  and  C_5 
REMARK    2  A    between atoms: C_5  and  N_6 
REMARK       I    between atoms: N_6  and  C_7 
REMARK       I    between atoms: C_7  and  N_8 
REMARK    3  A    between atoms: N_8  and  C_9 
REMARK    4  A    between atoms: C_9  and  C_10 
REMARK    5  A    between atoms: C_12  and  O_13 
REMARK    6  A    between atoms: O_13  and  C_14 
REMARK    7  A    between atoms: C_23  and  O_24 
ROOT
HETATM    1  N   UNL     1      42.241 -11.779   7.663  1.00  0.00    -0.335 N 
HETATM    2  C   UNL     1      41.951 -11.895   6.339  1.00  0.00     0.316 C 
HETATM    3  N   UNL     1      42.477 -12.974   5.706  1.00  0.00    -0.339 N 
HETATM    4  O   UNL     1      41.238 -11.122   5.710  1.00  0.00    -0.247 OA
HETATM    5  H   UNL     1      43.070 -12.247   7.984  1.00  0.00     0.165 HD
HETATM    6  H   UNL     1      42.199 -13.022   4.734  1.00  0.00     0.164 HD
ENDROOT
BRANCH   1   7
HETATM    7  C   UNL     1      41.801 -10.632   8.451  1.00  0.00     0.118 C 
HETATM    8  C   UNL     1      40.271 -10.610   8.488  1.00  0.00     0.037 C 
BRANCH   7   9
HETATM    9  C   UNL     1      42.359 -10.626   9.873  1.00  0.00    -0.002 A 
HETATM   10  C   UNL     1      41.514 -10.490  10.994  1.00  0.00     0.018 A 
HETATM   11  C   UNL     1      42.028 -10.454  12.296  1.00  0.00    -0.061 A 
HETATM   12  C   UNL     1      41.120 -10.309  13.482  1.00  0.00     0.048 C 
HETATM   13  C   UNL     1      43.410 -10.544  12.481  1.00  0.00     0.009 A 
HETATM   14  C   UNL     1      44.265 -10.665  11.384  1.00  0.00     0.038 A 
HETATM   15  C   UNL     1      43.752 -10.705  10.083  1.00  0.00     0.076 A 
BRANCH  15  16
HETATM   16  O   UNL     1      44.527 -10.787   8.954  1.00  0.00    -0.355 OA
HETATM   17  C   UNL     1      45.602 -11.718   8.961  1.00  0.00     0.210 C 
ENDBRANCH  15  16
ENDBRANCH   7   9
ENDBRANCH   1   7
BRANCH   3  18
HETATM   18  C   UNL     1      43.208 -14.092   6.262  1.00  0.00     0.163 C 
BRANCH  18  19
HETATM   19  C   UNL     1      42.742 -15.417   5.719  1.00  0.00    -0.035 A 
HETATM   20  C   UNL     1      43.583 -16.186   4.910  1.00  0.00     0.066 A 
HETATM   21  C   UNL     1      43.119 -17.403   4.436  1.00  0.00     0.164 A 
HETATM   22  N   UNL     1      41.901 -17.908   4.716  1.00  0.00    -0.237 NA
HETATM   23  C   UNL     1      41.111 -17.163   5.515  1.00  0.00     0.120 A 
HETATM   24  C   UNL     1      41.481 -15.934   6.037  1.00  0.00     0.028 A 
BRANCH  21  25
HETATM   25  O   UNL     1      43.978 -18.118   3.624  1.00  0.00    -0.329 OA
BRANCH  25  26
HETATM   26  C   UNL     1      43.594 -19.481   3.342  1.00  0.00     0.130 C 
HETATM   27  C   UNL     1      43.243 -19.821   1.869  1.00  0.00     0.032 C 
HETATM   28  C   UNL     1      43.985 -21.155   2.063  1.00  0.00     0.005 C 
HETATM   29  C   UNL     1      44.780 -20.471   3.190  1.00  0.00     0.032 C 
ENDBRANCH  25  26
ENDBRANCH  21  25
ENDBRANCH  18  19
ENDBRANCH   3  18
TORSDOF 7
ENDMDL
MODEL 9
REMARK VINA RESULT:      -7.6      3.449      4.843
REMARK  7 active torsions:
REMARK  status: ('A' for Active; 'I' for Inactive)
REMARK    1  A    between atoms: C_4  and  C_5 
REMARK    2  A    between atoms: C_5  and  N_6 
REMARK       I    between atoms: N_6  and  C_7 
REMARK       I    between atoms: C_7  and  N_8 
REMARK    3  A    between atoms: N_8  and  C_9 
REMARK    4  A    between atoms: C_9  and  C_10 
REMARK    5  A    between atoms: C_12  and  O_13 
REMARK    6  A    between atoms: O_13  and  C_14 
REMARK    7  A    between atoms: C_23  and  O_24 
ROOT
HETATM    1  N   UNL     1      43.068 -16.970   5.565  1.00  0.00    -0.335 N 
HETATM    2  C   UNL     1      43.163 -15.911   6.414  1.00  0.00     0.316 C 
HETATM    3  N   UNL     1      42.040 -15.161   6.558  1.00  0.00    -0.339 N 
HETATM    4  O   UNL     1      44.162 -15.621   7.060  1.00  0.00    -0.247 OA
HETATM    5  H   UNL     1      42.354 -16.920   4.861  1.00  0.00     0.165 HD
HETATM    6  H   UNL     1      42.163 -14.410   7.225  1.00  0.00     0.164 HD
ENDROOT
BRANCH   1   7
HETATM    7  C   UNL     1      44.217 -17.818   5.262  1.00  0.00     0.118 C 
HETATM    8  C   UNL     1      44.424 -18.807   6.411  1.00  0.00     0.037 C 
BRANCH   7   9
HETATM    9  C   UNL     1      44.077 -18.574   3.940  1.00  0.00    -0.002 A 
HETATM   10  C   UNL     1      44.266 -19.969   3.868  1.00  0.00     0.018 A 
HETATM   11  C   UNL     1      44.168 -20.657   2.652  1.00  0.00    -0.061 A 
HETATM   12  C   UNL     1      44.370 -22.143   2.586  1.00  0.00     0.048 C 
HETATM   13  C   UNL     1      43.888 -19.938   1.488  1.00  0.00     0.009 A 
HETATM   14  C   UNL     1      43.712 -18.554   1.536  1.00  0.00     0.038 A 
HETATM   15  C   UNL     1      43.805 -17.866   2.750  1.00  0.00     0.076 A 
BRANCH  15  16
HETATM   16  O   UNL     1      43.679 -16.505   2.875  1.00  0.00    -0.355 OA
HETATM   17  C   UNL     1      42.596 -15.881   2.198  1.00  0.00     0.210 C 
ENDBRANCH  15  16
ENDBRANCH   7   9
ENDBRANCH   1   7
BRANCH   3  18
HETATM   18  C   UNL     1      40.714 -15.393   6.030  1.00  0.00     0.163 C 
BRANCH  18  19
HETATM   19  C   UNL     1      40.119 -14.164   5.394  1.00  0.00    -0.035 A 
HETATM   20  C   UNL     1      39.804 -13.047   6.172  1.00  0.00     0.066 A 
HETATM   21  C   UNL     1      39.265 -11.933   5.548  1.00  0.00     0.164 A 
HETATM   22  N   UNL     1      39.031 -11.848   4.224  1.00  0.00    -0.237 NA
HETATM   23  C   UNL     1      39.360 -12.927   3.485  1.00  0.00     0.120 A 
HETATM   24  C   UNL     1      39.901 -14.088   4.014  1.00  0.00     0.028 A 
BRANCH  21  25
HETATM   25  O   UNL     1      38.952 -10.860   6.362  1.00  0.00    -0.329 OA
BRANCH  25  26
HETATM   26  C   UNL     1      39.790 -10.682   7.523  1.00  0.00     0.130 C 
HETATM   27  C   UNL     1      40.344  -9.253   7.775  1.00  0.00     0.032 C 
HETATM   28  C   UNL     1      40.080  -9.480   9.274  1.00  0.00     0.005 C 
HETATM   29  C   UNL     1      39.020 -10.518   8.861  1.00  0.00     0.032 C 
ENDBRANCH  25  26
ENDBRANCH  21  25
ENDBRANCH  18  19
ENDBRANCH   3  18
TORSDOF 7
ENDMDL
MODEL 10
REMARK VINA RESULT:      -7.6      4.992      9.110
REMARK  7 active torsions:
REMARK  status: ('A' for Active; 'I' for Inactive)
REMARK    1  A    between atoms: C_4  and  C_5 
REMARK    2  A    between atoms: C_5  and  N_6 
REMARK       I    between atoms: N_6  and  C_7 
REMARK       I    between atoms: C_7  and  N_8 
REMARK    3  A    between atoms: N_8  and  C_9 
REMARK    4  A    between atoms: C_9  and  C_10 
REMARK    5  A    between atoms: C_12  and  O_13 
REMARK    6  A    between atoms: O_13  and  C_14 
REMARK    7  A    between atoms: C_23  and  O_24 
ROOT
HETATM    1  N   UNL     1      42.155 -15.024   3.821  1.00  0.00    -0.335 N 
HETATM    2  C   UNL     1      42.981 -14.043   3.370  1.00  0.00     0.316 C 
HETATM    3  N   UNL     1      42.632 -13.466   2.191  1.00  0.00    -0.339 N 
HETATM    4  O   UNL     1      43.975 -13.639   3.961  1.00  0.00    -0.247 OA
HETATM    5  H   UNL     1      41.594 -15.492   3.132  1.00  0.00     0.165 HD
HETATM    6  H   UNL     1      43.265 -12.722   1.925  1.00  0.00     0.164 HD
ENDROOT
BRANCH   1   7
HETATM    7  C   UNL     1      42.447 -15.778   5.037  1.00  0.00     0.118 C 
HETATM    8  C   UNL     1      41.138 -16.048   5.782  1.00  0.00     0.037 C 
BRANCH   7   9
HETATM    9  C   UNL     1      43.179 -17.093   4.771  1.00  0.00    -0.002 A 
HETATM   10  C   UNL     1      42.989 -17.811   3.572  1.00  0.00     0.018 A 
HETATM   11  C   UNL     1      43.636 -19.031   3.341  1.00  0.00    -0.061 A 
HETATM   12  C   UNL     1      43.428 -19.786   2.061  1.00  0.00     0.048 C 
HETATM   13  C   UNL     1      44.477 -19.549   4.329  1.00  0.00     0.009 A 
HETATM   14  C   UNL     1      44.667 -18.861   5.529  1.00  0.00     0.038 A 
HETATM   15  C   UNL     1      44.025 -17.640   5.760  1.00  0.00     0.076 A 
BRANCH  15  16
HETATM   16  O   UNL     1      44.132 -16.922   6.924  1.00  0.00    -0.355 OA
HETATM   17  C   UNL     1      43.559 -17.484   8.097  1.00  0.00     0.210 C 
ENDBRANCH  15  16
ENDBRANCH   7   9
ENDBRANCH   1   7
BRANCH   3  18
HETATM   18  C   UNL     1      41.438 -13.660   1.398  1.00  0.00     0.163 C 
BRANCH  18  19
HETATM   19  C   UNL     1      41.686 -13.484  -0.077  1.00  0.00    -0.035 A 
HETATM   20  C   UNL     1      41.256 -14.453  -0.988  1.00  0.00     0.066 A 
HETATM   21  C   UNL     1      41.498 -14.250  -2.338  1.00  0.00     0.164 A 
HETATM   22  N   UNL     1      42.117 -13.163  -2.840  1.00  0.00    -0.237 NA
HETATM   23  C   UNL     1      42.507 -12.229  -1.948  1.00  0.00     0.120 A 
HETATM   24  C   UNL     1      42.315 -12.339  -0.581  1.00  0.00     0.028 A 
BRANCH  21  25
HETATM   25  O   UNL     1      41.073 -15.244  -3.198  1.00  0.00    -0.329 OA
BRANCH  25  26
HETATM   26  C   UNL     1      39.823 -14.998  -3.880  1.00  0.00     0.130 C 
HETATM   27  C   UNL     1      38.915 -16.228  -4.143  1.00  0.00     0.032 C 
HETATM   28  C   UNL     1      37.710 -15.340  -3.785  1.00  0.00     0.005 C 
HETATM   29  C   UNL     1      38.683 -14.467  -2.971  1.00  0.00     0.032 C 
ENDBRANCH  25  26
ENDBRANCH  21  25
ENDBRANCH  18  19
ENDBRANCH   3  18
TORSDOF 7
ENDMDL
