MODEL 1
REMARK VINA RESULT:      -8.3      0.000      0.000
REMARK  2 active torsions:
REMARK  status: ('A' for Active; 'I' for Inactive)
REMARK    1  A    between atoms: C_5  and  C_7 
REMARK    2  A    between atoms: C_5  and  O_6 
ROOT
HETATM    1  C   UNL     1      41.690 -12.184   5.996  1.00  0.00     0.050 C 
HETATM    2  C   UNL     1      42.026 -13.265   5.017  1.00  0.00    -0.035 A 
HETATM    3  C   UNL     1      41.665 -14.589   5.212  1.00  0.00     0.051 A 
HETATM    4  C   UNL     1      42.008 -15.607   4.313  1.00  0.00     0.018 A 
HETATM    5  C   UNL     1      41.434 -16.922   4.792  1.00  0.00     0.198 A 
HETATM    6  C   UNL     1      40.773 -16.498   6.151  1.00  0.00     0.266 A 
HETATM    7  O   UNL     1      40.159 -17.186   6.951  1.00  0.00    -0.269 OA
HETATM    8  N   UNL     1      40.949 -15.119   6.278  1.00  0.00    -0.323 N 
HETATM    9  C   UNL     1      42.736 -15.318   3.169  1.00  0.00     0.013 A 
HETATM   10  C   UNL     1      43.132 -13.996   2.958  1.00  0.00     0.001 A 
HETATM   11  C   UNL     1      42.786 -12.984   3.871  1.00  0.00     0.009 A 
HETATM   12  H   UNL     1      40.595 -14.606   7.071  1.00  0.00     0.169 HD
ENDROOT
BRANCH   5  13
HETATM   13  C   UNL     1      42.563 -17.904   4.978  1.00  0.00     0.018 A 
HETATM   14  C   UNL     1      43.169 -18.797   4.017  1.00  0.00     0.002 A 
HETATM   15  C   UNL     1      44.192 -19.488   4.670  1.00  0.00     0.043 A 
HETATM   16  C   UNL     1      42.948 -19.091   2.653  1.00  0.00     0.014 A 
HETATM   17  C   UNL     1      44.993 -20.448   4.039  1.00  0.00     0.030 A 
HETATM   18  N   UNL     1      44.228 -19.035   5.966  1.00  0.00    -0.365 N 
HETATM   19  C   UNL     1      44.743 -20.721   2.693  1.00  0.00     0.002 A 
HETATM   20  C   UNL     1      43.735 -20.053   2.007  1.00  0.00     0.001 A 
HETATM   21  H   UNL     1      44.885 -19.350   6.667  1.00  0.00     0.165 HD
HETATM   22  C   UNL     1      43.259 -18.095   6.163  1.00  0.00     0.100 A 
ENDBRANCH   5  13
BRANCH   5  23
HETATM   23  O   UNL     1      40.464 -17.370   3.848  1.00  0.00    -0.371 OA
HETATM   24  H   UNL     1      40.563 -16.808   3.063  1.00  0.00     0.212 HD
ENDBRANCH   5  23
TORSDOF 2
ENDMDL
MODEL 2
REMARK VINA RESULT:      -8.2      1.902      5.797
REMARK  2 active torsions:
REMARK  status: ('A' for Active; 'I' for Inactive)
REMARK    1  A    between atoms: C_5  and  C_7 
REMARK    2  A    between atoms: C_5  and  O_6 
ROOT
HETATM    1  C   UNL     1      44.645 -21.717   5.490  1.00  0.00     0.050 C 
HETATM    2  C   UNL     1      44.396 -20.351   4.931  1.00  0.00    -0.035 A 
HETATM    3  C   UNL     1      44.111 -19.256   5.732  1.00  0.00     0.051 A 
HETATM    4  C   UNL     1      43.844 -17.986   5.207  1.00  0.00     0.018 A 
HETATM    5  C   UNL     1      43.611 -17.009   6.338  1.00  0.00     0.198 A 
HETATM    6  C   UNL     1      43.713 -17.949   7.590  1.00  0.00     0.266 A 
HETATM    7  O   UNL     1      43.607 -17.664   8.773  1.00  0.00    -0.269 OA
HETATM    8  N   UNL     1      44.029 -19.224   7.118  1.00  0.00    -0.323 N 
HETATM    9  C   UNL     1      43.859 -17.773   3.837  1.00  0.00     0.013 A 
HETATM   10  C   UNL     1      44.122 -18.863   3.005  1.00  0.00     0.001 A 
HETATM   11  C   UNL     1      44.383 -20.136   3.545  1.00  0.00     0.009 A 
HETATM   12  H   UNL     1      44.163 -20.007   7.740  1.00  0.00     0.169 HD
ENDROOT
BRANCH   5  13
HETATM   13  C   UNL     1      42.241 -16.402   6.179  1.00  0.00     0.018 A 
HETATM   14  C   UNL     1      41.863 -15.120   5.630  1.00  0.00     0.002 A 
HETATM   15  C   UNL     1      40.470 -15.031   5.683  1.00  0.00     0.043 A 
HETATM   16  C   UNL     1      42.568 -14.019   5.093  1.00  0.00     0.014 A 
HETATM   17  C   UNL     1      39.755 -13.912   5.236  1.00  0.00     0.030 A 
HETATM   18  N   UNL     1      40.007 -16.205   6.224  1.00  0.00    -0.365 N 
HETATM   19  C   UNL     1      40.483 -12.839   4.720  1.00  0.00     0.002 A 
HETATM   20  C   UNL     1      41.871 -12.889   4.648  1.00  0.00     0.001 A 
HETATM   21  H   UNL     1      39.031 -16.427   6.367  1.00  0.00     0.165 HD
HETATM   22  C   UNL     1      41.052 -17.027   6.529  1.00  0.00     0.100 A 
ENDBRANCH   5  13
BRANCH   5  23
HETATM   23  O   UNL     1      44.650 -16.032   6.322  1.00  0.00    -0.371 OA
HETATM   24  H   UNL     1      45.364 -16.379   6.879  1.00  0.00     0.212 HD
ENDBRANCH   5  23
TORSDOF 2
ENDMDL
MODEL 3
REMARK VINA RESULT:      -7.9      2.417      2.863
REMARK  2 active torsions:
REMARK  status: ('A' for Active; 'I' for Inactive)
REMARK    1  A    between atoms: C_5  and  C_7 
REMARK    2  A    between atoms: C_5  and  O_6 
ROOT
HETATM    1  C   UNL     1      39.452 -13.668   2.867  1.00  0.00     0.050 C 
HETATM    2  C   UNL     1      40.886 -14.098   2.873  1.00  0.00    -0.035 A 
HETATM    3  C   UNL     1      41.296 -15.340   2.415  1.00  0.00     0.051 A 
HETATM    4  C   UNL     1      42.633 -15.755   2.451  1.00  0.00     0.018 A 
HETATM    5  C   UNL     1      42.751 -17.136   1.846  1.00  0.00     0.198 A 
HETATM    6  C   UNL     1      41.251 -17.469   1.529  1.00  0.00     0.266 A 
HETATM    7  O   UNL     1      40.780 -18.475   1.020  1.00  0.00    -0.269 OA
HETATM    8  N   UNL     1      40.501 -16.345   1.879  1.00  0.00    -0.323 N 
HETATM    9  C   UNL     1      43.616 -14.918   2.956  1.00  0.00     0.013 A 
HETATM   10  C   UNL     1      43.229 -13.669   3.444  1.00  0.00     0.001 A 
HETATM   11  C   UNL     1      41.882 -13.265   3.407  1.00  0.00     0.009 A 
HETATM   12  H   UNL     1      39.500 -16.310   1.754  1.00  0.00     0.169 HD
ENDROOT
BRANCH   5  13
HETATM   13  C   UNL     1      43.347 -18.066   2.873  1.00  0.00     0.018 A 
HETATM   14  C   UNL     1      43.698 -19.462   2.752  1.00  0.00     0.002 A 
HETATM   15  C   UNL     1      44.237 -19.869   3.975  1.00  0.00     0.043 A 
HETATM   16  C   UNL     1      43.608 -20.426   1.724  1.00  0.00     0.014 A 
HETATM   17  C   UNL     1      44.682 -21.175   4.220  1.00  0.00     0.030 A 
HETATM   18  N   UNL     1      44.235 -18.776   4.806  1.00  0.00    -0.365 N 
HETATM   19  C   UNL     1      44.571 -22.105   3.186  1.00  0.00     0.002 A 
HETATM   20  C   UNL     1      44.041 -21.739   1.953  1.00  0.00     0.001 A 
HETATM   21  H   UNL     1      44.585 -18.774   5.754  1.00  0.00     0.165 HD
HETATM   22  C   UNL     1      43.702 -17.697   4.163  1.00  0.00     0.100 A 
ENDBRANCH   5  13
BRANCH   5  23
HETATM   23  O   UNL     1      43.538 -17.051   0.659  1.00  0.00    -0.371 OA
HETATM   24  H   UNL     1      43.226 -17.756   0.070  1.00  0.00     0.212 HD
ENDBRANCH   5  23
TORSDOF 2
ENDMDL
MODEL 4
REMARK VINA RESULT:      -7.7      1.703      6.045
REMARK  2 active torsions:
REMARK  status: ('A' for Active; 'I' for Inactive)
REMARK    1  A    between atoms: C_5  and  C_7 
REMARK    2  A    between atoms: C_5  and  O_6 
ROOT
HETATM    1  C   UNL     1      44.797 -20.878   2.449  1.00  0.00     0.050 C 
HETATM    2  C   UNL     1      44.286 -19.923   3.482  1.00  0.00    -0.035 A 
HETATM    3  C   UNL     1      43.314 -18.974   3.208  1.00  0.00     0.051 A 
HETATM    4  C   UNL     1      42.860 -18.059   4.166  1.00  0.00     0.018 A 
HETATM    5  C   UNL     1      41.777 -17.191   3.565  1.00  0.00     0.198 A 
HETATM    6  C   UNL     1      41.744 -17.712   2.085  1.00  0.00     0.266 A 
HETATM    7  O   UNL     1      41.033 -17.349   1.161  1.00  0.00    -0.269 OA
HETATM    8  N   UNL     1      42.660 -18.762   2.002  1.00  0.00    -0.323 N 
HETATM    9  C   UNL     1      43.377 -18.073   5.453  1.00  0.00     0.013 A 
HETATM   10  C   UNL     1      44.373 -19.004   5.751  1.00  0.00     0.001 A 
HETATM   11  C   UNL     1      44.825 -19.915   4.778  1.00  0.00     0.009 A 
HETATM   12  H   UNL     1      42.811 -19.273   1.145  1.00  0.00     0.169 HD
ENDROOT
BRANCH   5  13
HETATM   13  C   UNL     1      42.203 -15.749   3.663  1.00  0.00     0.018 A 
HETATM   14  C   UNL     1      41.615 -14.668   4.420  1.00  0.00     0.002 A 
HETATM   15  C   UNL     1      42.389 -13.526   4.197  1.00  0.00     0.043 A 
HETATM   16  C   UNL     1      40.496 -14.543   5.274  1.00  0.00     0.014 A 
HETATM   17  C   UNL     1      42.103 -12.282   4.774  1.00  0.00     0.030 A 
HETATM   18  N   UNL     1      43.413 -13.886   3.357  1.00  0.00    -0.365 N 
HETATM   19  C   UNL     1      40.985 -12.191   5.605  1.00  0.00     0.002 A 
HETATM   20  C   UNL     1      40.191 -13.305   5.854  1.00  0.00     0.001 A 
HETATM   21  H   UNL     1      44.140 -13.260   3.037  1.00  0.00     0.165 HD
HETATM   22  C   UNL     1      43.310 -15.205   3.027  1.00  0.00     0.100 A 
ENDBRANCH   5  13
BRANCH   5  23
HETATM   23  O   UNL     1      40.550 -17.450   4.246  1.00  0.00    -0.371 OA
HETATM   24  H   UNL     1      39.972 -16.692   4.070  1.00  0.00     0.212 HD
ENDBRANCH   5  23
TORSDOF 2
ENDMDL
MODEL 5
REMARK VINA RESULT:      -7.7      1.981      2.843
REMARK  2 active torsions:
REMARK  status: ('A' for Active; 'I' for Inactive)
REMARK    1  A    between atoms: C_5  and  C_7 
REMARK    2  A    between atoms: C_5  and  O_6 
ROOT
HETATM    1  C   UNL     1      39.920 -13.612   5.650  1.00  0.00     0.050 C 
HETATM    2  C   UNL     1      41.183 -13.933   4.913  1.00  0.00    -0.035 A 
HETATM    3  C   UNL     1      41.243 -14.895   3.918  1.00  0.00     0.051 A 
HETATM    4  C   UNL     1      42.432 -15.219   3.251  1.00  0.00     0.018 A 
HETATM    5  C   UNL     1      42.154 -16.273   2.202  1.00  0.00     0.198 A 
HETATM    6  C   UNL     1      40.627 -16.551   2.435  1.00  0.00     0.266 A 
HETATM    7  O   UNL     1      39.890 -17.325   1.843  1.00  0.00    -0.269 OA
HETATM    8  N   UNL     1      40.202 -15.678   3.437  1.00  0.00    -0.323 N 
HETATM    9  C   UNL     1      43.615 -14.570   3.568  1.00  0.00     0.013 A 
HETATM   10  C   UNL     1      43.588 -13.611   4.582  1.00  0.00     0.001 A 
HETATM   11  C   UNL     1      42.389 -13.299   5.248  1.00  0.00     0.009 A 
HETATM   12  H   UNL     1      39.244 -15.656   3.756  1.00  0.00     0.169 HD
ENDROOT
BRANCH   5  13
HETATM   13  C   UNL     1      43.013 -17.479   2.488  1.00  0.00     0.018 A 
HETATM   14  C   UNL     1      43.253 -18.158   3.740  1.00  0.00     0.002 A 
HETATM   15  C   UNL     1      44.105 -19.234   3.480  1.00  0.00     0.043 A 
HETATM   16  C   UNL     1      42.831 -17.965   5.075  1.00  0.00     0.014 A 
HETATM   17  C   UNL     1      44.556 -20.113   4.474  1.00  0.00     0.030 A 
HETATM   18  N   UNL     1      44.368 -19.229   2.133  1.00  0.00    -0.365 N 
HETATM   19  C   UNL     1      44.128 -19.888   5.784  1.00  0.00     0.002 A 
HETATM   20  C   UNL     1      43.277 -18.830   6.083  1.00  0.00     0.001 A 
HETATM   21  H   UNL     1      44.948 -19.908   1.658  1.00  0.00     0.165 HD
HETATM   22  C   UNL     1      43.728 -18.186   1.532  1.00  0.00     0.100 A 
ENDBRANCH   5  13
BRANCH   5  23
HETATM   23  O   UNL     1      42.401 -15.715   0.913  1.00  0.00    -0.371 OA
HETATM   24  H   UNL     1      42.938 -14.919   1.055  1.00  0.00     0.212 HD
ENDBRANCH   5  23
TORSDOF 2
ENDMDL
MODEL 6
REMARK VINA RESULT:      -7.6      2.701      5.845
REMARK  2 active torsions:
REMARK  status: ('A' for Active; 'I' for Inactive)
REMARK    1  A    between atoms: C_5  and  C_7 
REMARK    2  A    between atoms: C_5  and  O_6 
ROOT
HETATM    1  C   UNL     1      44.346 -20.021   5.864  1.00  0.00     0.050 C 
HETATM    2  C   UNL     1      44.096 -19.343   4.553  1.00  0.00    -0.035 A 
HETATM    3  C   UNL     1      43.559 -18.069   4.461  1.00  0.00     0.051 A 
HETATM    4  C   UNL     1      43.293 -17.447   3.234  1.00  0.00     0.018 A 
HETATM    5  C   UNL     1      42.750 -16.057   3.477  1.00  0.00     0.198 A 
HETATM    6  C   UNL     1      42.679 -16.018   5.044  1.00  0.00     0.266 A 
HETATM    7  O   UNL     1      42.310 -15.109   5.771  1.00  0.00    -0.269 OA
HETATM    8  N   UNL     1      43.195 -17.229   5.506  1.00  0.00    -0.323 N 
HETATM    9  C   UNL     1      43.567 -18.100   2.042  1.00  0.00     0.013 A 
HETATM   10  C   UNL     1      44.089 -19.393   2.104  1.00  0.00     0.001 A 
HETATM   11  C   UNL     1      44.346 -20.008   3.343  1.00  0.00     0.009 A 
HETATM   12  H   UNL     1      43.268 -17.439   6.490  1.00  0.00     0.169 HD
ENDROOT
BRANCH   5  13
HETATM   13  C   UNL     1      41.392 -15.948   2.831  1.00  0.00     0.018 A 
HETATM   14  C   UNL     1      40.633 -14.768   2.485  1.00  0.00     0.002 A 
HETATM   15  C   UNL     1      39.443 -15.191   1.888  1.00  0.00     0.043 A 
HETATM   16  C   UNL     1      40.837 -13.377   2.623  1.00  0.00     0.014 A 
HETATM   17  C   UNL     1      38.458 -14.307   1.430  1.00  0.00     0.030 A 
HETATM   18  N   UNL     1      39.471 -16.564   1.852  1.00  0.00    -0.365 N 
HETATM   19  C   UNL     1      38.687 -12.939   1.589  1.00  0.00     0.002 A 
HETATM   20  C   UNL     1      39.860 -12.477   2.177  1.00  0.00     0.001 A 
HETATM   21  H   UNL     1      38.743 -17.143   1.457  1.00  0.00     0.165 HD
HETATM   22  C   UNL     1      40.624 -17.026   2.416  1.00  0.00     0.100 A 
ENDBRANCH   5  13
BRANCH   5  23
HETATM   23  O   UNL     1      43.681 -15.105   2.964  1.00  0.00    -0.371 OA
HETATM   24  H   UNL     1      43.176 -14.296   2.782  1.00  0.00     0.212 HD
ENDBRANCH   5  23
TORSDOF 2
ENDMDL
MODEL 7
REMARK VINA RESULT:      -7.6      2.550      3.186
REMARK  2 active torsions:
REMARK  status: ('A' for Active; 'I' for Inactive)
REMARK    1  A    between atoms: C_5  and  C_7 
REMARK    2  A    between atoms: C_5  and  O_6 
ROOT
HETATM    1  C   UNL     1      41.772 -11.664   0.919  1.00  0.00     0.050 C 
HETATM    2  C   UNL     1      41.104 -12.711   1.755  1.00  0.00    -0.035 A 
HETATM    3  C   UNL     1      41.715 -13.292   2.855  1.00  0.00     0.051 A 
HETATM    4  C   UNL     1      41.104 -14.296   3.617  1.00  0.00     0.018 A 
HETATM    5  C   UNL     1      42.012 -14.687   4.761  1.00  0.00     0.198 A 
HETATM    6  C   UNL     1      43.273 -13.796   4.479  1.00  0.00     0.266 A 
HETATM    7  O   UNL     1      44.313 -13.718   5.115  1.00  0.00    -0.269 OA
HETATM    8  N   UNL     1      42.977 -13.012   3.364  1.00  0.00    -0.323 N 
HETATM    9  C   UNL     1      39.835 -14.751   3.292  1.00  0.00     0.013 A 
HETATM   10  C   UNL     1      39.204 -14.198   2.176  1.00  0.00     0.001 A 
HETATM   11  C   UNL     1      39.831 -13.195   1.416  1.00  0.00     0.009 A 
HETATM   12  H   UNL     1      43.632 -12.340   2.993  1.00  0.00     0.169 HD
ENDROOT
BRANCH   5  13
HETATM   13  C   UNL     1      42.310 -16.161   4.660  1.00  0.00     0.018 A 
HETATM   14  C   UNL     1      42.964 -16.895   3.601  1.00  0.00     0.002 A 
HETATM   15  C   UNL     1      43.021 -18.236   3.988  1.00  0.00     0.043 A 
HETATM   16  C   UNL     1      43.514 -16.553   2.345  1.00  0.00     0.014 A 
HETATM   17  C   UNL     1      43.588 -19.240   3.193  1.00  0.00     0.030 A 
HETATM   18  N   UNL     1      42.444 -18.326   5.231  1.00  0.00    -0.365 N 
HETATM   19  C   UNL     1      44.114 -18.870   1.955  1.00  0.00     0.002 A 
HETATM   20  C   UNL     1      44.079 -17.545   1.534  1.00  0.00     0.001 A 
HETATM   21  H   UNL     1      42.361 -19.180   5.765  1.00  0.00     0.165 HD
HETATM   22  C   UNL     1      42.012 -17.099   5.640  1.00  0.00     0.100 A 
ENDBRANCH   5  13
BRANCH   5  23
HETATM   23  O   UNL     1      41.378 -14.337   5.990  1.00  0.00    -0.371 OA
HETATM   24  H   UNL     1      40.500 -13.997   5.760  1.00  0.00     0.212 HD
ENDBRANCH   5  23
TORSDOF 2
ENDMDL
MODEL 8
REMARK VINA RESULT:      -7.2      2.111      6.090
REMARK  2 active torsions:
REMARK  status: ('A' for Active; 'I' for Inactive)
REMARK    1  A    between atoms: C_5  and  C_7 
REMARK    2  A    between atoms: C_5  and  O_6 
ROOT
HETATM    1  C   UNL     1      44.669 -19.875   5.458  1.00  0.00     0.050 C 
HETATM    2  C   UNL     1      44.018 -18.783   4.668  1.00  0.00    -0.035 A 
HETATM    3  C   UNL     1      43.853 -17.498   5.163  1.00  0.00     0.051 A 
HETATM    4  C   UNL     1      43.214 -16.485   4.438  1.00  0.00     0.018 A 
HETATM    5  C   UNL     1      43.233 -15.201   5.237  1.00  0.00     0.198 A 
HETATM    6  C   UNL     1      43.921 -15.670   6.568  1.00  0.00     0.266 A 
HETATM    7  O   UNL     1      44.189 -15.015   7.563  1.00  0.00    -0.269 OA
HETATM    8  N   UNL     1      44.257 -17.014   6.401  1.00  0.00    -0.323 N 
HETATM    9  C   UNL     1      42.714 -16.736   3.170  1.00  0.00     0.013 A 
HETATM   10  C   UNL     1      42.846 -18.027   2.654  1.00  0.00     0.001 A 
HETATM   11  C   UNL     1      43.486 -19.037   3.395  1.00  0.00     0.009 A 
HETATM   12  H   UNL     1      44.728 -17.541   7.122  1.00  0.00     0.169 HD
ENDROOT
BRANCH   5  13
HETATM   13  C   UNL     1      41.813 -14.741   5.449  1.00  0.00     0.018 A 
HETATM   14  C   UNL     1      41.236 -13.430   5.260  1.00  0.00     0.002 A 
HETATM   15  C   UNL     1      39.876 -13.519   5.568  1.00  0.00     0.043 A 
HETATM   16  C   UNL     1      41.734 -12.170   4.859  1.00  0.00     0.014 A 
HETATM   17  C   UNL     1      39.001 -12.427   5.500  1.00  0.00     0.030 A 
HETATM   18  N   UNL     1      39.621 -14.823   5.915  1.00  0.00    -0.365 N 
HETATM   19  C   UNL     1      39.528 -11.195   5.110  1.00  0.00     0.002 A 
HETATM   20  C   UNL     1      40.876 -11.065   4.793  1.00  0.00     0.001 A 
HETATM   21  H   UNL     1      38.712 -15.182   6.172  1.00  0.00     0.165 HD
HETATM   22  C   UNL     1      40.768 -15.559   5.853  1.00  0.00     0.100 A 
ENDBRANCH   5  13
BRANCH   5  23
HETATM   23  O   UNL     1      44.025 -14.239   4.541  1.00  0.00    -0.371 OA
HETATM   24  H   UNL     1      44.513 -13.743   5.217  1.00  0.00     0.212 HD
ENDBRANCH   5  23
TORSDOF 2
ENDMDL
MODEL 9
REMARK VINA RESULT:      -7.1      2.450      2.943
REMARK  2 active torsions:
REMARK  status: ('A' for Active; 'I' for Inactive)
REMARK    1  A    between atoms: C_5  and  C_7 
REMARK    2  A    between atoms: C_5  and  O_6 
ROOT
HETATM    1  C   UNL     1      40.603 -11.640   2.576  1.00  0.00     0.050 C 
HETATM    2  C   UNL     1      40.256 -13.093   2.474  1.00  0.00    -0.035 A 
HETATM    3  C   UNL     1      40.905 -14.070   3.212  1.00  0.00     0.051 A 
HETATM    4  C   UNL     1      40.604 -15.433   3.092  1.00  0.00     0.018 A 
HETATM    5  C   UNL     1      41.456 -16.227   4.056  1.00  0.00     0.198 A 
HETATM    6  C   UNL     1      42.346 -15.100   4.689  1.00  0.00     0.266 A 
HETATM    7  O   UNL     1      43.214 -15.199   5.543  1.00  0.00    -0.269 OA
HETATM    8  N   UNL     1      41.921 -13.889   4.141  1.00  0.00    -0.323 N 
HETATM    9  C   UNL     1      39.621 -15.860   2.212  1.00  0.00     0.013 A 
HETATM   10  C   UNL     1      38.966 -14.900   1.440  1.00  0.00     0.001 A 
HETATM   11  C   UNL     1      39.282 -13.535   1.566  1.00  0.00     0.009 A 
HETATM   12  H   UNL     1      42.336 -13.008   4.405  1.00  0.00     0.169 HD
ENDROOT
BRANCH   5  13
HETATM   13  C   UNL     1      42.263 -17.232   3.274  1.00  0.00     0.018 A 
HETATM   14  C   UNL     1      43.097 -18.311   3.752  1.00  0.00     0.002 A 
HETATM   15  C   UNL     1      43.613 -18.973   2.635  1.00  0.00     0.043 A 
HETATM   16  C   UNL     1      43.469 -18.792   5.027  1.00  0.00     0.014 A 
HETATM   17  C   UNL     1      44.474 -20.074   2.726  1.00  0.00     0.030 A 
HETATM   18  N   UNL     1      43.112 -18.345   1.521  1.00  0.00    -0.365 N 
HETATM   19  C   UNL     1      44.829 -20.518   4.001  1.00  0.00     0.002 A 
HETATM   20  C   UNL     1      44.335 -19.888   5.138  1.00  0.00     0.001 A 
HETATM   21  H   UNL     1      43.306 -18.623   0.569  1.00  0.00     0.165 HD
HETATM   22  C   UNL     1      42.311 -17.304   1.888  1.00  0.00     0.100 A 
ENDBRANCH   5  13
BRANCH   5  23
HETATM   23  O   UNL     1      40.605 -16.839   5.024  1.00  0.00    -0.371 OA
HETATM   24  H   UNL     1      39.701 -16.557   4.814  1.00  0.00     0.212 HD
ENDBRANCH   5  23
TORSDOF 2
ENDMDL
MODEL 10
REMARK VINA RESULT:      -7.1      2.930      6.596
REMARK  2 active torsions:
REMARK  status: ('A' for Active; 'I' for Inactive)
REMARK    1  A    between atoms: C_5  and  C_7 
REMARK    2  A    between atoms: C_5  and  O_6 
ROOT
HETATM    1  C   UNL     1      44.173 -19.736   2.490  1.00  0.00     0.050 C 
HETATM    2  C   UNL     1      43.217 -18.784   3.139  1.00  0.00    -0.035 A 
HETATM    3  C   UNL     1      42.490 -17.848   2.420  1.00  0.00     0.051 A 
HETATM    4  C   UNL     1      41.621 -16.935   3.030  1.00  0.00     0.018 A 
HETATM    5  C   UNL     1      40.957 -16.083   1.972  1.00  0.00     0.198 A 
HETATM    6  C   UNL     1      41.649 -16.610   0.666  1.00  0.00     0.266 A 
HETATM    7  O   UNL     1      41.471 -16.258  -0.491  1.00  0.00    -0.269 OA
HETATM    8  N   UNL     1      42.501 -17.648   1.046  1.00  0.00    -0.323 N 
HETATM    9  C   UNL     1      41.451 -16.939   4.406  1.00  0.00     0.013 A 
HETATM   10  C   UNL     1      42.187 -17.856   5.157  1.00  0.00     0.001 A 
HETATM   11  C   UNL     1      43.061 -18.764   4.533  1.00  0.00     0.009 A 
HETATM   12  H   UNL     1      43.052 -18.160   0.373  1.00  0.00     0.169 HD
ENDROOT
BRANCH   5  13
HETATM   13  C   UNL     1      41.269 -14.635   2.250  1.00  0.00     0.018 A 
HETATM   14  C   UNL     1      40.375 -13.503   2.335  1.00  0.00     0.002 A 
HETATM   15  C   UNL     1      41.145 -12.377   2.637  1.00  0.00     0.043 A 
HETATM   16  C   UNL     1      38.982 -13.321   2.182  1.00  0.00     0.014 A 
HETATM   17  C   UNL     1      40.602 -11.095   2.787  1.00  0.00     0.030 A 
HETATM   18  N   UNL     1      42.449 -12.794   2.748  1.00  0.00    -0.365 N 
HETATM   19  C   UNL     1      39.224 -10.948   2.621  1.00  0.00     0.002 A 
HETATM   20  C   UNL     1      38.423 -12.044   2.323  1.00  0.00     0.001 A 
HETATM   21  H   UNL     1      43.227 -12.190   2.977  1.00  0.00     0.165 HD
HETATM   22  C   UNL     1      42.537 -14.135   2.515  1.00  0.00     0.100 A 
ENDBRANCH   5  13
BRANCH   5  23
HETATM   23  O   UNL     1      39.556 -16.354   1.977  1.00  0.00    -0.371 OA
HETATM   24  H   UNL     1      39.189 -15.920   1.191  1.00  0.00     0.212 HD
ENDBRANCH   5  23
TORSDOF 2
ENDMDL
