MODEL 1
REMARK VINA RESULT:      -8.5      0.000      0.000
REMARK  4 active torsions:
REMARK  status: ('A' for Active; 'I' for Inactive)
REMARK    1  A    between atoms: C_2  and  C_3 
REMARK    2  A    between atoms: C_7  and  N_8 
REMARK       I    between atoms: N_8  and  C_9 
REMARK    3  A    between atoms: C_9  and  C_10 
REMARK    4  A    between atoms: C_12  and  C_13 
ROOT
HETATM    1  C   UNL     1      43.053 -15.953   5.999  1.00  0.00     0.149 A 
HETATM    2  N   UNL     1      44.145 -15.477   6.721  1.00  0.00    -0.223 NA
HETATM    3  C   UNL     1      43.944 -14.183   6.897  1.00  0.00     0.139 A 
HETATM    4  N   UNL     1      42.749 -13.814   6.321  1.00  0.00    -0.342 N 
HETATM    5  H   UNL     1      42.379 -12.876   6.294  1.00  0.00     0.167 HD
HETATM    6  C   UNL     1      42.173 -14.917   5.746  1.00  0.00     0.041 A 
HETATM    7  C   UNL     1      40.881 -14.874   5.025  1.00  0.00     0.071 C 
ENDROOT
BRANCH   1   8
HETATM    8  C   UNL     1      42.930 -17.360   5.587  1.00  0.00     0.278 C 
HETATM    9  N   UNL     1      44.160 -17.857   5.223  1.00  0.00    -0.304 N 
HETATM   10  H   UNL     1      44.936 -17.216   5.329  1.00  0.00     0.171 HD
HETATM   11  O   UNL     1      41.852 -17.939   5.601  1.00  0.00    -0.265 OA
BRANCH   9  12
HETATM   12  C   UNL     1      44.411 -19.105   4.706  1.00  0.00     0.158 A 
HETATM   13  N   UNL     1      44.749 -20.169   5.431  1.00  0.00    -0.156 NA
HETATM   14  N   UNL     1      44.848 -21.168   4.553  1.00  0.00    -0.280 N 
HETATM   15  C   UNL     1      44.595 -20.793   3.264  1.00  0.00     0.037 A 
HETATM   16  H   UNL     1      45.088 -22.088   4.906  1.00  0.00     0.189 HD
HETATM   17  C   UNL     1      44.322 -19.437   3.320  1.00  0.00     0.010 A 
HETATM   18  C   UNL     1      43.995 -18.545   2.179  1.00  0.00     0.054 C 
BRANCH  15  19
HETATM   19  C   UNL     1      44.639 -21.765   2.138  1.00  0.00     0.055 C 
HETATM   20  C   UNL     1      43.270 -21.939   1.497  1.00  0.00     0.011 C 
ENDBRANCH  15  19
ENDBRANCH   9  12
ENDBRANCH   1   8
BRANCH   3  21
HETATM   21  C   UNL     1      44.861 -13.250   7.559  1.00  0.00     0.012 A 
HETATM   22  C   UNL     1      44.410 -12.520   8.669  1.00  0.00     0.039 A 
HETATM   23  C   UNL     1      45.265 -11.640   9.331  1.00  0.00     0.035 A 
HETATM   24 CL   UNL     1      44.697 -10.762  10.699  1.00  0.00    -0.084 Cl
HETATM   25  C   UNL     1      46.577 -11.465   8.896  1.00  0.00     0.024 A 
HETATM   26  C   UNL     1      47.034 -12.174   7.788  1.00  0.00     0.003 A 
HETATM   27  C   UNL     1      46.182 -13.061   7.122  1.00  0.00     0.015 A 
ENDBRANCH   3  21
TORSDOF 4
ENDMDL
MODEL 2
REMARK VINA RESULT:      -8.4      6.809      9.246
REMARK  4 active torsions:
REMARK  status: ('A' for Active; 'I' for Inactive)
REMARK    1  A    between atoms: C_2  and  C_3 
REMARK    2  A    between atoms: C_7  and  N_8 
REMARK       I    between atoms: N_8  and  C_9 
REMARK    3  A    between atoms: C_9  and  C_10 
REMARK    4  A    between atoms: C_12  and  C_13 
ROOT
HETATM    1  C   UNL     1      41.002 -15.727   0.544  1.00  0.00     0.149 A 
HETATM    2  N   UNL     1      42.031 -16.655   0.672  1.00  0.00    -0.223 NA
HETATM    3  C   UNL     1      41.893 -17.207   1.864  1.00  0.00     0.139 A 
HETATM    4  N   UNL     1      40.797 -16.671   2.502  1.00  0.00    -0.342 N 
HETATM    5  H   UNL     1      40.492 -16.905   3.436  1.00  0.00     0.167 HD
HETATM    6  C   UNL     1      40.223 -15.732   1.686  1.00  0.00     0.041 A 
HETATM    7  C   UNL     1      39.027 -14.947   2.068  1.00  0.00     0.071 C 
ENDROOT
BRANCH   1   8
HETATM    8  C   UNL     1      40.838 -14.886  -0.653  1.00  0.00     0.278 C 
HETATM    9  N   UNL     1      42.016 -14.237  -0.941  1.00  0.00    -0.304 N 
HETATM   10  H   UNL     1      42.794 -14.459  -0.333  1.00  0.00     0.171 HD
HETATM   11  O   UNL     1      39.775 -14.833  -1.258  1.00  0.00    -0.265 OA
BRANCH   9  12
HETATM   12  C   UNL     1      42.210 -13.308  -1.934  1.00  0.00     0.158 A 
HETATM   13  N   UNL     1      42.231 -13.588  -3.236  1.00  0.00    -0.156 NA
HETATM   14  N   UNL     1      42.391 -12.409  -3.840  1.00  0.00    -0.280 N 
HETATM   15  C   UNL     1      42.488 -11.357  -2.974  1.00  0.00     0.037 A 
HETATM   16  H   UNL     1      42.422 -12.396  -4.854  1.00  0.00     0.189 HD
HETATM   17  C   UNL     1      42.392 -11.910  -1.708  1.00  0.00     0.010 A 
HETATM   18  C   UNL     1      42.452 -11.188  -0.412  1.00  0.00     0.054 C 
BRANCH  15  19
HETATM   19  C   UNL     1      42.656  -9.958  -3.451  1.00  0.00     0.055 C 
HETATM   20  C   UNL     1      42.500  -9.860  -4.961  1.00  0.00     0.011 C 
ENDBRANCH  15  19
ENDBRANCH   9  12
ENDBRANCH   1   8
BRANCH   3  21
HETATM   21  C   UNL     1      42.785 -18.206   2.460  1.00  0.00     0.012 A 
HETATM   22  C   UNL     1      42.988 -19.424   1.795  1.00  0.00     0.039 A 
HETATM   23  C   UNL     1      43.846 -20.387   2.327  1.00  0.00     0.035 A 
HETATM   24 CL   UNL     1      44.093 -21.870   1.490  1.00  0.00    -0.084 Cl
HETATM   25  C   UNL     1      44.508 -20.156   3.531  1.00  0.00     0.024 A 
HETATM   26  C   UNL     1      44.306 -18.956   4.209  1.00  0.00     0.003 A 
HETATM   27  C   UNL     1      43.449 -17.987   3.679  1.00  0.00     0.015 A 
ENDBRANCH   3  21
TORSDOF 4
ENDMDL
MODEL 3
REMARK VINA RESULT:      -8.0      6.411      8.934
REMARK  4 active torsions:
REMARK  status: ('A' for Active; 'I' for Inactive)
REMARK    1  A    between atoms: C_2  and  C_3 
REMARK    2  A    between atoms: C_7  and  N_8 
REMARK       I    between atoms: N_8  and  C_9 
REMARK    3  A    between atoms: C_9  and  C_10 
REMARK    4  A    between atoms: C_12  and  C_13 
ROOT
HETATM    1  C   UNL     1      41.986 -15.266   1.575  1.00  0.00     0.149 A 
HETATM    2  N   UNL     1      43.035 -16.145   1.828  1.00  0.00    -0.223 NA
HETATM    3  C   UNL     1      42.502 -17.214   2.393  1.00  0.00     0.139 A 
HETATM    4  N   UNL     1      41.139 -17.055   2.498  1.00  0.00    -0.342 N 
HETATM    5  H   UNL     1      40.504 -17.718   2.918  1.00  0.00     0.167 HD
HETATM    6  C   UNL     1      40.794 -15.830   1.991  1.00  0.00     0.041 A 
HETATM    7  C   UNL     1      39.401 -15.327   1.961  1.00  0.00     0.071 C 
ENDROOT
BRANCH   1   8
HETATM    8  C   UNL     1      42.192 -13.942   0.968  1.00  0.00     0.278 C 
HETATM    9  N   UNL     1      42.069 -14.023  -0.400  1.00  0.00    -0.304 N 
HETATM   10  H   UNL     1      41.827 -14.937  -0.760  1.00  0.00     0.171 HD
HETATM   11  O   UNL     1      42.425 -12.953   1.651  1.00  0.00    -0.265 OA
BRANCH   9  12
HETATM   12  C   UNL     1      42.281 -13.004  -1.296  1.00  0.00     0.158 A 
HETATM   13  N   UNL     1      42.883 -11.852  -1.002  1.00  0.00    -0.156 NA
HETATM   14  N   UNL     1      42.924 -11.181  -2.154  1.00  0.00    -0.280 N 
HETATM   15  C   UNL     1      42.358 -11.850  -3.201  1.00  0.00     0.037 A 
HETATM   16  H   UNL     1      43.362 -10.266  -2.154  1.00  0.00     0.189 HD
HETATM   17  C   UNL     1      41.906 -13.048  -2.673  1.00  0.00     0.010 A 
HETATM   18  C   UNL     1      41.201 -14.134  -3.400  1.00  0.00     0.054 C 
BRANCH  15  19
HETATM   19  C   UNL     1      42.318 -11.277  -4.573  1.00  0.00     0.055 C 
HETATM   20  C   UNL     1      40.962 -10.657  -4.880  1.00  0.00     0.011 C 
ENDBRANCH  15  19
ENDBRANCH   9  12
ENDBRANCH   1   8
BRANCH   3  21
HETATM   21  C   UNL     1      43.235 -18.385   2.885  1.00  0.00     0.012 A 
HETATM   22  C   UNL     1      43.359 -19.511   2.057  1.00  0.00     0.039 A 
HETATM   23  C   UNL     1      44.066 -20.633   2.489  1.00  0.00     0.035 A 
HETATM   24 CL   UNL     1      44.218 -22.000   1.454  1.00  0.00    -0.084 Cl
HETATM   25  C   UNL     1      44.652 -20.655   3.753  1.00  0.00     0.024 A 
HETATM   26  C   UNL     1      44.527 -19.549   4.590  1.00  0.00     0.003 A 
HETATM   27  C   UNL     1      43.821 -18.421   4.160  1.00  0.00     0.015 A 
ENDBRANCH   3  21
TORSDOF 4
ENDMDL
MODEL 4
REMARK VINA RESULT:      -8.0      6.321      8.806
REMARK  4 active torsions:
REMARK  status: ('A' for Active; 'I' for Inactive)
REMARK    1  A    between atoms: C_2  and  C_3 
REMARK    2  A    between atoms: C_7  and  N_8 
REMARK       I    between atoms: N_8  and  C_9 
REMARK    3  A    between atoms: C_9  and  C_10 
REMARK    4  A    between atoms: C_12  and  C_13 
ROOT
HETATM    1  C   UNL     1      41.655 -15.705   1.771  1.00  0.00     0.149 A 
HETATM    2  N   UNL     1      42.479 -16.816   1.620  1.00  0.00    -0.223 NA
HETATM    3  C   UNL     1      42.500 -17.431   2.790  1.00  0.00     0.139 A 
HETATM    4  N   UNL     1      41.702 -16.755   3.686  1.00  0.00    -0.342 N 
HETATM    5  H   UNL     1      41.570 -17.005   4.655  1.00  0.00     0.167 HD
HETATM    6  C   UNL     1      41.162 -15.661   3.062  1.00  0.00     0.041 A 
HETATM    7  C   UNL     1      40.262 -14.702   3.743  1.00  0.00     0.071 C 
ENDROOT
BRANCH   1   8
HETATM    8  C   UNL     1      41.403 -14.752   0.679  1.00  0.00     0.278 C 
HETATM    9  N   UNL     1      40.532 -15.298  -0.235  1.00  0.00    -0.304 N 
HETATM   10  H   UNL     1      40.181 -16.218  -0.004  1.00  0.00     0.171 HD
HETATM   11  O   UNL     1      41.925 -13.645   0.662  1.00  0.00    -0.265 OA
BRANCH   9  12
HETATM   12  C   UNL     1      40.138 -14.729  -1.422  1.00  0.00     0.158 A 
HETATM   13  N   UNL     1      40.794 -14.857  -2.575  1.00  0.00    -0.156 NA
HETATM   14  N   UNL     1      40.052 -14.199  -3.468  1.00  0.00    -0.280 N 
HETATM   15  C   UNL     1      38.930 -13.630  -2.938  1.00  0.00     0.037 A 
HETATM   16  H   UNL     1      40.372 -14.184  -4.430  1.00  0.00     0.189 HD
HETATM   17  C   UNL     1      38.960 -13.940  -1.588  1.00  0.00     0.010 A 
HETATM   18  C   UNL     1      37.967 -13.543  -0.559  1.00  0.00     0.054 C 
BRANCH  15  19
HETATM   19  C   UNL     1      37.965 -12.865  -3.772  1.00  0.00     0.055 C 
HETATM   20  C   UNL     1      36.731 -13.694  -4.100  1.00  0.00     0.011 C 
ENDBRANCH  15  19
ENDBRANCH   9  12
ENDBRANCH   1   8
BRANCH   3  21
HETATM   21  C   UNL     1      43.283 -18.625   3.123  1.00  0.00     0.012 A 
HETATM   22  C   UNL     1      43.363 -19.671   2.192  1.00  0.00     0.039 A 
HETATM   23  C   UNL     1      44.115 -20.811   2.471  1.00  0.00     0.035 A 
HETATM   24 CL   UNL     1      44.211 -22.079   1.311  1.00  0.00    -0.084 Cl
HETATM   25  C   UNL     1      44.793 -20.932   3.682  1.00  0.00     0.024 A 
HETATM   26  C   UNL     1      44.713 -19.906   4.621  1.00  0.00     0.003 A 
HETATM   27  C   UNL     1      43.962 -18.760   4.345  1.00  0.00     0.015 A 
ENDBRANCH   3  21
TORSDOF 4
ENDMDL
MODEL 5
REMARK VINA RESULT:      -8.0      4.052      8.519
REMARK  4 active torsions:
REMARK  status: ('A' for Active; 'I' for Inactive)
REMARK    1  A    between atoms: C_2  and  C_3 
REMARK    2  A    between atoms: C_7  and  N_8 
REMARK       I    between atoms: N_8  and  C_9 
REMARK    3  A    between atoms: C_9  and  C_10 
REMARK    4  A    between atoms: C_12  and  C_13 
ROOT
HETATM    1  C   UNL     1      43.201 -16.088   2.762  1.00  0.00     0.149 A 
HETATM    2  N   UNL     1      43.742 -17.255   3.293  1.00  0.00    -0.223 NA
HETATM    3  C   UNL     1      43.505 -18.213   2.413  1.00  0.00     0.139 A 
HETATM    4  N   UNL     1      42.840 -17.694   1.326  1.00  0.00    -0.342 N 
HETATM    5  H   UNL     1      42.520 -18.223   0.529  1.00  0.00     0.167 HD
HETATM    6  C   UNL     1      42.636 -16.354   1.529  1.00  0.00     0.041 A 
HETATM    7  C   UNL     1      41.933 -15.485   0.557  1.00  0.00     0.071 C 
ENDROOT
BRANCH   1   8
HETATM    8  C   UNL     1      43.247 -14.800   3.472  1.00  0.00     0.278 C 
HETATM    9  N   UNL     1      42.392 -14.823   4.550  1.00  0.00    -0.304 N 
HETATM   10  H   UNL     1      41.913 -15.699   4.705  1.00  0.00     0.171 HD
HETATM   11  O   UNL     1      43.976 -13.889   3.100  1.00  0.00    -0.265 OA
BRANCH   9  12
HETATM   12  C   UNL     1      42.114 -13.769   5.387  1.00  0.00     0.158 A 
HETATM   13  N   UNL     1      42.913 -13.353   6.368  1.00  0.00    -0.156 NA
HETATM   14  N   UNL     1      42.295 -12.292   6.890  1.00  0.00    -0.280 N 
HETATM   15  C   UNL     1      41.103 -12.000   6.289  1.00  0.00     0.037 A 
HETATM   16  H   UNL     1      42.749 -11.808   7.656  1.00  0.00     0.189 HD
HETATM   17  C   UNL     1      40.939 -12.963   5.307  1.00  0.00     0.010 A 
HETATM   18  C   UNL     1      39.792 -13.098   4.374  1.00  0.00     0.054 C 
BRANCH  15  19
HETATM   19  C   UNL     1      40.268 -10.846   6.716  1.00  0.00     0.055 C 
HETATM   20  C   UNL     1      40.957 -10.027   7.798  1.00  0.00     0.011 C 
ENDBRANCH  15  19
ENDBRANCH   9  12
ENDBRANCH   1   8
BRANCH   3  21
HETATM   21  C   UNL     1      43.846 -19.630   2.570  1.00  0.00     0.012 A 
HETATM   22  C   UNL     1      44.280 -20.095   3.820  1.00  0.00     0.039 A 
HETATM   23  C   UNL     1      44.594 -21.441   4.005  1.00  0.00     0.035 A 
HETATM   24 CL   UNL     1      45.112 -21.994   5.551  1.00  0.00    -0.084 Cl
HETATM   25  C   UNL     1      44.489 -22.344   2.950  1.00  0.00     0.024 A 
HETATM   26  C   UNL     1      44.071 -21.894   1.699  1.00  0.00     0.003 A 
HETATM   27  C   UNL     1      43.753 -20.546   1.509  1.00  0.00     0.015 A 
ENDBRANCH   3  21
TORSDOF 4
ENDMDL
MODEL 6
REMARK VINA RESULT:      -7.9      5.151      8.545
REMARK  4 active torsions:
REMARK  status: ('A' for Active; 'I' for Inactive)
REMARK    1  A    between atoms: C_2  and  C_3 
REMARK    2  A    between atoms: C_7  and  N_8 
REMARK       I    between atoms: N_8  and  C_9 
REMARK    3  A    between atoms: C_9  and  C_10 
REMARK    4  A    between atoms: C_12  and  C_13 
ROOT
HETATM    1  C   UNL     1      42.820 -16.015   2.739  1.00  0.00     0.149 A 
HETATM    2  N   UNL     1      42.942 -17.284   2.179  1.00  0.00    -0.223 NA
HETATM    3  C   UNL     1      43.422 -18.068   3.128  1.00  0.00     0.139 A 
HETATM    4  N   UNL     1      43.601 -17.344   4.285  1.00  0.00    -0.342 N 
HETATM    5  H   UNL     1      43.982 -17.705   5.147  1.00  0.00     0.167 HD
HETATM    6  C   UNL     1      43.229 -16.045   4.058  1.00  0.00     0.041 A 
HETATM    7  C   UNL     1      43.307 -14.987   5.092  1.00  0.00     0.071 C 
ENDROOT
BRANCH   1   8
HETATM    8  C   UNL     1      42.335 -14.856   1.973  1.00  0.00     0.278 C 
HETATM    9  N   UNL     1      41.333 -15.242   1.112  1.00  0.00    -0.304 N 
HETATM   10  H   UNL     1      41.067 -16.216   1.165  1.00  0.00     0.171 HD
HETATM   11  O   UNL     1      42.801 -13.737   2.141  1.00  0.00    -0.265 OA
BRANCH   9  12
HETATM   12  C   UNL     1      40.707 -14.444   0.185  1.00  0.00     0.158 A 
HETATM   13  N   UNL     1      41.298 -13.933  -0.893  1.00  0.00    -0.156 NA
HETATM   14  N   UNL     1      40.332 -13.275  -1.536  1.00  0.00    -0.280 N 
HETATM   15  C   UNL     1      39.120 -13.327  -0.909  1.00  0.00     0.037 A 
HETATM   16  H   UNL     1      40.571 -12.813  -2.407  1.00  0.00     0.189 HD
HETATM   17  C   UNL     1      39.329 -14.072   0.239  1.00  0.00     0.010 A 
HETATM   18  C   UNL     1      38.324 -14.413   1.278  1.00  0.00     0.054 C 
BRANCH  15  19
HETATM   19  C   UNL     1      37.911 -12.668  -1.474  1.00  0.00     0.055 C 
HETATM   20  C   UNL     1      38.206 -12.019  -2.819  1.00  0.00     0.011 C 
ENDBRANCH  15  19
ENDBRANCH   9  12
ENDBRANCH   1   8
BRANCH   3  21
HETATM   21  C   UNL     1      43.768 -19.486   2.982  1.00  0.00     0.012 A 
HETATM   22  C   UNL     1      44.348 -20.162   4.065  1.00  0.00     0.039 A 
HETATM   23  C   UNL     1      44.670 -21.516   3.963  1.00  0.00     0.035 A 
HETATM   24 CL   UNL     1      45.370 -22.332   5.307  1.00  0.00    -0.084 Cl
HETATM   25  C   UNL     1      44.428 -22.214   2.782  1.00  0.00     0.024 A 
HETATM   26  C   UNL     1      43.863 -21.551   1.695  1.00  0.00     0.003 A 
HETATM   27  C   UNL     1      43.536 -20.195   1.792  1.00  0.00     0.015 A 
ENDBRANCH   3  21
TORSDOF 4
ENDMDL
MODEL 7
REMARK VINA RESULT:      -7.8      5.000      8.394
REMARK  4 active torsions:
REMARK  status: ('A' for Active; 'I' for Inactive)
REMARK    1  A    between atoms: C_2  and  C_3 
REMARK    2  A    between atoms: C_7  and  N_8 
REMARK       I    between atoms: N_8  and  C_9 
REMARK    3  A    between atoms: C_9  and  C_10 
REMARK    4  A    between atoms: C_12  and  C_13 
ROOT
HETATM    1  C   UNL     1      42.311 -16.258   3.171  1.00  0.00     0.149 A 
HETATM    2  N   UNL     1      42.456 -17.501   2.561  1.00  0.00    -0.223 NA
HETATM    3  C   UNL     1      43.174 -18.243   3.386  1.00  0.00     0.139 A 
HETATM    4  N   UNL     1      43.484 -17.519   4.515  1.00  0.00    -0.342 N 
HETATM    5  H   UNL     1      44.047 -17.849   5.285  1.00  0.00     0.167 HD
HETATM    6  C   UNL     1      42.952 -16.261   4.396  1.00  0.00     0.041 A 
HETATM    7  C   UNL     1      43.108 -15.213   5.430  1.00  0.00     0.071 C 
ENDROOT
BRANCH   1   8
HETATM    8  C   UNL     1      41.585 -15.146   2.538  1.00  0.00     0.278 C 
HETATM    9  N   UNL     1      42.313 -14.643   1.484  1.00  0.00    -0.304 N 
HETATM   10  H   UNL     1      43.182 -15.122   1.290  1.00  0.00     0.171 HD
HETATM   11  O   UNL     1      40.488 -14.784   2.943  1.00  0.00    -0.265 OA
BRANCH   9  12
HETATM   12  C   UNL     1      41.985 -13.550   0.719  1.00  0.00     0.158 A 
HETATM   13  N   UNL     1      42.315 -12.294   1.016  1.00  0.00    -0.156 NA
HETATM   14  N   UNL     1      41.851 -11.566  -0.001  1.00  0.00    -0.280 N 
HETATM   15  C   UNL     1      41.215 -12.303  -0.959  1.00  0.00     0.037 A 
HETATM   16  H   UNL     1      42.010 -10.565   0.021  1.00  0.00     0.189 HD
HETATM   17  C   UNL     1      41.265 -13.613  -0.512  1.00  0.00     0.010 A 
HETATM   18  C   UNL     1      40.702 -14.809  -1.188  1.00  0.00     0.054 C 
BRANCH  15  19
HETATM   19  C   UNL     1      40.640 -11.679  -2.181  1.00  0.00     0.055 C 
HETATM   20  C   UNL     1      41.438 -12.048  -3.424  1.00  0.00     0.011 C 
ENDBRANCH  15  19
ENDBRANCH   9  12
ENDBRANCH   1   8
BRANCH   3  21
HETATM   21  C   UNL     1      43.625 -19.616   3.139  1.00  0.00     0.012 A 
HETATM   22  C   UNL     1      44.257 -20.324   4.172  1.00  0.00     0.039 A 
HETATM   23  C   UNL     1      44.681 -21.637   3.974  1.00  0.00     0.035 A 
HETATM   24 CL   UNL     1      45.444 -22.494   5.258  1.00  0.00    -0.084 Cl
HETATM   25  C   UNL     1      44.490 -22.264   2.745  1.00  0.00     0.024 A 
HETATM   26  C   UNL     1      43.875 -21.570   1.706  1.00  0.00     0.003 A 
HETATM   27  C   UNL     1      43.446 -20.253   1.900  1.00  0.00     0.015 A 
ENDBRANCH   3  21
TORSDOF 4
ENDMDL
MODEL 8
REMARK VINA RESULT:      -7.7      4.730      7.949
REMARK  4 active torsions:
REMARK  status: ('A' for Active; 'I' for Inactive)
REMARK    1  A    between atoms: C_2  and  C_3 
REMARK    2  A    between atoms: C_7  and  N_8 
REMARK       I    between atoms: N_8  and  C_9 
REMARK    3  A    between atoms: C_9  and  C_10 
REMARK    4  A    between atoms: C_12  and  C_13 
ROOT
HETATM    1  C   UNL     1      42.828 -16.036   4.295  1.00  0.00     0.149 A 
HETATM    2  N   UNL     1      42.903 -17.321   3.765  1.00  0.00    -0.223 NA
HETATM    3  C   UNL     1      43.622 -18.036   4.612  1.00  0.00     0.139 A 
HETATM    4  N   UNL     1      44.001 -17.253   5.678  1.00  0.00    -0.342 N 
HETATM    5  H   UNL     1      44.579 -17.554   6.449  1.00  0.00     0.167 HD
HETATM    6  C   UNL     1      43.513 -15.985   5.495  1.00  0.00     0.041 A 
HETATM    7  C   UNL     1      43.747 -14.879   6.451  1.00  0.00     0.071 C 
ENDROOT
BRANCH   1   8
HETATM    8  C   UNL     1      42.121 -14.939   3.615  1.00  0.00     0.278 C 
HETATM    9  N   UNL     1      42.598 -14.791   2.333  1.00  0.00    -0.304 N 
HETATM   10  H   UNL     1      43.305 -15.458   2.053  1.00  0.00     0.171 HD
HETATM   11  O   UNL     1      41.239 -14.302   4.174  1.00  0.00    -0.265 OA
BRANCH   9  12
HETATM   12  C   UNL     1      42.232 -13.814   1.438  1.00  0.00     0.158 A 
HETATM   13  N   UNL     1      42.445 -12.511   1.613  1.00  0.00    -0.156 NA
HETATM   14  N   UNL     1      41.987 -11.935   0.501  1.00  0.00    -0.280 N 
HETATM   15  C   UNL     1      41.467 -12.818  -0.402  1.00  0.00     0.037 A 
HETATM   16  H   UNL     1      42.067 -10.927   0.422  1.00  0.00     0.189 HD
HETATM   17  C   UNL     1      41.593 -14.065   0.187  1.00  0.00     0.010 A 
HETATM   18  C   UNL     1      41.164 -15.368  -0.383  1.00  0.00     0.054 C 
BRANCH  15  19
HETATM   19  C   UNL     1      40.919 -12.374  -1.712  1.00  0.00     0.055 C 
HETATM   20  C   UNL     1      39.404 -12.232  -1.663  1.00  0.00     0.011 C 
ENDBRANCH  15  19
ENDBRANCH   9  12
ENDBRANCH   1   8
BRANCH   3  21
HETATM   21  C   UNL     1      44.011 -19.439   4.441  1.00  0.00     0.012 A 
HETATM   22  C   UNL     1      43.989 -20.003   3.157  1.00  0.00     0.039 A 
HETATM   23  C   UNL     1      44.372 -21.330   2.960  1.00  0.00     0.035 A 
HETATM   24 CL   UNL     1      44.349 -22.001   1.375  1.00  0.00    -0.084 Cl
HETATM   25  C   UNL     1      44.775 -22.117   4.036  1.00  0.00     0.024 A 
HETATM   26  C   UNL     1      44.791 -21.573   5.319  1.00  0.00     0.003 A 
HETATM   27  C   UNL     1      44.410 -20.243   5.521  1.00  0.00     0.015 A 
ENDBRANCH   3  21
TORSDOF 4
ENDMDL
MODEL 9
REMARK VINA RESULT:      -7.7      4.267      8.627
REMARK  4 active torsions:
REMARK  status: ('A' for Active; 'I' for Inactive)
REMARK    1  A    between atoms: C_2  and  C_3 
REMARK    2  A    between atoms: C_7  and  N_8 
REMARK       I    between atoms: N_8  and  C_9 
REMARK    3  A    between atoms: C_9  and  C_10 
REMARK    4  A    between atoms: C_12  and  C_13 
ROOT
HETATM    1  C   UNL     1      42.713 -15.878   3.675  1.00  0.00     0.149 A 
HETATM    2  N   UNL     1      42.790 -17.061   2.945  1.00  0.00    -0.223 NA
HETATM    3  C   UNL     1      43.392 -17.944   3.722  1.00  0.00     0.139 A 
HETATM    4  N   UNL     1      43.693 -17.368   4.935  1.00  0.00    -0.342 N 
HETATM    5  H   UNL     1      44.179 -17.823   5.694  1.00  0.00     0.167 HD
HETATM    6  C   UNL     1      43.275 -16.062   4.924  1.00  0.00     0.041 A 
HETATM    7  C   UNL     1      43.457 -15.143   6.070  1.00  0.00     0.071 C 
ENDROOT
BRANCH   1   8
HETATM    8  C   UNL     1      42.121 -14.647   3.127  1.00  0.00     0.278 C 
HETATM    9  N   UNL     1      40.764 -14.632   3.351  1.00  0.00    -0.304 N 
HETATM   10  H   UNL     1      40.402 -15.419   3.873  1.00  0.00     0.171 HD
HETATM   11  O   UNL     1      42.808 -13.799   2.571  1.00  0.00    -0.265 OA
BRANCH   9  12
HETATM   12  C   UNL     1      39.877 -13.682   2.905  1.00  0.00     0.158 A 
HETATM   13  N   UNL     1      39.110 -13.814   1.825  1.00  0.00    -0.156 NA
HETATM   14  N   UNL     1      38.376 -12.700   1.785  1.00  0.00    -0.280 N 
HETATM   15  C   UNL     1      38.644 -11.830   2.803  1.00  0.00     0.037 A 
HETATM   16  H   UNL     1      37.703 -12.602   1.033  1.00  0.00     0.189 HD
HETATM   17  C   UNL     1      39.641 -12.432   3.552  1.00  0.00     0.010 A 
HETATM   18  C   UNL     1      40.296 -11.886   4.767  1.00  0.00     0.054 C 
BRANCH  15  19
HETATM   19  C   UNL     1      37.922 -10.537   2.944  1.00  0.00     0.055 C 
HETATM   20  C   UNL     1      36.909 -10.338   1.826  1.00  0.00     0.011 C 
ENDBRANCH  15  19
ENDBRANCH   9  12
ENDBRANCH   1   8
BRANCH   3  21
HETATM   21  C   UNL     1      43.741 -19.319   3.354  1.00  0.00     0.012 A 
HETATM   22  C   UNL     1      44.343 -20.150   4.311  1.00  0.00     0.039 A 
HETATM   23  C   UNL     1      44.669 -21.469   3.997  1.00  0.00     0.035 A 
HETATM   24 CL   UNL     1      45.395 -22.478   5.188  1.00  0.00    -0.084 Cl
HETATM   25  C   UNL     1      44.411 -21.979   2.727  1.00  0.00     0.024 A 
HETATM   26  C   UNL     1      43.825 -21.161   1.763  1.00  0.00     0.003 A 
HETATM   27  C   UNL     1      43.493 -19.839   2.073  1.00  0.00     0.015 A 
ENDBRANCH   3  21
TORSDOF 4
ENDMDL
MODEL 10
REMARK VINA RESULT:      -7.6      5.731      9.132
REMARK  4 active torsions:
REMARK  status: ('A' for Active; 'I' for Inactive)
REMARK    1  A    between atoms: C_2  and  C_3 
REMARK    2  A    between atoms: C_7  and  N_8 
REMARK       I    between atoms: N_8  and  C_9 
REMARK    3  A    between atoms: C_9  and  C_10 
REMARK    4  A    between atoms: C_12  and  C_13 
ROOT
HETATM    1  C   UNL     1      40.765 -15.870   1.734  1.00  0.00     0.149 A 
HETATM    2  N   UNL     1      41.331 -16.670   2.723  1.00  0.00    -0.223 NA
HETATM    3  C   UNL     1      42.284 -17.374   2.137  1.00  0.00     0.139 A 
HETATM    4  N   UNL     1      42.355 -17.042   0.803  1.00  0.00    -0.342 N 
HETATM    5  H   UNL     1      42.982 -17.458   0.130  1.00  0.00     0.167 HD
HETATM    6  C   UNL     1      41.402 -16.097   0.529  1.00  0.00     0.041 A 
HETATM    7  C   UNL     1      41.192 -15.525  -0.821  1.00  0.00     0.071 C 
ENDROOT
BRANCH   1   8
HETATM    8  C   UNL     1      39.644 -14.955   2.003  1.00  0.00     0.278 C 
HETATM    9  N   UNL     1      40.117 -13.750   2.469  1.00  0.00    -0.304 N 
HETATM   10  H   UNL     1      41.124 -13.668   2.516  1.00  0.00     0.171 HD
HETATM   11  O   UNL     1      38.483 -15.289   1.805  1.00  0.00    -0.265 OA
BRANCH   9  12
HETATM   12  C   UNL     1      39.355 -12.691   2.901  1.00  0.00     0.158 A 
HETATM   13  N   UNL     1      39.040 -12.458   4.174  1.00  0.00    -0.156 NA
HETATM   14  N   UNL     1      38.344 -11.320   4.153  1.00  0.00    -0.280 N 
HETATM   15  C   UNL     1      38.181 -10.799   2.901  1.00  0.00     0.037 A 
HETATM   16  H   UNL     1      38.013 -10.950   5.038  1.00  0.00     0.189 HD
HETATM   17  C   UNL     1      38.816 -11.683   2.046  1.00  0.00     0.010 A 
HETATM   18  C   UNL     1      38.917 -11.579   0.569  1.00  0.00     0.054 C 
BRANCH  15  19
HETATM   19  C   UNL     1      37.446  -9.526   2.667  1.00  0.00     0.055 C 
HETATM   20  C   UNL     1      36.071  -9.777   2.065  1.00  0.00     0.011 C 
ENDBRANCH  15  19
ENDBRANCH   9  12
ENDBRANCH   1   8
BRANCH   3  21
HETATM   21  C   UNL     1      43.119 -18.395   2.777  1.00  0.00     0.012 A 
HETATM   22  C   UNL     1      43.382 -19.590   2.092  1.00  0.00     0.039 A 
HETATM   23  C   UNL     1      44.188 -20.573   2.666  1.00  0.00     0.035 A 
HETATM   24 CL   UNL     1      44.511 -22.027   1.804  1.00  0.00    -0.084 Cl
HETATM   25  C   UNL     1      44.737 -20.386   3.933  1.00  0.00     0.024 A 
HETATM   26  C   UNL     1      44.474 -19.209   4.630  1.00  0.00     0.003 A 
HETATM   27  C   UNL     1      43.669 -18.220   4.058  1.00  0.00     0.015 A 
ENDBRANCH   3  21
TORSDOF 4
ENDMDL
