MODEL 1
REMARK VINA RESULT:      -9.3      0.000      0.000
REMARK  7 active torsions:
REMARK  status: ('A' for Active; 'I' for Inactive)
REMARK    1  A    between atoms: O_2  and  C_3 
REMARK    2  A    between atoms: C_4  and  O_5 
REMARK    3  A    between atoms: C_13  and  C_14 
REMARK       I    between atoms: C_14  and  N_15 
REMARK    4  A    between atoms: N_15  and  C_16 
REMARK    5  A    between atoms: C_16  and  C_17 
REMARK    6  A    between atoms: C_17  and  C_18 
REMARK    7  A    between atoms: C_18  and  C_19 
ROOT
HETATM    1  C   UNL     1      45.007 -12.548   8.699  1.00  0.00     0.268 C 
HETATM    2  N   UNL     1      44.197 -13.411   8.000  1.00  0.00    -0.356 N 
HETATM    3  O   UNL     1      46.199 -12.406   8.445  1.00  0.00    -0.266 OA
HETATM    4  H   UNL     1      43.264 -13.603   8.340  1.00  0.00     0.162 HD
ENDROOT
BRANCH   1   5
HETATM    5  C   UNL     1      44.369 -11.852   9.793  1.00  0.00     0.102 A 
HETATM    6  N   UNL     1      42.995 -11.785   9.889  1.00  0.00    -0.351 N 
HETATM    7  C   UNL     1      42.611 -11.023  10.964  1.00  0.00     0.045 A 
HETATM    8  H   UNL     1      42.367 -12.222   9.225  1.00  0.00     0.166 HD
HETATM    9  C   UNL     1      41.337 -10.665  11.414  1.00  0.00     0.070 A 
HETATM   10  C   UNL     1      43.772 -10.620  11.612  1.00  0.00    -0.004 A 
HETATM   11  C   UNL     1      41.233  -9.864  12.564  1.00  0.00     0.103 A 
HETATM   12  C   UNL     1      42.390  -9.410  13.218  1.00  0.00     0.102 A 
HETATM   13  C   UNL     1      43.659  -9.816  12.764  1.00  0.00     0.053 A 
HETATM   14  C   UNL     1      44.869 -11.158  10.881  1.00  0.00     0.049 A 
BRANCH  11  15
HETATM   15  O   UNL     1      39.927  -9.572  12.877  1.00  0.00    -0.353 OA
HETATM   16  C   UNL     1      38.974  -9.622  11.824  1.00  0.00     0.210 C 
ENDBRANCH  11  15
BRANCH  12  17
HETATM   17  O   UNL     1      42.257  -8.593  14.314  1.00  0.00    -0.353 OA
HETATM   18  C   UNL     1      42.228  -9.260  15.572  1.00  0.00     0.210 C 
ENDBRANCH  12  17
ENDBRANCH   1   5
BRANCH   2  19
HETATM   19  C   UNL     1      44.714 -14.301   6.986  1.00  0.00     0.123 C 
BRANCH  19  20
HETATM   20  C   UNL     1      43.809 -15.511   6.738  1.00  0.00     0.027 C 
BRANCH  20  21
HETATM   21  C   UNL     1      44.498 -16.868   6.905  1.00  0.00     0.080 C 
BRANCH  21  22
HETATM   22  C   UNL     1      44.311 -17.750   5.720  1.00  0.00     0.105 A 
HETATM   23  N   UNL     1      43.631 -17.462   4.628  1.00  0.00    -0.233 NA
HETATM   24  C   UNL     1      43.751 -18.568   3.818  1.00  0.00     0.085 A 
HETATM   25  C   UNL     1      44.522 -19.550   4.430  1.00  0.00     0.062 A 
HETATM   26  C   UNL     1      43.226 -18.808   2.541  1.00  0.00     0.034 A 
HETATM   27  N   UNL     1      44.863 -19.005   5.640  1.00  0.00    -0.343 N 
HETATM   28  C   UNL     1      44.814 -20.779   3.836  1.00  0.00     0.032 A 
HETATM   29  H   UNL     1      45.425 -19.451   6.352  1.00  0.00     0.167 HD
HETATM   30  C   UNL     1      44.283 -21.000   2.560  1.00  0.00     0.002 A 
HETATM   31  C   UNL     1      43.501 -20.035   1.921  1.00  0.00     0.002 A 
ENDBRANCH  21  22
ENDBRANCH  20  21
ENDBRANCH  19  20
ENDBRANCH   2  19
TORSDOF 7
ENDMDL
MODEL 2
REMARK VINA RESULT:      -8.8      0.805      1.788
REMARK  7 active torsions:
REMARK  status: ('A' for Active; 'I' for Inactive)
REMARK    1  A    between atoms: O_2  and  C_3 
REMARK    2  A    between atoms: C_4  and  O_5 
REMARK    3  A    between atoms: C_13  and  C_14 
REMARK       I    between atoms: C_14  and  N_15 
REMARK    4  A    between atoms: N_15  and  C_16 
REMARK    5  A    between atoms: C_16  and  C_17 
REMARK    6  A    between atoms: C_17  and  C_18 
REMARK    7  A    between atoms: C_18  and  C_19 
ROOT
HETATM    1  C   UNL     1      44.940 -12.585   8.607  1.00  0.00     0.268 C 
HETATM    2  N   UNL     1      44.183 -13.356   7.758  1.00  0.00    -0.356 N 
HETATM    3  O   UNL     1      46.157 -12.703   8.702  1.00  0.00    -0.266 OA
HETATM    4  H   UNL     1      43.174 -13.325   7.823  1.00  0.00     0.162 HD
ENDROOT
BRANCH   1   5
HETATM    5  C   UNL     1      44.194 -11.653   9.423  1.00  0.00     0.102 A 
HETATM    6  N   UNL     1      44.554 -11.407  10.731  1.00  0.00    -0.351 N 
HETATM    7  C   UNL     1      43.672 -10.543  11.331  1.00  0.00     0.045 A 
HETATM    8  H   UNL     1      45.351 -11.839  11.181  1.00  0.00     0.166 HD
HETATM    9  C   UNL     1      43.632 -10.052  12.639  1.00  0.00     0.070 A 
HETATM   10  C   UNL     1      42.736 -10.183  10.370  1.00  0.00    -0.004 A 
HETATM   11  C   UNL     1      42.601  -9.163  12.990  1.00  0.00     0.103 A 
HETATM   12  C   UNL     1      41.619  -8.811  12.050  1.00  0.00     0.102 A 
HETATM   13  C   UNL     1      41.705  -9.293  10.730  1.00  0.00     0.053 A 
HETATM   14  C   UNL     1      43.080 -10.871   9.171  1.00  0.00     0.049 A 
BRANCH  11  15
HETATM   15  O   UNL     1      42.672  -8.780  14.308  1.00  0.00    -0.353 OA
HETATM   16  C   UNL     1      42.132  -9.667  15.278  1.00  0.00     0.210 C 
ENDBRANCH  11  15
BRANCH  12  17
HETATM   17  O   UNL     1      40.600  -7.975  12.434  1.00  0.00    -0.353 OA
HETATM   18  C   UNL     1      39.389  -8.624  12.813  1.00  0.00     0.210 C 
ENDBRANCH  12  17
ENDBRANCH   1   5
BRANCH   2  19
HETATM   19  C   UNL     1      44.751 -14.444   6.995  1.00  0.00     0.123 C 
BRANCH  19  20
HETATM   20  C   UNL     1      43.752 -15.577   6.739  1.00  0.00     0.027 C 
BRANCH  20  21
HETATM   21  C   UNL     1      44.313 -16.984   6.962  1.00  0.00     0.080 C 
BRANCH  21  22
HETATM   22  C   UNL     1      44.177 -17.847   5.756  1.00  0.00     0.105 A 
HETATM   23  N   UNL     1      43.488 -17.571   4.668  1.00  0.00    -0.233 NA
HETATM   24  C   UNL     1      43.668 -18.651   3.834  1.00  0.00     0.085 A 
HETATM   25  C   UNL     1      44.487 -19.604   4.428  1.00  0.00     0.062 A 
HETATM   26  C   UNL     1      43.162 -18.888   2.549  1.00  0.00     0.034 A 
HETATM   27  N   UNL     1      44.793 -19.071   5.652  1.00  0.00    -0.343 N 
HETATM   28  C   UNL     1      44.844 -20.803   3.809  1.00  0.00     0.032 A 
HETATM   29  H   UNL     1      45.374 -19.502   6.356  1.00  0.00     0.167 HD
HETATM   30  C   UNL     1      44.331 -21.023   2.525  1.00  0.00     0.002 A 
HETATM   31  C   UNL     1      43.502 -20.085   1.903  1.00  0.00     0.002 A 
ENDBRANCH  21  22
ENDBRANCH  20  21
ENDBRANCH  19  20
ENDBRANCH   2  19
TORSDOF 7
ENDMDL
MODEL 3
REMARK VINA RESULT:      -8.7      6.364     10.602
REMARK  7 active torsions:
REMARK  status: ('A' for Active; 'I' for Inactive)
REMARK    1  A    between atoms: O_2  and  C_3 
REMARK    2  A    between atoms: C_4  and  O_5 
REMARK    3  A    between atoms: C_13  and  C_14 
REMARK       I    between atoms: C_14  and  N_15 
REMARK    4  A    between atoms: N_15  and  C_16 
REMARK    5  A    between atoms: C_16  and  C_17 
REMARK    6  A    between atoms: C_17  and  C_18 
REMARK    7  A    between atoms: C_18  and  C_19 
ROOT
HETATM    1  C   UNL     1      39.992 -15.553   1.532  1.00  0.00     0.268 C 
HETATM    2  N   UNL     1      40.182 -15.075   0.258  1.00  0.00    -0.356 N 
HETATM    3  O   UNL     1      39.138 -15.100   2.289  1.00  0.00    -0.266 OA
HETATM    4  H   UNL     1      40.990 -15.376  -0.271  1.00  0.00     0.162 HD
ENDROOT
BRANCH   1   5
HETATM    5  C   UNL     1      40.904 -16.597   1.942  1.00  0.00     0.102 A 
HETATM    6  N   UNL     1      41.454 -16.605   3.206  1.00  0.00    -0.351 N 
HETATM    7  C   UNL     1      42.337 -17.646   3.353  1.00  0.00     0.045 A 
HETATM    8  H   UNL     1      41.245 -15.908   3.911  1.00  0.00     0.166 HD
HETATM    9  C   UNL     1      43.136 -18.011   4.441  1.00  0.00     0.070 A 
HETATM   10  C   UNL     1      42.325 -18.361   2.163  1.00  0.00    -0.004 A 
HETATM   11  C   UNL     1      43.959 -19.143   4.318  1.00  0.00     0.103 A 
HETATM   12  C   UNL     1      43.997 -19.863   3.113  1.00  0.00     0.102 A 
HETATM   13  C   UNL     1      43.154 -19.495   2.047  1.00  0.00     0.053 A 
HETATM   14  C   UNL     1      41.411 -17.707   1.289  1.00  0.00     0.049 A 
BRANCH  11  15
HETATM   15  O   UNL     1      44.703 -19.370   5.450  1.00  0.00    -0.353 OA
HETATM   16  C   UNL     1      45.114 -18.237   6.203  1.00  0.00     0.210 C 
ENDBRANCH  11  15
BRANCH  12  17
HETATM   17  O   UNL     1      44.843 -20.940   3.008  1.00  0.00    -0.353 OA
HETATM   18  C   UNL     1      44.475 -21.912   2.034  1.00  0.00     0.210 C 
ENDBRANCH  12  17
ENDBRANCH   1   5
BRANCH   2  19
HETATM   19  C   UNL     1      39.466 -13.926  -0.248  1.00  0.00     0.123 C 
BRANCH  19  20
HETATM   20  C   UNL     1      40.394 -12.773  -0.643  1.00  0.00     0.027 C 
BRANCH  20  21
HETATM   21  C   UNL     1      40.632 -11.740   0.462  1.00  0.00     0.080 C 
BRANCH  21  22
HETATM   22  C   UNL     1      41.289 -12.330   1.661  1.00  0.00     0.105 A 
HETATM   23  N   UNL     1      42.476 -12.901   1.703  1.00  0.00    -0.233 NA
HETATM   24  C   UNL     1      42.656 -13.278   3.014  1.00  0.00     0.085 A 
HETATM   25  C   UNL     1      41.555 -12.927   3.787  1.00  0.00     0.062 A 
HETATM   26  C   UNL     1      43.739 -13.927   3.621  1.00  0.00     0.034 A 
HETATM   27  N   UNL     1      40.698 -12.329   2.901  1.00  0.00    -0.343 N 
HETATM   28  C   UNL     1      41.465 -13.183   5.156  1.00  0.00     0.032 A 
HETATM   29  H   UNL     1      39.788 -11.951   3.123  1.00  0.00     0.167 HD
HETATM   30  C   UNL     1      42.556 -13.831   5.746  1.00  0.00     0.002 A 
HETATM   31  C   UNL     1      43.676 -14.199   4.995  1.00  0.00     0.002 A 
ENDBRANCH  21  22
ENDBRANCH  20  21
ENDBRANCH  19  20
ENDBRANCH   2  19
TORSDOF 7
ENDMDL
MODEL 4
REMARK VINA RESULT:      -8.6      6.489     10.577
REMARK  7 active torsions:
REMARK  status: ('A' for Active; 'I' for Inactive)
REMARK    1  A    between atoms: O_2  and  C_3 
REMARK    2  A    between atoms: C_4  and  O_5 
REMARK    3  A    between atoms: C_13  and  C_14 
REMARK       I    between atoms: C_14  and  N_15 
REMARK    4  A    between atoms: N_15  and  C_16 
REMARK    5  A    between atoms: C_16  and  C_17 
REMARK    6  A    between atoms: C_17  and  C_18 
REMARK    7  A    between atoms: C_18  and  C_19 
ROOT
HETATM    1  C   UNL     1      40.094 -15.649   1.492  1.00  0.00     0.268 C 
HETATM    2  N   UNL     1      40.458 -15.255   0.227  1.00  0.00    -0.356 N 
HETATM    3  O   UNL     1      39.074 -15.248   2.044  1.00  0.00    -0.266 OA
HETATM    4  H   UNL     1      41.376 -15.494  -0.124  1.00  0.00     0.162 HD
ENDROOT
BRANCH   1   5
HETATM    5  C   UNL     1      41.026 -16.534   2.154  1.00  0.00     0.102 A 
HETATM    6  N   UNL     1      41.746 -17.470   1.443  1.00  0.00    -0.351 N 
HETATM    7  C   UNL     1      42.515 -18.241   2.279  1.00  0.00     0.045 A 
HETATM    8  H   UNL     1      41.680 -17.580   0.438  1.00  0.00     0.166 HD
HETATM    9  C   UNL     1      43.365 -19.315   1.998  1.00  0.00     0.070 A 
HETATM   10  C   UNL     1      42.322 -17.760   3.568  1.00  0.00    -0.004 A 
HETATM   11  C   UNL     1      44.043 -19.930   3.063  1.00  0.00     0.103 A 
HETATM   12  C   UNL     1      43.838 -19.491   4.381  1.00  0.00     0.102 A 
HETATM   13  C   UNL     1      43.005 -18.384   4.632  1.00  0.00     0.053 A 
HETATM   14  C   UNL     1      41.399 -16.680   3.479  1.00  0.00     0.049 A 
BRANCH  11  15
HETATM   15  O   UNL     1      44.822 -20.982   2.644  1.00  0.00    -0.353 OA
HETATM   16  C   UNL     1      44.271 -21.860   1.673  1.00  0.00     0.210 C 
ENDBRANCH  11  15
BRANCH  12  17
HETATM   17  O   UNL     1      44.481 -20.140   5.406  1.00  0.00    -0.353 OA
HETATM   18  C   UNL     1      43.833 -20.072   6.672  1.00  0.00     0.210 C 
ENDBRANCH  12  17
ENDBRANCH   1   5
BRANCH   2  19
HETATM   19  C   UNL     1      39.724 -14.249  -0.506  1.00  0.00     0.123 C 
BRANCH  19  20
HETATM   20  C   UNL     1      40.553 -12.992  -0.786  1.00  0.00     0.027 C 
BRANCH  20  21
HETATM   21  C   UNL     1      40.547 -11.960   0.345  1.00  0.00     0.080 C 
BRANCH  21  22
HETATM   22  C   UNL     1      41.231 -12.457   1.571  1.00  0.00     0.105 A 
HETATM   23  N   UNL     1      42.436 -12.986   1.637  1.00  0.00    -0.233 NA
HETATM   24  C   UNL     1      42.637 -13.278   2.966  1.00  0.00     0.085 A 
HETATM   25  C   UNL     1      41.531 -12.916   3.727  1.00  0.00     0.062 A 
HETATM   26  C   UNL     1      43.745 -13.855   3.602  1.00  0.00     0.034 A 
HETATM   27  N   UNL     1      40.648 -12.400   2.814  1.00  0.00    -0.343 N 
HETATM   28  C   UNL     1      41.458 -13.092   5.109  1.00  0.00     0.032 A 
HETATM   29  H   UNL     1      39.728 -12.038   3.021  1.00  0.00     0.167 HD
HETATM   30  C   UNL     1      42.574 -13.668   5.728  1.00  0.00     0.002 A 
HETATM   31  C   UNL     1      43.699 -14.046   4.990  1.00  0.00     0.002 A 
ENDBRANCH  21  22
ENDBRANCH  20  21
ENDBRANCH  19  20
ENDBRANCH   2  19
TORSDOF 7
ENDMDL
MODEL 5
REMARK VINA RESULT:      -8.5      6.016      8.205
REMARK  7 active torsions:
REMARK  status: ('A' for Active; 'I' for Inactive)
REMARK    1  A    between atoms: O_2  and  C_3 
REMARK    2  A    between atoms: C_4  and  O_5 
REMARK    3  A    between atoms: C_13  and  C_14 
REMARK       I    between atoms: C_14  and  N_15 
REMARK    4  A    between atoms: N_15  and  C_16 
REMARK    5  A    between atoms: C_16  and  C_17 
REMARK    6  A    between atoms: C_17  and  C_18 
REMARK    7  A    between atoms: C_18  and  C_19 
ROOT
HETATM    1  C   UNL     1      41.818 -16.276   6.264  1.00  0.00     0.268 C 
HETATM    2  N   UNL     1      42.990 -16.180   6.976  1.00  0.00    -0.356 N 
HETATM    3  O   UNL     1      40.873 -16.965   6.633  1.00  0.00    -0.266 OA
HETATM    4  H   UNL     1      43.789 -15.722   6.559  1.00  0.00     0.162 HD
ENDROOT
BRANCH   1   5
HETATM    5  C   UNL     1      41.793 -15.544   5.017  1.00  0.00     0.102 A 
HETATM    6  N   UNL     1      41.507 -16.178   3.826  1.00  0.00    -0.351 N 
HETATM    7  C   UNL     1      41.603 -15.307   2.769  1.00  0.00     0.045 A 
HETATM    8  H   UNL     1      41.288 -17.164   3.757  1.00  0.00     0.166 HD
HETATM    9  C   UNL     1      41.433 -15.522   1.399  1.00  0.00     0.070 A 
HETATM   10  C   UNL     1      41.916 -14.060   3.296  1.00  0.00    -0.004 A 
HETATM   11  C   UNL     1      41.591 -14.434   0.524  1.00  0.00     0.103 A 
HETATM   12  C   UNL     1      41.945 -13.170   1.024  1.00  0.00     0.102 A 
HETATM   13  C   UNL     1      42.073 -12.974   2.412  1.00  0.00     0.053 A 
HETATM   14  C   UNL     1      42.017 -14.214   4.707  1.00  0.00     0.049 A 
BRANCH  11  15
HETATM   15  O   UNL     1      41.418 -14.794  -0.790  1.00  0.00    -0.353 OA
HETATM   16  C   UNL     1      40.216 -14.386  -1.429  1.00  0.00     0.210 C 
ENDBRANCH  11  15
BRANCH  12  17
HETATM   17  O   UNL     1      42.134 -12.135   0.141  1.00  0.00    -0.353 OA
HETATM   18  C   UNL     1      41.336 -10.979   0.377  1.00  0.00     0.210 C 
ENDBRANCH  12  17
ENDBRANCH   1   5
BRANCH   2  19
HETATM   19  C   UNL     1      43.240 -16.975   8.156  1.00  0.00     0.123 C 
BRANCH  19  20
HETATM   20  C   UNL     1      44.127 -18.193   7.878  1.00  0.00     0.027 C 
BRANCH  20  21
HETATM   21  C   UNL     1      45.136 -17.999   6.743  1.00  0.00     0.080 C 
BRANCH  21  22
HETATM   22  C   UNL     1      44.739 -18.718   5.500  1.00  0.00     0.105 A 
HETATM   23  N   UNL     1      44.078 -18.212   4.479  1.00  0.00    -0.233 NA
HETATM   24  C   UNL     1      43.957 -19.240   3.573  1.00  0.00     0.085 A 
HETATM   25  C   UNL     1      44.561 -20.397   4.053  1.00  0.00     0.062 A 
HETATM   26  C   UNL     1      43.343 -19.261   2.314  1.00  0.00     0.034 A 
HETATM   27  N   UNL     1      45.047 -20.039   5.283  1.00  0.00    -0.343 N 
HETATM   28  C   UNL     1      44.596 -21.597   3.341  1.00  0.00     0.032 A 
HETATM   29  H   UNL     1      45.547 -20.643   5.919  1.00  0.00     0.167 HD
HETATM   30  C   UNL     1      43.979 -21.599   2.085  1.00  0.00     0.002 A 
HETATM   31  C   UNL     1      43.361 -20.453   1.577  1.00  0.00     0.002 A 
ENDBRANCH  21  22
ENDBRANCH  20  21
ENDBRANCH  19  20
ENDBRANCH   2  19
TORSDOF 7
ENDMDL
MODEL 6
REMARK VINA RESULT:      -8.4      3.966     11.154
REMARK  7 active torsions:
REMARK  status: ('A' for Active; 'I' for Inactive)
REMARK    1  A    between atoms: O_2  and  C_3 
REMARK    2  A    between atoms: C_4  and  O_5 
REMARK    3  A    between atoms: C_13  and  C_14 
REMARK       I    between atoms: C_14  and  N_15 
REMARK    4  A    between atoms: N_15  and  C_16 
REMARK    5  A    between atoms: C_16  and  C_17 
REMARK    6  A    between atoms: C_17  and  C_18 
REMARK    7  A    between atoms: C_18  and  C_19 
ROOT
HETATM    1  C   UNL     1      42.964 -14.137   3.547  1.00  0.00     0.268 C 
HETATM    2  N   UNL     1      42.384 -13.689   4.710  1.00  0.00    -0.356 N 
HETATM    3  O   UNL     1      43.192 -13.399   2.594  1.00  0.00    -0.266 OA
HETATM    4  H   UNL     1      42.083 -14.359   5.406  1.00  0.00     0.162 HD
ENDROOT
BRANCH   1   5
HETATM    5  C   UNL     1      43.244 -15.554   3.503  1.00  0.00     0.102 A 
HETATM    6  N   UNL     1      43.461 -16.273   4.660  1.00  0.00    -0.351 N 
HETATM    7  C   UNL     1      43.772 -17.580   4.377  1.00  0.00     0.045 A 
HETATM    8  H   UNL     1      43.422 -15.865   5.586  1.00  0.00     0.166 HD
HETATM    9  C   UNL     1      44.095 -18.640   5.229  1.00  0.00     0.070 A 
HETATM   10  C   UNL     1      43.710 -17.724   2.997  1.00  0.00    -0.004 A 
HETATM   11  C   UNL     1      44.371 -19.895   4.663  1.00  0.00     0.103 A 
HETATM   12  C   UNL     1      44.354 -20.062   3.269  1.00  0.00     0.102 A 
HETATM   13  C   UNL     1      43.990 -18.986   2.436  1.00  0.00     0.053 A 
HETATM   14  C   UNL     1      43.363 -16.453   2.458  1.00  0.00     0.049 A 
BRANCH  11  15
HETATM   15  O   UNL     1      44.694 -20.834   5.612  1.00  0.00    -0.353 OA
HETATM   16  C   UNL     1      43.775 -21.033   6.677  1.00  0.00     0.210 C 
ENDBRANCH  11  15
BRANCH  12  17
HETATM   17  O   UNL     1      44.671 -21.290   2.741  1.00  0.00    -0.353 OA
HETATM   18  C   UNL     1      43.835 -21.730   1.675  1.00  0.00     0.210 C 
ENDBRANCH  12  17
ENDBRANCH   1   5
BRANCH   2  19
HETATM   19  C   UNL     1      41.894 -12.337   4.855  1.00  0.00     0.123 C 
BRANCH  19  20
HETATM   20  C   UNL     1      41.299 -12.065   6.240  1.00  0.00     0.027 C 
BRANCH  20  21
HETATM   21  C   UNL     1      41.587 -10.668   6.793  1.00  0.00     0.080 C 
BRANCH  21  22
HETATM   22  C   UNL     1      41.930 -10.690   8.243  1.00  0.00     0.105 A 
HETATM   23  N   UNL     1      43.110 -10.441   8.773  1.00  0.00    -0.233 NA
HETATM   24  C   UNL     1      42.937 -10.569  10.132  1.00  0.00     0.085 A 
HETATM   25  C   UNL     1      41.622 -10.901  10.435  1.00  0.00     0.062 A 
HETATM   26  C   UNL     1      43.862 -10.416  11.173  1.00  0.00     0.034 A 
HETATM   27  N   UNL     1      41.003 -10.976   9.215  1.00  0.00    -0.343 N 
HETATM   28  C   UNL     1      41.158 -11.090  11.738  1.00  0.00     0.032 A 
HETATM   29  H   UNL     1      40.031 -11.201   9.059  1.00  0.00     0.167 HD
HETATM   30  C   UNL     1      42.095 -10.931  12.766  1.00  0.00     0.002 A 
HETATM   31  C   UNL     1      43.425 -10.601  12.492  1.00  0.00     0.002 A 
ENDBRANCH  21  22
ENDBRANCH  20  21
ENDBRANCH  19  20
ENDBRANCH   2  19
TORSDOF 7
ENDMDL
MODEL 7
REMARK VINA RESULT:      -8.4      1.381      2.085
REMARK  7 active torsions:
REMARK  status: ('A' for Active; 'I' for Inactive)
REMARK    1  A    between atoms: O_2  and  C_3 
REMARK    2  A    between atoms: C_4  and  O_5 
REMARK    3  A    between atoms: C_13  and  C_14 
REMARK       I    between atoms: C_14  and  N_15 
REMARK    4  A    between atoms: N_15  and  C_16 
REMARK    5  A    between atoms: C_16  and  C_17 
REMARK    6  A    between atoms: C_17  and  C_18 
REMARK    7  A    between atoms: C_18  and  C_19 
ROOT
HETATM    1  C   UNL     1      44.933 -12.615   8.809  1.00  0.00     0.268 C 
HETATM    2  N   UNL     1      44.109 -13.504   8.161  1.00  0.00    -0.356 N 
HETATM    3  O   UNL     1      46.118 -12.480   8.521  1.00  0.00    -0.266 OA
HETATM    4  H   UNL     1      43.185 -13.685   8.530  1.00  0.00     0.162 HD
ENDROOT
BRANCH   1   5
HETATM    5  C   UNL     1      44.318 -11.880   9.891  1.00  0.00     0.102 A 
HETATM    6  N   UNL     1      42.947 -11.795  10.005  1.00  0.00    -0.351 N 
HETATM    7  C   UNL     1      42.588 -10.998  11.063  1.00  0.00     0.045 A 
HETATM    8  H   UNL     1      42.305 -12.243   9.363  1.00  0.00     0.166 HD
HETATM    9  C   UNL     1      41.325 -10.612  11.521  1.00  0.00     0.070 A 
HETATM   10  C   UNL     1      43.763 -10.590  11.682  1.00  0.00    -0.004 A 
HETATM   11  C   UNL     1      41.246  -9.777  12.648  1.00  0.00     0.103 A 
HETATM   12  C   UNL     1      42.418  -9.318  13.272  1.00  0.00     0.102 A 
HETATM   13  C   UNL     1      43.676  -9.752  12.812  1.00  0.00     0.053 A 
HETATM   14  C   UNL     1      44.843 -11.161  10.951  1.00  0.00     0.049 A 
BRANCH  11  15
HETATM   15  O   UNL     1      39.949  -9.462  12.971  1.00  0.00    -0.353 OA
HETATM   16  C   UNL     1      39.322  -8.425  12.229  1.00  0.00     0.210 C 
ENDBRANCH  11  15
BRANCH  12  17
HETATM   17  O   UNL     1      42.310  -8.468  14.346  1.00  0.00    -0.353 OA
HETATM   18  C   UNL     1      42.247  -9.101  15.620  1.00  0.00     0.210 C 
ENDBRANCH  12  17
ENDBRANCH   1   5
BRANCH   2  19
HETATM   19  C   UNL     1      44.605 -14.430   7.169  1.00  0.00     0.123 C 
BRANCH  19  20
HETATM   20  C   UNL     1      43.946 -15.810   7.260  1.00  0.00     0.027 C 
BRANCH  20  21
HETATM   21  C   UNL     1      44.481 -16.838   6.260  1.00  0.00     0.080 C 
BRANCH  21  22
HETATM   22  C   UNL     1      43.615 -16.963   5.054  1.00  0.00     0.105 A 
HETATM   23  N   UNL     1      43.810 -17.768   4.029  1.00  0.00    -0.233 NA
HETATM   24  C   UNL     1      42.754 -17.540   3.177  1.00  0.00     0.085 A 
HETATM   25  C   UNL     1      41.897 -16.577   3.696  1.00  0.00     0.062 A 
HETATM   26  C   UNL     1      42.459 -18.121   1.936  1.00  0.00     0.034 A 
HETATM   27  N   UNL     1      42.470 -16.223   4.889  1.00  0.00    -0.343 N 
HETATM   28  C   UNL     1      40.738 -16.149   3.046  1.00  0.00     0.032 A 
HETATM   29  H   UNL     1      42.110 -15.536   5.537  1.00  0.00     0.167 HD
HETATM   30  C   UNL     1      40.458 -16.742   1.809  1.00  0.00     0.002 A 
HETATM   31  C   UNL     1      41.302 -17.711   1.260  1.00  0.00     0.002 A 
ENDBRANCH  21  22
ENDBRANCH  20  21
ENDBRANCH  19  20
ENDBRANCH   2  19
TORSDOF 7
ENDMDL
MODEL 8
REMARK VINA RESULT:      -8.3      6.196     10.390
REMARK  7 active torsions:
REMARK  status: ('A' for Active; 'I' for Inactive)
REMARK    1  A    between atoms: O_2  and  C_3 
REMARK    2  A    between atoms: C_4  and  O_5 
REMARK    3  A    between atoms: C_13  and  C_14 
REMARK       I    between atoms: C_14  and  N_15 
REMARK    4  A    between atoms: N_15  and  C_16 
REMARK    5  A    between atoms: C_16  and  C_17 
REMARK    6  A    between atoms: C_17  and  C_18 
REMARK    7  A    between atoms: C_18  and  C_19 
ROOT
HETATM    1  C   UNL     1      42.254 -13.954   3.181  1.00  0.00     0.268 C 
HETATM    2  N   UNL     1      41.811 -14.922   4.050  1.00  0.00    -0.356 N 
HETATM    3  O   UNL     1      42.799 -12.922   3.561  1.00  0.00    -0.266 OA
HETATM    4  H   UNL     1      41.239 -15.680   3.701  1.00  0.00     0.162 HD
ENDROOT
BRANCH   1   5
HETATM    5  C   UNL     1      41.988 -14.210   1.784  1.00  0.00     0.102 A 
HETATM    6  N   UNL     1      42.083 -13.204   0.845  1.00  0.00    -0.351 N 
HETATM    7  C   UNL     1      41.725 -13.657  -0.401  1.00  0.00     0.045 A 
HETATM    8  H   UNL     1      42.354 -12.255   1.070  1.00  0.00     0.166 HD
HETATM    9  C   UNL     1      41.643 -12.981  -1.622  1.00  0.00     0.070 A 
HETATM   10  C   UNL     1      41.432 -15.009  -0.274  1.00  0.00    -0.004 A 
HETATM   11  C   UNL     1      41.244 -13.701  -2.760  1.00  0.00     0.103 A 
HETATM   12  C   UNL     1      40.905 -15.060  -2.656  1.00  0.00     0.102 A 
HETATM   13  C   UNL     1      41.032 -15.724  -1.421  1.00  0.00     0.053 A 
HETATM   14  C   UNL     1      41.615 -15.352   1.095  1.00  0.00     0.049 A 
BRANCH  11  15
HETATM   15  O   UNL     1      41.186 -12.909  -3.882  1.00  0.00    -0.353 OA
HETATM   16  C   UNL     1      41.635 -11.566  -3.760  1.00  0.00     0.210 C 
ENDBRANCH  11  15
BRANCH  12  17
HETATM   17  O   UNL     1      40.477 -15.727  -3.778  1.00  0.00    -0.353 OA
HETATM   18  C   UNL     1      39.065 -15.772  -3.959  1.00  0.00     0.210 C 
ENDBRANCH  12  17
ENDBRANCH   1   5
BRANCH   2  19
HETATM   19  C   UNL     1      41.851 -14.747   5.483  1.00  0.00     0.123 C 
BRANCH  19  20
HETATM   20  C   UNL     1      42.144 -16.050   6.234  1.00  0.00     0.027 C 
BRANCH  20  21
HETATM   21  C   UNL     1      43.574 -16.570   6.073  1.00  0.00     0.080 C 
BRANCH  21  22
HETATM   22  C   UNL     1      43.665 -17.684   5.088  1.00  0.00     0.105 A 
HETATM   23  N   UNL     1      43.007 -17.780   3.951  1.00  0.00    -0.233 NA
HETATM   24  C   UNL     1      43.424 -18.963   3.383  1.00  0.00     0.085 A 
HETATM   25  C   UNL     1      44.359 -19.598   4.192  1.00  0.00     0.062 A 
HETATM   26  C   UNL     1      43.047 -19.561   2.173  1.00  0.00     0.034 A 
HETATM   27  N   UNL     1      44.492 -18.766   5.272  1.00  0.00    -0.343 N 
HETATM   28  C   UNL     1      44.958 -20.815   3.863  1.00  0.00     0.032 A 
HETATM   29  H   UNL     1      45.096 -18.920   6.067  1.00  0.00     0.167 HD
HETATM   30  C   UNL     1      44.571 -21.397   2.651  1.00  0.00     0.002 A 
HETATM   31  C   UNL     1      43.631 -20.785   1.818  1.00  0.00     0.002 A 
ENDBRANCH  21  22
ENDBRANCH  20  21
ENDBRANCH  19  20
ENDBRANCH   2  19
TORSDOF 7
ENDMDL
MODEL 9
REMARK VINA RESULT:      -8.3      6.362     10.272
REMARK  7 active torsions:
REMARK  status: ('A' for Active; 'I' for Inactive)
REMARK    1  A    between atoms: O_2  and  C_3 
REMARK    2  A    between atoms: C_4  and  O_5 
REMARK    3  A    between atoms: C_13  and  C_14 
REMARK       I    between atoms: C_14  and  N_15 
REMARK    4  A    between atoms: N_15  and  C_16 
REMARK    5  A    between atoms: C_16  and  C_17 
REMARK    6  A    between atoms: C_17  and  C_18 
REMARK    7  A    between atoms: C_18  and  C_19 
ROOT
HETATM    1  C   UNL     1      41.608 -15.465   3.518  1.00  0.00     0.268 C 
HETATM    2  N   UNL     1      42.345 -14.663   4.356  1.00  0.00    -0.356 N 
HETATM    3  O   UNL     1      41.070 -16.501   3.895  1.00  0.00    -0.266 OA
HETATM    4  H   UNL     1      42.889 -13.904   3.968  1.00  0.00     0.162 HD
ENDROOT
BRANCH   1   5
HETATM    5  C   UNL     1      41.551 -15.029   2.141  1.00  0.00     0.102 A 
HETATM    6  N   UNL     1      41.112 -15.874   1.144  1.00  0.00    -0.351 N 
HETATM    7  C   UNL     1      41.203 -15.275  -0.087  1.00  0.00     0.045 A 
HETATM    8  H   UNL     1      40.797 -16.822   1.315  1.00  0.00     0.166 HD
HETATM    9  C   UNL     1      40.904 -15.768  -1.361  1.00  0.00     0.070 A 
HETATM   10  C   UNL     1      41.673 -13.985   0.122  1.00  0.00    -0.004 A 
HETATM   11  C   UNL     1      41.092 -14.924  -2.468  1.00  0.00     0.103 A 
HETATM   12  C   UNL     1      41.601 -13.628  -2.291  1.00  0.00     0.102 A 
HETATM   13  C   UNL     1      41.859 -13.144  -0.994  1.00  0.00     0.053 A 
HETATM   14  C   UNL     1      41.873 -13.832   1.523  1.00  0.00     0.049 A 
BRANCH  11  15
HETATM   15  O   UNL     1      40.781 -15.545  -3.653  1.00  0.00    -0.353 OA
HETATM   16  C   UNL     1      39.419 -15.887  -3.877  1.00  0.00     0.210 C 
ENDBRANCH  11  15
BRANCH  12  17
HETATM   17  O   UNL     1      41.815 -12.840  -3.396  1.00  0.00    -0.353 OA
HETATM   18  C   UNL     1      40.753 -11.949  -3.724  1.00  0.00     0.210 C 
ENDBRANCH  12  17
ENDBRANCH   1   5
BRANCH   2  19
HETATM   19  C   UNL     1      42.637 -15.040   5.721  1.00  0.00     0.123 C 
BRANCH  19  20
HETATM   20  C   UNL     1      43.999 -15.724   5.871  1.00  0.00     0.027 C 
BRANCH  20  21
HETATM   21  C   UNL     1      43.949 -17.105   6.531  1.00  0.00     0.080 C 
BRANCH  21  22
HETATM   22  C   UNL     1      44.055 -18.213   5.542  1.00  0.00     0.105 A 
HETATM   23  N   UNL     1      44.536 -19.419   5.765  1.00  0.00    -0.233 NA
HETATM   24  C   UNL     1      44.419 -20.089   4.569  1.00  0.00     0.085 A 
HETATM   25  C   UNL     1      43.851 -19.273   3.597  1.00  0.00     0.062 A 
HETATM   26  C   UNL     1      44.777 -21.402   4.235  1.00  0.00     0.034 A 
HETATM   27  N   UNL     1      43.633 -18.083   4.241  1.00  0.00    -0.343 N 
HETATM   28  C   UNL     1      43.608 -19.691   2.288  1.00  0.00     0.032 A 
HETATM   29  H   UNL     1      43.229 -17.253   3.830  1.00  0.00     0.167 HD
HETATM   30  C   UNL     1      43.970 -21.006   1.973  1.00  0.00     0.002 A 
HETATM   31  C   UNL     1      44.546 -21.850   2.927  1.00  0.00     0.002 A 
ENDBRANCH  21  22
ENDBRANCH  20  21
ENDBRANCH  19  20
ENDBRANCH   2  19
TORSDOF 7
ENDMDL
MODEL 10
REMARK VINA RESULT:      -8.2      6.484     10.372
REMARK  7 active torsions:
REMARK  status: ('A' for Active; 'I' for Inactive)
REMARK    1  A    between atoms: O_2  and  C_3 
REMARK    2  A    between atoms: C_4  and  O_5 
REMARK    3  A    between atoms: C_13  and  C_14 
REMARK       I    between atoms: C_14  and  N_15 
REMARK    4  A    between atoms: N_15  and  C_16 
REMARK    5  A    between atoms: C_16  and  C_17 
REMARK    6  A    between atoms: C_17  and  C_18 
REMARK    7  A    between atoms: C_18  and  C_19 
ROOT
HETATM    1  C   UNL     1      41.169 -15.016   1.194  1.00  0.00     0.268 C 
HETATM    2  N   UNL     1      41.301 -13.958   2.061  1.00  0.00    -0.356 N 
HETATM    3  O   UNL     1      40.492 -14.955   0.172  1.00  0.00    -0.266 OA
HETATM    4  H   UNL     1      41.744 -14.102   2.959  1.00  0.00     0.162 HD
ENDROOT
BRANCH   1   5
HETATM    5  C   UNL     1      41.845 -16.229   1.595  1.00  0.00     0.102 A 
HETATM    6  N   UNL     1      42.351 -16.375   2.869  1.00  0.00    -0.351 N 
HETATM    7  C   UNL     1      43.005 -17.573   3.007  1.00  0.00     0.045 A 
HETATM    8  H   UNL     1      42.266 -15.666   3.587  1.00  0.00     0.166 HD
HETATM    9  C   UNL     1      43.688 -18.114   4.100  1.00  0.00     0.070 A 
HETATM   10  C   UNL     1      42.882 -18.246   1.797  1.00  0.00    -0.004 A 
HETATM   11  C   UNL     1      44.273 -19.384   3.964  1.00  0.00     0.103 A 
HETATM   12  C   UNL     1      44.197 -20.071   2.742  1.00  0.00     0.102 A 
HETATM   13  C   UNL     1      43.472 -19.519   1.668  1.00  0.00     0.053 A 
HETATM   14  C   UNL     1      42.139 -17.403   0.923  1.00  0.00     0.049 A 
BRANCH  11  15
HETATM   15  O   UNL     1      44.927 -19.779   5.106  1.00  0.00    -0.353 OA
HETATM   16  C   UNL     1      44.131 -20.142   6.226  1.00  0.00     0.210 C 
ENDBRANCH  11  15
BRANCH  12  17
HETATM   17  O   UNL     1      44.816 -21.292   2.625  1.00  0.00    -0.353 OA
HETATM   18  C   UNL     1      44.358 -22.107   1.550  1.00  0.00     0.210 C 
ENDBRANCH  12  17
ENDBRANCH   1   5
BRANCH   2  19
HETATM   19  C   UNL     1      40.560 -12.728   1.893  1.00  0.00     0.123 C 
BRANCH  19  20
HETATM   20  C   UNL     1      39.254 -12.706   2.694  1.00  0.00     0.027 C 
BRANCH  20  21
HETATM   21  C   UNL     1      39.429 -12.432   4.190  1.00  0.00     0.080 C 
BRANCH  21  22
HETATM   22  C   UNL     1      40.231 -13.485   4.871  1.00  0.00     0.105 A 
HETATM   23  N   UNL     1      41.515 -13.428   5.161  1.00  0.00    -0.233 NA
HETATM   24  C   UNL     1      41.803 -14.616   5.792  1.00  0.00     0.085 A 
HETATM   25  C   UNL     1      40.668 -15.413   5.892  1.00  0.00     0.062 A 
HETATM   26  C   UNL     1      43.017 -15.087   6.311  1.00  0.00     0.034 A 
HETATM   27  N   UNL     1      39.682 -14.671   5.295  1.00  0.00    -0.343 N 
HETATM   28  C   UNL     1      40.664 -16.673   6.492  1.00  0.00     0.032 A 
HETATM   29  H   UNL     1      38.718 -14.949   5.186  1.00  0.00     0.167 HD
HETATM   30  C   UNL     1      41.884 -17.127   7.006  1.00  0.00     0.002 A 
HETATM   31  C   UNL     1      43.043 -16.350   6.918  1.00  0.00     0.002 A 
ENDBRANCH  21  22
ENDBRANCH  20  21
ENDBRANCH  19  20
ENDBRANCH   2  19
TORSDOF 7
ENDMDL
