MODEL 1
REMARK VINA RESULT:      -8.9      0.000      0.000
REMARK  4 active torsions:
REMARK  status: ('A' for Active; 'I' for Inactive)
REMARK    1  A    between atoms: C_5  and  C_6 
REMARK    2  A    between atoms: C_6  and  N_7 
REMARK    3  A    between atoms: C_6  and  C_18 
REMARK    4  A    between atoms: N_7  and  C_8 
ROOT
HETATM    1  C   UNL     1      42.888 -17.833   2.825  1.00  0.00     0.290 C 
ENDROOT
BRANCH   1   2
HETATM    2  C   UNL     1      43.493 -19.230   2.877  1.00  0.00     0.021 A 
HETATM    3  C   UNL     1      43.269 -20.203   1.888  1.00  0.00     0.055 A 
HETATM    4  C   UNL     1      43.870 -21.458   1.979  1.00  0.00     0.117 A 
HETATM    5  C   UNL     1      44.700 -21.783   3.044  1.00  0.00     0.045 A 
HETATM    6  F   UNL     1      43.642 -22.360   1.017  1.00  0.00    -0.206 F 
HETATM    7  C   UNL     1      44.940 -20.832   4.032  1.00  0.00     0.046 A 
HETATM    8  C   UNL     1      44.346 -19.573   3.938  1.00  0.00     0.125 A 
HETATM    9  F   UNL     1      44.619 -18.672   4.892  1.00  0.00    -0.205 F 
ENDBRANCH   1   2
BRANCH   1  10
HETATM   10  N   UNL     1      41.868 -17.693   1.751  1.00  0.00     0.101 NA
HETATM   11  H   UNL     1      41.059 -18.237   2.060  1.00  0.00     0.317 HD
BRANCH  10  12
HETATM   12  C   UNL     1      41.438 -16.359   1.318  1.00  0.00     0.225 C 
HETATM   13  C   UNL     1      41.448 -16.159  -0.214  1.00  0.00     0.069 C 
HETATM   14  C   UNL     1      40.860 -14.806  -0.566  1.00  0.00     0.190 C 
HETATM   15  N   UNL     1      39.447 -14.753  -0.054  1.00  0.00    -0.067 N 
HETATM   16  C   UNL     1      40.656 -14.503  -2.036  1.00  0.00     0.035 C 
HETATM   17  H   UNL     1      38.950 -15.579  -0.420  1.00  0.00     0.280 HD
HETATM   18  C   UNL     1      39.385 -14.821   1.435  1.00  0.00     0.237 C 
HETATM   19  C   UNL     1      38.819 -13.559  -0.724  1.00  0.00     0.235 C 
HETATM   20  C   UNL     1      40.007 -16.145   1.875  1.00  0.00     0.063 C 
HETATM   21  C   UNL     1      39.631 -13.371  -2.006  1.00  0.00     0.030 C 
ENDBRANCH  10  12
ENDBRANCH   1  10
BRANCH   1  22
HETATM   22  C   UNL     1      42.487 -17.160   4.139  1.00  0.00    -0.018 A 
HETATM   23  C   UNL     1      43.064 -15.977   4.618  1.00  0.00     0.029 A 
HETATM   24  C   UNL     1      42.619 -15.444   5.820  1.00  0.00     0.116 A 
HETATM   25  N   UNL     1      41.634 -15.987   6.565  1.00  0.00    -0.273 NA
HETATM   26  C   UNL     1      41.031 -17.081   6.065  1.00  0.00     0.116 A 
HETATM   27  C   UNL     1      41.412 -17.687   4.877  1.00  0.00     0.029 A 
ENDBRANCH   1  22
TORSDOF 4
ENDMDL
MODEL 2
REMARK VINA RESULT:      -8.8      1.539      2.204
REMARK  4 active torsions:
REMARK  status: ('A' for Active; 'I' for Inactive)
REMARK    1  A    between atoms: C_5  and  C_6 
REMARK    2  A    between atoms: C_6  and  N_7 
REMARK    3  A    between atoms: C_6  and  C_18 
REMARK    4  A    between atoms: N_7  and  C_8 
ROOT
HETATM    1  C   UNL     1      43.387 -18.408   3.687  1.00  0.00     0.290 C 
ENDROOT
BRANCH   1   2
HETATM    2  C   UNL     1      43.928 -19.828   3.590  1.00  0.00     0.021 A 
HETATM    3  C   UNL     1      44.382 -20.557   4.703  1.00  0.00     0.055 A 
HETATM    4  C   UNL     1      44.845 -21.864   4.554  1.00  0.00     0.117 A 
HETATM    5  C   UNL     1      44.875 -22.480   3.310  1.00  0.00     0.045 A 
HETATM    6  F   UNL     1      45.263 -22.533   5.636  1.00  0.00    -0.206 F 
HETATM    7  C   UNL     1      44.424 -21.778   2.195  1.00  0.00     0.046 A 
HETATM    8  C   UNL     1      43.953 -20.474   2.344  1.00  0.00     0.125 A 
HETATM    9  F   UNL     1      43.502 -19.836   1.254  1.00  0.00    -0.205 F 
ENDBRANCH   1   2
BRANCH   1  10
HETATM   10  N   UNL     1      42.162 -18.206   2.868  1.00  0.00     0.101 NA
HETATM   11  H   UNL     1      41.375 -18.435   3.480  1.00  0.00     0.317 HD
BRANCH  10  12
HETATM   12  C   UNL     1      41.925 -16.918   2.208  1.00  0.00     0.225 C 
HETATM   13  C   UNL     1      41.802 -17.009   0.671  1.00  0.00     0.069 C 
HETATM   14  C   UNL     1      41.423 -15.657   0.098  1.00  0.00     0.190 C 
HETATM   15  N   UNL     1      40.105 -15.241   0.690  1.00  0.00    -0.067 N 
HETATM   16  C   UNL     1      41.116 -15.597  -1.384  1.00  0.00     0.035 C 
HETATM   17  H   UNL     1      39.435 -16.010   0.535  1.00  0.00     0.280 HD
HETATM   18  C   UNL     1      40.194 -15.021   2.164  1.00  0.00     0.237 C 
HETATM   19  C   UNL     1      39.624 -14.094  -0.158  1.00  0.00     0.235 C 
HETATM   20  C   UNL     1      40.622 -16.335   2.814  1.00  0.00     0.063 C 
HETATM   21  C   UNL     1      40.312 -14.304  -1.508  1.00  0.00     0.030 C 
ENDBRANCH  10  12
ENDBRANCH   1  10
BRANCH   1  22
HETATM   22  C   UNL     1      43.317 -17.743   5.064  1.00  0.00    -0.018 A 
HETATM   23  C   UNL     1      42.186 -17.773   5.889  1.00  0.00     0.029 A 
HETATM   24  C   UNL     1      42.232 -17.144   7.125  1.00  0.00     0.116 A 
HETATM   25  N   UNL     1      43.321 -16.511   7.607  1.00  0.00    -0.273 NA
HETATM   26  C   UNL     1      44.429 -16.549   6.844  1.00  0.00     0.116 A 
HETATM   27  C   UNL     1      44.475 -17.146   5.594  1.00  0.00     0.029 A 
ENDBRANCH   1  22
TORSDOF 4
ENDMDL
MODEL 3
REMARK VINA RESULT:      -8.4      2.007      4.377
REMARK  4 active torsions:
REMARK  status: ('A' for Active; 'I' for Inactive)
REMARK    1  A    between atoms: C_5  and  C_6 
REMARK    2  A    between atoms: C_6  and  N_7 
REMARK    3  A    between atoms: C_6  and  C_18 
REMARK    4  A    between atoms: N_7  and  C_8 
ROOT
HETATM    1  C   UNL     1      42.711 -18.337   3.271  1.00  0.00     0.290 C 
ENDROOT
BRANCH   1   2
HETATM    2  C   UNL     1      42.819 -17.680   4.641  1.00  0.00     0.021 A 
HETATM    3  C   UNL     1      43.979 -17.027   5.092  1.00  0.00     0.055 A 
HETATM    4  C   UNL     1      44.010 -16.424   6.349  1.00  0.00     0.117 A 
HETATM    5  C   UNL     1      42.904 -16.451   7.188  1.00  0.00     0.045 A 
HETATM    6  F   UNL     1      45.128 -15.803   6.745  1.00  0.00    -0.206 F 
HETATM    7  C   UNL     1      41.743 -17.088   6.759  1.00  0.00     0.046 A 
HETATM    8  C   UNL     1      41.708 -17.685   5.499  1.00  0.00     0.125 A 
HETATM    9  F   UNL     1      40.565 -18.266   5.105  1.00  0.00    -0.205 F 
ENDBRANCH   1   2
BRANCH   1  10
HETATM   10  N   UNL     1      42.905 -17.371   2.157  1.00  0.00     0.101 NA
HETATM   11  H   UNL     1      42.902 -17.929   1.299  1.00  0.00     0.317 HD
BRANCH  10  12
HETATM   12  C   UNL     1      42.000 -16.226   2.013  1.00  0.00     0.225 C 
HETATM   13  C   UNL     1      42.184 -15.438   0.697  1.00  0.00     0.069 C 
HETATM   14  C   UNL     1      41.118 -14.365   0.579  1.00  0.00     0.190 C 
HETATM   15  N   UNL     1      39.770 -15.031   0.590  1.00  0.00    -0.067 N 
HETATM   16  C   UNL     1      41.058 -13.592  -0.722  1.00  0.00     0.035 C 
HETATM   17  H   UNL     1      39.773 -15.758  -0.142  1.00  0.00     0.280 HD
HETATM   18  C   UNL     1      39.488 -15.710   1.888  1.00  0.00     0.237 C 
HETATM   19  C   UNL     1      38.796 -13.980   0.126  1.00  0.00     0.235 C 
HETATM   20  C   UNL     1      40.555 -16.781   2.105  1.00  0.00     0.063 C 
HETATM   21  C   UNL     1      39.644 -13.015  -0.704  1.00  0.00     0.030 C 
ENDBRANCH  10  12
ENDBRANCH   1  10
BRANCH   1  22
HETATM   22  C   UNL     1      43.412 -19.679   3.046  1.00  0.00    -0.018 A 
HETATM   23  C   UNL     1      44.240 -20.296   3.992  1.00  0.00     0.029 A 
HETATM   24  C   UNL     1      44.821 -21.520   3.689  1.00  0.00     0.116 A 
HETATM   25  N   UNL     1      44.622 -22.180   2.530  1.00  0.00    -0.273 NA
HETATM   26  C   UNL     1      43.767 -21.620   1.654  1.00  0.00     0.116 A 
HETATM   27  C   UNL     1      43.147 -20.399   1.867  1.00  0.00     0.029 A 
ENDBRANCH   1  22
TORSDOF 4
ENDMDL
MODEL 4
REMARK VINA RESULT:      -8.4      3.549      7.577
REMARK  4 active torsions:
REMARK  status: ('A' for Active; 'I' for Inactive)
REMARK    1  A    between atoms: C_5  and  C_6 
REMARK    2  A    between atoms: C_6  and  N_7 
REMARK    3  A    between atoms: C_6  and  C_18 
REMARK    4  A    between atoms: N_7  and  C_8 
ROOT
HETATM    1  C   UNL     1      40.938 -14.613  -0.969  1.00  0.00     0.290 C 
ENDROOT
BRANCH   1   2
HETATM    2  C   UNL     1      39.862 -14.761  -2.037  1.00  0.00     0.021 A 
HETATM    3  C   UNL     1      39.984 -15.624  -3.139  1.00  0.00     0.055 A 
HETATM    4  C   UNL     1      38.954 -15.732  -4.073  1.00  0.00     0.117 A 
HETATM    5  C   UNL     1      37.785 -14.993  -3.944  1.00  0.00     0.045 A 
HETATM    6  F   UNL     1      39.098 -16.570  -5.106  1.00  0.00    -0.206 F 
HETATM    7  C   UNL     1      37.641 -14.135  -2.857  1.00  0.00     0.046 A 
HETATM    8  C   UNL     1      38.668 -14.032  -1.918  1.00  0.00     0.125 A 
HETATM    9  F   UNL     1      38.486 -13.218  -0.869  1.00  0.00    -0.205 F 
ENDBRANCH   1   2
BRANCH   1  10
HETATM   10  N   UNL     1      41.807 -15.817  -0.865  1.00  0.00     0.101 NA
HETATM   11  H   UNL     1      42.769 -15.471  -0.904  1.00  0.00     0.317 HD
BRANCH  10  12
HETATM   12  C   UNL     1      41.652 -16.737   0.266  1.00  0.00     0.225 C 
HETATM   13  C   UNL     1      42.987 -17.214   0.879  1.00  0.00     0.069 C 
HETATM   14  C   UNL     1      42.723 -18.046   2.120  1.00  0.00     0.190 C 
HETATM   15  N   UNL     1      41.980 -17.196   3.114  1.00  0.00    -0.067 N 
HETATM   16  C   UNL     1      43.926 -18.473   2.934  1.00  0.00     0.035 C 
HETATM   17  H   UNL     1      42.520 -16.328   3.249  1.00  0.00     0.280 HD
HETATM   18  C   UNL     1      40.628 -16.804   2.620  1.00  0.00     0.237 C 
HETATM   19  C   UNL     1      42.057 -17.941   4.420  1.00  0.00     0.235 C 
HETATM   20  C   UNL     1      40.807 -15.998   1.336  1.00  0.00     0.063 C 
HETATM   21  C   UNL     1      43.312 -18.806   4.292  1.00  0.00     0.030 C 
ENDBRANCH  10  12
ENDBRANCH   1  10
BRANCH   1  22
HETATM   22  C   UNL     1      41.710 -13.294  -0.884  1.00  0.00    -0.018 A 
HETATM   23  C   UNL     1      42.477 -12.769  -1.931  1.00  0.00     0.029 A 
HETATM   24  C   UNL     1      43.130 -11.558  -1.751  1.00  0.00     0.116 A 
HETATM   25  N   UNL     1      43.059 -10.825  -0.621  1.00  0.00    -0.273 NA
HETATM   26  C   UNL     1      42.261 -11.297   0.355  1.00  0.00     0.116 A 
HETATM   27  C   UNL     1      41.576 -12.498   0.268  1.00  0.00     0.029 A 
ENDBRANCH   1  22
TORSDOF 4
ENDMDL
MODEL 5
REMARK VINA RESULT:      -8.4      1.580      2.337
REMARK  4 active torsions:
REMARK  status: ('A' for Active; 'I' for Inactive)
REMARK    1  A    between atoms: C_5  and  C_6 
REMARK    2  A    between atoms: C_6  and  N_7 
REMARK    3  A    between atoms: C_6  and  C_18 
REMARK    4  A    between atoms: N_7  and  C_8 
ROOT
HETATM    1  C   UNL     1      42.826 -16.488   2.865  1.00  0.00     0.290 C 
ENDROOT
BRANCH   1   2
HETATM    2  C   UNL     1      43.453 -17.811   3.283  1.00  0.00     0.021 A 
HETATM    3  C   UNL     1      43.569 -18.219   4.623  1.00  0.00     0.055 A 
HETATM    4  C   UNL     1      44.134 -19.454   4.942  1.00  0.00     0.117 A 
HETATM    5  C   UNL     1      44.597 -20.311   3.952  1.00  0.00     0.045 A 
HETATM    6  F   UNL     1      44.221 -19.816   6.227  1.00  0.00    -0.206 F 
HETATM    7  C   UNL     1      44.487 -19.929   2.618  1.00  0.00     0.046 A 
HETATM    8  C   UNL     1      43.916 -18.697   2.297  1.00  0.00     0.125 A 
HETATM    9  F   UNL     1      43.800 -18.372   1.002  1.00  0.00    -0.205 F 
ENDBRANCH   1   2
BRANCH   1  10
HETATM   10  N   UNL     1      41.648 -16.670   1.975  1.00  0.00     0.101 NA
HETATM   11  H   UNL     1      40.838 -16.745   2.595  1.00  0.00     0.317 HD
BRANCH  10  12
HETATM   12  C   UNL     1      41.376 -15.698   0.911  1.00  0.00     0.225 C 
HETATM   13  C   UNL     1      41.399 -16.298  -0.513  1.00  0.00     0.069 C 
HETATM   14  C   UNL     1      40.973 -15.252  -1.525  1.00  0.00     0.190 C 
HETATM   15  N   UNL     1      39.580 -14.801  -1.186  1.00  0.00    -0.067 N 
HETATM   16  C   UNL     1      40.797 -15.710  -2.958  1.00  0.00     0.035 C 
HETATM   17  H   UNL     1      38.986 -15.641  -1.116  1.00  0.00     0.280 HD
HETATM   18  C   UNL     1      39.519 -14.104   0.132  1.00  0.00     0.237 C 
HETATM   19  C   UNL     1      39.092 -14.048  -2.395  1.00  0.00     0.235 C 
HETATM   20  C   UNL     1      39.983 -15.084   1.208  1.00  0.00     0.063 C 
HETATM   21  C   UNL     1      39.913 -14.616  -3.554  1.00  0.00     0.030 C 
ENDBRANCH  10  12
ENDBRANCH   1  10
BRANCH   1  22
HETATM   22  C   UNL     1      42.627 -15.404   3.927  1.00  0.00    -0.018 A 
HETATM   23  C   UNL     1      43.525 -14.353   4.147  1.00  0.00     0.029 A 
HETATM   24  C   UNL     1      43.244 -13.416   5.132  1.00  0.00     0.116 A 
HETATM   25  N   UNL     1      42.132 -13.436   5.893  1.00  0.00    -0.273 NA
HETATM   26  C   UNL     1      41.235 -14.404   5.628  1.00  0.00     0.116 A 
HETATM   27  C   UNL     1      41.433 -15.386   4.670  1.00  0.00     0.029 A 
ENDBRANCH   1  22
TORSDOF 4
ENDMDL
MODEL 6
REMARK VINA RESULT:      -8.3      2.393      3.208
REMARK  4 active torsions:
REMARK  status: ('A' for Active; 'I' for Inactive)
REMARK    1  A    between atoms: C_5  and  C_6 
REMARK    2  A    between atoms: C_6  and  N_7 
REMARK    3  A    between atoms: C_6  and  C_18 
REMARK    4  A    between atoms: N_7  and  C_8 
ROOT
HETATM    1  C   UNL     1      42.909 -17.548   4.077  1.00  0.00     0.290 C 
ENDROOT
BRANCH   1   2
HETATM    2  C   UNL     1      43.480 -18.886   3.628  1.00  0.00     0.021 A 
HETATM    3  C   UNL     1      44.286 -19.694   4.449  1.00  0.00     0.055 A 
HETATM    4  C   UNL     1      44.763 -20.920   3.988  1.00  0.00     0.117 A 
HETATM    5  C   UNL     1      44.460 -21.377   2.713  1.00  0.00     0.045 A 
HETATM    6  F   UNL     1      45.521 -21.669   4.799  1.00  0.00    -0.206 F 
HETATM    7  C   UNL     1      43.658 -20.596   1.885  1.00  0.00     0.046 A 
HETATM    8  C   UNL     1      43.175 -19.371   2.347  1.00  0.00     0.125 A 
HETATM    9  F   UNL     1      42.384 -18.656   1.534  1.00  0.00    -0.205 F 
ENDBRANCH   1   2
BRANCH   1  10
HETATM   10  N   UNL     1      41.481 -17.380   3.695  1.00  0.00     0.101 NA
HETATM   11  H   UNL     1      40.940 -17.582   4.540  1.00  0.00     0.317 HD
BRANCH  10  12
HETATM   12  C   UNL     1      41.024 -16.120   3.099  1.00  0.00     0.225 C 
HETATM   13  C   UNL     1      40.445 -15.113   4.117  1.00  0.00     0.069 C 
HETATM   14  C   UNL     1      40.131 -13.799   3.428  1.00  0.00     0.190 C 
HETATM   15  N   UNL     1      41.403 -13.254   2.840  1.00  0.00    -0.067 N 
HETATM   16  C   UNL     1      39.693 -12.646   4.308  1.00  0.00     0.035 C 
HETATM   17  H   UNL     1      42.108 -13.221   3.591  1.00  0.00     0.280 HD
HETATM   18  C   UNL     1      41.945 -14.131   1.761  1.00  0.00     0.237 C 
HETATM   19  C   UNL     1      41.104 -11.821   2.488  1.00  0.00     0.235 C 
HETATM   20  C   UNL     1      42.243 -15.500   2.369  1.00  0.00     0.063 C 
HETATM   21  C   UNL     1      39.959 -11.430   3.425  1.00  0.00     0.030 C 
ENDBRANCH  10  12
ENDBRANCH   1  10
BRANCH   1  22
HETATM   22  C   UNL     1      43.225 -17.053   5.491  1.00  0.00    -0.018 A 
HETATM   23  C   UNL     1      43.893 -15.854   5.767  1.00  0.00     0.029 A 
HETATM   24  C   UNL     1      44.122 -15.495   7.088  1.00  0.00     0.116 A 
HETATM   25  N   UNL     1      43.717 -16.225   8.147  1.00  0.00    -0.273 NA
HETATM   26  C   UNL     1      43.010 -17.338   7.879  1.00  0.00     0.116 A 
HETATM   27  C   UNL     1      42.740 -17.779   6.593  1.00  0.00     0.029 A 
ENDBRANCH   1  22
TORSDOF 4
ENDMDL
MODEL 7
REMARK VINA RESULT:      -8.2      1.470      2.531
REMARK  4 active torsions:
REMARK  status: ('A' for Active; 'I' for Inactive)
REMARK    1  A    between atoms: C_5  and  C_6 
REMARK    2  A    between atoms: C_6  and  N_7 
REMARK    3  A    between atoms: C_6  and  C_18 
REMARK    4  A    between atoms: N_7  and  C_8 
ROOT
HETATM    1  C   UNL     1      42.542 -17.087   3.008  1.00  0.00     0.290 C 
ENDROOT
BRANCH   1   2
HETATM    2  C   UNL     1      43.354 -18.333   3.336  1.00  0.00     0.021 A 
HETATM    3  C   UNL     1      43.617 -18.757   4.650  1.00  0.00     0.055 A 
HETATM    4  C   UNL     1      44.350 -19.920   4.887  1.00  0.00     0.117 A 
HETATM    5  C   UNL     1      44.840 -20.688   3.838  1.00  0.00     0.045 A 
HETATM    6  F   UNL     1      44.575 -20.300   6.150  1.00  0.00    -0.206 F 
HETATM    7  C   UNL     1      44.586 -20.289   2.529  1.00  0.00     0.046 A 
HETATM    8  C   UNL     1      43.847 -19.130   2.290  1.00  0.00     0.125 A 
HETATM    9  F   UNL     1      43.597 -18.790   1.018  1.00  0.00    -0.205 F 
ENDBRANCH   1   2
BRANCH   1  10
HETATM   10  N   UNL     1      41.125 -17.400   2.679  1.00  0.00     0.101 NA
HETATM   11  H   UNL     1      40.608 -17.310   3.558  1.00  0.00     0.317 HD
BRANCH  10  12
HETATM   12  C   UNL     1      40.438 -16.659   1.616  1.00  0.00     0.225 C 
HETATM   13  C   UNL     1      39.642 -15.432   2.115  1.00  0.00     0.069 C 
HETATM   14  C   UNL     1      39.086 -14.658   0.936  1.00  0.00     0.190 C 
HETATM   15  N   UNL     1      40.235 -14.205   0.078  1.00  0.00    -0.067 N 
HETATM   16  C   UNL     1      38.402 -13.340   1.236  1.00  0.00     0.035 C 
HETATM   17  H   UNL     1      40.900 -13.702   0.685  1.00  0.00     0.280 HD
HETATM   18  C   UNL     1      40.970 -15.353  -0.529  1.00  0.00     0.237 C 
HETATM   19  C   UNL     1      39.662 -13.172  -0.855  1.00  0.00     0.235 C 
HETATM   20  C   UNL     1      41.524 -16.214   0.603  1.00  0.00     0.063 C 
HETATM   21  C   UNL     1      38.439 -12.628  -0.114  1.00  0.00     0.030 C 
ENDBRANCH  10  12
ENDBRANCH   1  10
BRANCH   1  22
HETATM   22  C   UNL     1      42.704 -15.852   3.897  1.00  0.00    -0.018 A 
HETATM   23  C   UNL     1      43.533 -14.768   3.582  1.00  0.00     0.029 A 
HETATM   24  C   UNL     1      43.600 -13.691   4.456  1.00  0.00     0.116 A 
HETATM   25  N   UNL     1      42.892 -13.605   5.600  1.00  0.00    -0.273 NA
HETATM   26  C   UNL     1      42.042 -14.615   5.862  1.00  0.00     0.116 A 
HETATM   27  C   UNL     1      41.912 -15.733   5.053  1.00  0.00     0.029 A 
ENDBRANCH   1  22
TORSDOF 4
ENDMDL
MODEL 8
REMARK VINA RESULT:      -8.2      2.082      4.606
REMARK  4 active torsions:
REMARK  status: ('A' for Active; 'I' for Inactive)
REMARK    1  A    between atoms: C_5  and  C_6 
REMARK    2  A    between atoms: C_6  and  N_7 
REMARK    3  A    between atoms: C_6  and  C_18 
REMARK    4  A    between atoms: N_7  and  C_8 
ROOT
HETATM    1  C   UNL     1      41.767 -17.266   3.431  1.00  0.00     0.290 C 
ENDROOT
BRANCH   1   2
HETATM    2  C   UNL     1      42.163 -15.864   3.873  1.00  0.00     0.021 A 
HETATM    3  C   UNL     1      41.464 -15.140   4.855  1.00  0.00     0.055 A 
HETATM    4  C   UNL     1      41.887 -13.867   5.234  1.00  0.00     0.117 A 
HETATM    5  C   UNL     1      43.004 -13.278   4.655  1.00  0.00     0.045 A 
HETATM    6  F   UNL     1      41.205 -13.209   6.178  1.00  0.00    -0.206 F 
HETATM    7  C   UNL     1      43.714 -13.979   3.684  1.00  0.00     0.046 A 
HETATM    8  C   UNL     1      43.296 -15.256   3.309  1.00  0.00     0.125 A 
HETATM    9  F   UNL     1      44.018 -15.914   2.391  1.00  0.00    -0.205 F 
ENDBRANCH   1   2
BRANCH   1  10
HETATM   10  N   UNL     1      40.927 -17.262   2.203  1.00  0.00     0.101 NA
HETATM   11  H   UNL     1      39.974 -17.465   2.516  1.00  0.00     0.317 HD
BRANCH  10  12
HETATM   12  C   UNL     1      40.924 -16.091   1.320  1.00  0.00     0.225 C 
HETATM   13  C   UNL     1      41.178 -16.422  -0.167  1.00  0.00     0.069 C 
HETATM   14  C   UNL     1      41.020 -15.173  -1.013  1.00  0.00     0.190 C 
HETATM   15  N   UNL     1      39.620 -14.654  -0.838  1.00  0.00    -0.067 N 
HETATM   16  C   UNL     1      41.088 -15.344  -2.516  1.00  0.00     0.035 C 
HETATM   17  H   UNL     1      38.970 -15.430  -1.039  1.00  0.00     0.280 HD
HETATM   18  C   UNL     1      39.356 -14.205   0.560  1.00  0.00     0.237 C 
HETATM   19  C   UNL     1      39.420 -13.649  -1.942  1.00  0.00     0.235 C 
HETATM   20  C   UNL     1      39.544 -15.405   1.486  1.00  0.00     0.063 C 
HETATM   21  C   UNL     1      40.407 -14.078  -3.030  1.00  0.00     0.030 C 
ENDBRANCH  10  12
ENDBRANCH   1  10
BRANCH   1  22
HETATM   22  C   UNL     1      42.834 -18.364   3.437  1.00  0.00    -0.018 A 
HETATM   23  C   UNL     1      43.587 -18.714   4.564  1.00  0.00     0.029 A 
HETATM   24  C   UNL     1      44.524 -19.733   4.464  1.00  0.00     0.116 A 
HETATM   25  N   UNL     1      44.750 -20.439   3.337  1.00  0.00    -0.273 NA
HETATM   26  C   UNL     1      43.972 -20.150   2.277  1.00  0.00     0.116 A 
HETATM   27  C   UNL     1      43.016 -19.146   2.283  1.00  0.00     0.029 A 
ENDBRANCH   1  22
TORSDOF 4
ENDMDL
MODEL 9
REMARK VINA RESULT:      -7.9      2.915      6.747
REMARK  4 active torsions:
REMARK  status: ('A' for Active; 'I' for Inactive)
REMARK    1  A    between atoms: C_5  and  C_6 
REMARK    2  A    between atoms: C_6  and  N_7 
REMARK    3  A    between atoms: C_6  and  C_18 
REMARK    4  A    between atoms: N_7  and  C_8 
ROOT
HETATM    1  C   UNL     1      41.316 -15.512   2.263  1.00  0.00     0.290 C 
ENDROOT
BRANCH   1   2
HETATM    2  C   UNL     1      40.822 -14.864   0.977  1.00  0.00     0.021 A 
HETATM    3  C   UNL     1      41.667 -14.551  -0.102  1.00  0.00     0.055 A 
HETATM    4  C   UNL     1      41.152 -13.977  -1.263  1.00  0.00     0.117 A 
HETATM    5  C   UNL     1      39.797 -13.697  -1.388  1.00  0.00     0.045 A 
HETATM    6  F   UNL     1      41.982 -13.700  -2.275  1.00  0.00    -0.206 F 
HETATM    7  C   UNL     1      38.941 -14.004  -0.334  1.00  0.00     0.046 A 
HETATM    8  C   UNL     1      39.454 -14.585   0.826  1.00  0.00     0.125 A 
HETATM    9  F   UNL     1      38.599 -14.892   1.812  1.00  0.00    -0.205 F 
ENDBRANCH   1   2
BRANCH   1  10
HETATM   10  N   UNL     1      42.539 -16.333   2.055  1.00  0.00     0.101 NA
HETATM   11  H   UNL     1      43.324 -15.746   2.350  1.00  0.00     0.317 HD
BRANCH  10  12
HETATM   12  C   UNL     1      42.647 -17.659   2.673  1.00  0.00     0.225 C 
HETATM   13  C   UNL     1      43.104 -18.772   1.704  1.00  0.00     0.069 C 
HETATM   14  C   UNL     1      43.316 -20.068   2.463  1.00  0.00     0.190 C 
HETATM   15  N   UNL     1      44.371 -19.839   3.510  1.00  0.00    -0.067 N 
HETATM   16  C   UNL     1      43.909 -21.230   1.693  1.00  0.00     0.035 C 
HETATM   17  H   UNL     1      45.198 -19.441   3.041  1.00  0.00     0.280 HD
HETATM   18  C   UNL     1      43.933 -18.857   4.545  1.00  0.00     0.237 C 
HETATM   19  C   UNL     1      44.780 -21.211   3.979  1.00  0.00     0.235 C 
HETATM   20  C   UNL     1      43.650 -17.528   3.848  1.00  0.00     0.063 C 
HETATM   21  C   UNL     1      44.445 -22.130   2.803  1.00  0.00     0.030 C 
ENDBRANCH  10  12
ENDBRANCH   1  10
BRANCH   1  22
HETATM   22  C   UNL     1      41.356 -14.670   3.540  1.00  0.00    -0.018 A 
HETATM   23  C   UNL     1      40.401 -14.754   4.561  1.00  0.00     0.029 A 
HETATM   24  C   UNL     1      40.537 -13.949   5.684  1.00  0.00     0.116 A 
HETATM   25  N   UNL     1      41.558 -13.089   5.874  1.00  0.00    -0.273 NA
HETATM   26  C   UNL     1      42.513 -13.065   4.926  1.00  0.00     0.116 A 
HETATM   27  C   UNL     1      42.458 -13.827   3.769  1.00  0.00     0.029 A 
ENDBRANCH   1  22
TORSDOF 4
ENDMDL
MODEL 10
REMARK VINA RESULT:      -7.9      3.518      8.147
REMARK  4 active torsions:
REMARK  status: ('A' for Active; 'I' for Inactive)
REMARK    1  A    between atoms: C_5  and  C_6 
REMARK    2  A    between atoms: C_6  and  N_7 
REMARK    3  A    between atoms: C_6  and  C_18 
REMARK    4  A    between atoms: N_7  and  C_8 
ROOT
HETATM    1  C   UNL     1      40.612 -14.557  -1.092  1.00  0.00     0.290 C 
ENDROOT
BRANCH   1   2
HETATM    2  C   UNL     1      41.328 -13.213  -1.083  1.00  0.00     0.021 A 
HETATM    3  C   UNL     1      41.148 -12.251  -0.073  1.00  0.00     0.055 A 
HETATM    4  C   UNL     1      41.849 -11.047  -0.108  1.00  0.00     0.117 A 
HETATM    5  C   UNL     1      42.740 -10.761  -1.135  1.00  0.00     0.045 A 
HETATM    6  F   UNL     1      41.661 -10.156   0.873  1.00  0.00    -0.206 F 
HETATM    7  C   UNL     1      42.938 -11.702  -2.142  1.00  0.00     0.046 A 
HETATM    8  C   UNL     1      42.242 -12.910  -2.105  1.00  0.00     0.125 A 
HETATM    9  F   UNL     1      42.476 -13.805  -3.075  1.00  0.00    -0.205 F 
ENDBRANCH   1   2
BRANCH   1  10
HETATM   10  N   UNL     1      40.016 -14.895   0.228  1.00  0.00     0.101 NA
HETATM   11  H   UNL     1      39.009 -14.977   0.068  1.00  0.00     0.317 HD
BRANCH  10  12
HETATM   12  C   UNL     1      40.500 -16.062   0.973  1.00  0.00     0.225 C 
HETATM   13  C   UNL     1      41.901 -16.548   0.544  1.00  0.00     0.069 C 
HETATM   14  C   UNL     1      42.369 -17.664   1.458  1.00  0.00     0.190 C 
HETATM   15  N   UNL     1      42.422 -17.136   2.865  1.00  0.00    -0.067 N 
HETATM   16  C   UNL     1      43.788 -18.160   1.273  1.00  0.00     0.035 C 
HETATM   17  H   UNL     1      42.995 -16.279   2.857  1.00  0.00     0.280 HD
HETATM   18  C   UNL     1      41.071 -16.762   3.377  1.00  0.00     0.237 C 
HETATM   19  C   UNL     1      43.207 -18.153   3.650  1.00  0.00     0.235 C 
HETATM   20  C   UNL     1      40.508 -15.667   2.473  1.00  0.00     0.063 C 
HETATM   21  C   UNL     1      44.078 -18.851   2.604  1.00  0.00     0.030 C 
ENDBRANCH  10  12
ENDBRANCH   1  10
BRANCH   1  22
HETATM   22  C   UNL     1      39.703 -14.894  -2.277  1.00  0.00    -0.018 A 
HETATM   23  C   UNL     1      39.984 -15.895  -3.215  1.00  0.00     0.029 A 
HETATM   24  C   UNL     1      39.087 -16.126  -4.249  1.00  0.00     0.116 A 
HETATM   25  N   UNL     1      37.928 -15.454  -4.402  1.00  0.00    -0.273 NA
HETATM   26  C   UNL     1      37.626 -14.545  -3.457  1.00  0.00     0.116 A 
HETATM   27  C   UNL     1      38.463 -14.242  -2.394  1.00  0.00     0.029 A 
ENDBRANCH   1  22
TORSDOF 4
ENDMDL
