MODEL 1
REMARK VINA RESULT:      -9.0      0.000      0.000
REMARK  5 active torsions:
REMARK  status: ('A' for Active; 'I' for Inactive)
REMARK    1  A    between atoms: O_2  and  C_3 
REMARK    2  A    between atoms: C_4  and  C_5 
REMARK    3  A    between atoms: C_5  and  C_6 
REMARK       I    between atoms: C_6  and  N_7 
REMARK    4  A    between atoms: N_7  and  C_8 
REMARK    5  A    between atoms: C_9  and  O_10 
ROOT
HETATM    1  C   UNL     1      43.098 -16.515   1.547  1.00  0.00     0.071 A 
HETATM    2  C   UNL     1      43.266 -16.306   2.930  1.00  0.00     0.096 A 
HETATM    3  C   UNL     1      43.655 -17.340   3.794  1.00  0.00     0.054 A 
HETATM    4  C   UNL     1      43.814 -18.629   3.262  1.00  0.00     0.014 A 
HETATM    5  C   UNL     1      43.577 -18.821   1.905  1.00  0.00     0.089 A 
HETATM    6  O   UNL     1      43.770 -20.129   1.572  1.00  0.00    -0.309 OA
HETATM    7  C   UNL     1      44.130 -20.784   2.712  1.00  0.00     0.087 A 
HETATM    8  C   UNL     1      44.168 -19.904   3.788  1.00  0.00     0.011 A 
HETATM    9  C   UNL     1      44.422 -22.143   2.808  1.00  0.00     0.038 A 
HETATM   10  C   UNL     1      44.765 -22.623   4.076  1.00  0.00     0.003 A 
HETATM   11  C   UNL     1      44.808 -21.772   5.185  1.00  0.00     0.001 A 
HETATM   12  C   UNL     1      44.512 -20.408   5.057  1.00  0.00     0.015 A 
HETATM   13  C   UNL     1      43.201 -17.809   1.019  1.00  0.00     0.070 A 
ENDROOT
BRANCH   1  14
HETATM   14  N   UNL     1      42.739 -15.469   0.669  1.00  0.00    -0.324 N 
HETATM   15  C   UNL     1      41.442 -15.239   0.237  1.00  0.00     0.226 C 
HETATM   16  O   UNL     1      40.429 -15.684   0.775  1.00  0.00    -0.273 OA
HETATM   17  H   UNL     1      43.389 -14.699   0.553  1.00  0.00     0.169 HD
BRANCH  15  18
HETATM   18  C   UNL     1      41.343 -14.415  -1.031  1.00  0.00     0.144 C 
BRANCH  18  19
HETATM   19  C   UNL     1      40.236 -14.796  -1.981  1.00  0.00    -0.016 A 
HETATM   20  C   UNL     1      39.006 -14.125  -1.983  1.00  0.00     0.074 A 
HETATM   21  C   UNL     1      37.997 -14.472  -2.883  1.00  0.00     0.037 A 
HETATM   22  C   UNL     1      38.221 -15.480  -3.819  1.00  0.00     0.003 A 
HETATM   23  C   UNL     1      39.440 -16.157  -3.833  1.00  0.00     0.001 A 
HETATM   24  C   UNL     1      40.439 -15.823  -2.915  1.00  0.00     0.010 A 
BRANCH  20  25
HETATM   25  O   UNL     1      38.758 -13.177  -1.025  1.00  0.00    -0.355 OA
HETATM   26  C   UNL     1      37.774 -13.648  -0.100  1.00  0.00     0.210 C 
ENDBRANCH  20  25
ENDBRANCH  18  19
ENDBRANCH  15  18
ENDBRANCH   1  14
BRANCH   2  27
HETATM   27  O   UNL     1      42.996 -15.092   3.517  1.00  0.00    -0.354 OA
HETATM   28  C   UNL     1      41.698 -15.113   4.112  1.00  0.00     0.210 C 
ENDBRANCH   2  27
TORSDOF 5
ENDMDL
MODEL 2
REMARK VINA RESULT:      -8.4      1.675      2.322
REMARK  5 active torsions:
REMARK  status: ('A' for Active; 'I' for Inactive)
REMARK    1  A    between atoms: O_2  and  C_3 
REMARK    2  A    between atoms: C_4  and  C_5 
REMARK    3  A    between atoms: C_5  and  C_6 
REMARK       I    between atoms: C_6  and  N_7 
REMARK    4  A    between atoms: N_7  and  C_8 
REMARK    5  A    between atoms: C_9  and  O_10 
ROOT
HETATM    1  C   UNL     1      42.933 -15.952   2.612  1.00  0.00     0.071 A 
HETATM    2  C   UNL     1      43.247 -16.138   3.972  1.00  0.00     0.096 A 
HETATM    3  C   UNL     1      43.690 -17.372   4.469  1.00  0.00     0.054 A 
HETATM    4  C   UNL     1      43.754 -18.462   3.586  1.00  0.00     0.014 A 
HETATM    5  C   UNL     1      43.375 -18.267   2.262  1.00  0.00     0.089 A 
HETATM    6  O   UNL     1      43.493 -19.430   1.561  1.00  0.00    -0.309 OA
HETATM    7  C   UNL     1      43.946 -20.377   2.430  1.00  0.00     0.087 A 
HETATM    8  C   UNL     1      44.120 -19.834   3.698  1.00  0.00     0.011 A 
HETATM    9  C   UNL     1      44.204 -21.710   2.113  1.00  0.00     0.038 A 
HETATM   10  C   UNL     1      44.659 -22.526   3.155  1.00  0.00     0.003 A 
HETATM   11  C   UNL     1      44.840 -22.018   4.445  1.00  0.00     0.001 A 
HETATM   12  C   UNL     1      44.575 -20.672   4.733  1.00  0.00     0.015 A 
HETATM   13  C   UNL     1      42.943 -17.047   1.737  1.00  0.00     0.070 A 
ENDROOT
BRANCH   1  14
HETATM   14  N   UNL     1      42.520 -14.701   2.101  1.00  0.00    -0.324 N 
HETATM   15  C   UNL     1      41.193 -14.312   2.004  1.00  0.00     0.226 C 
HETATM   16  O   UNL     1      40.258 -14.833   2.610  1.00  0.00    -0.273 OA
HETATM   17  H   UNL     1      43.207 -13.957   2.047  1.00  0.00     0.169 HD
BRANCH  15  18
HETATM   18  C   UNL     1      40.943 -13.188   1.019  1.00  0.00     0.144 C 
BRANCH  18  19
HETATM   19  C   UNL     1      41.212 -13.509  -0.430  1.00  0.00    -0.016 A 
HETATM   20  C   UNL     1      42.183 -12.819  -1.168  1.00  0.00     0.074 A 
HETATM   21  C   UNL     1      42.438 -13.140  -2.502  1.00  0.00     0.037 A 
HETATM   22  C   UNL     1      41.742 -14.185  -3.107  1.00  0.00     0.003 A 
HETATM   23  C   UNL     1      40.774 -14.885  -2.388  1.00  0.00     0.001 A 
HETATM   24  C   UNL     1      40.504 -14.544  -1.059  1.00  0.00     0.010 A 
BRANCH  20  25
HETATM   25  O   UNL     1      42.824 -11.751  -0.597  1.00  0.00    -0.355 OA
HETATM   26  C   UNL     1      42.461 -10.537  -1.260  1.00  0.00     0.210 C 
ENDBRANCH  20  25
ENDBRANCH  18  19
ENDBRANCH  15  18
ENDBRANCH   1  14
BRANCH   2  27
HETATM   27  O   UNL     1      43.076 -15.135   4.898  1.00  0.00    -0.354 OA
HETATM   28  C   UNL     1      41.967 -15.437   5.747  1.00  0.00     0.210 C 
ENDBRANCH   2  27
TORSDOF 5
ENDMDL
MODEL 3
REMARK VINA RESULT:      -8.4      4.640      8.207
REMARK  5 active torsions:
REMARK  status: ('A' for Active; 'I' for Inactive)
REMARK    1  A    between atoms: O_2  and  C_3 
REMARK    2  A    between atoms: C_4  and  C_5 
REMARK    3  A    between atoms: C_5  and  C_6 
REMARK       I    between atoms: C_6  and  N_7 
REMARK    4  A    between atoms: N_7  and  C_8 
REMARK    5  A    between atoms: C_9  and  O_10 
ROOT
HETATM    1  C   UNL     1      43.669 -15.622   6.130  1.00  0.00     0.071 A 
HETATM    2  C   UNL     1      43.110 -15.452   4.848  1.00  0.00     0.096 A 
HETATM    3  C   UNL     1      43.064 -16.497   3.915  1.00  0.00     0.054 A 
HETATM    4  C   UNL     1      43.653 -17.724   4.259  1.00  0.00     0.014 A 
HETATM    5  C   UNL     1      44.257 -17.845   5.506  1.00  0.00     0.089 A 
HETATM    6  O   UNL     1      44.781 -19.094   5.659  1.00  0.00    -0.309 OA
HETATM    7  C   UNL     1      44.519 -19.781   4.512  1.00  0.00     0.087 A 
HETATM    8  C   UNL     1      43.828 -18.980   3.609  1.00  0.00     0.011 A 
HETATM    9  C   UNL     1      44.884 -21.102   4.257  1.00  0.00     0.038 A 
HETATM   10  C   UNL     1      44.525 -21.623   3.009  1.00  0.00     0.003 A 
HETATM   11  C   UNL     1      43.836 -20.847   2.072  1.00  0.00     0.001 A 
HETATM   12  C   UNL     1      43.479 -19.521   2.357  1.00  0.00     0.015 A 
HETATM   13  C   UNL     1      44.307 -16.825   6.459  1.00  0.00     0.070 A 
ENDROOT
BRANCH   1  14
HETATM   14  N   UNL     1      43.687 -14.581   7.085  1.00  0.00    -0.324 N 
HETATM   15  C   UNL     1      44.739 -13.692   7.232  1.00  0.00     0.226 C 
HETATM   16  O   UNL     1      45.615 -13.489   6.392  1.00  0.00    -0.273 OA
HETATM   17  H   UNL     1      42.805 -14.299   7.500  1.00  0.00     0.169 HD
BRANCH  15  18
HETATM   18  C   UNL     1      44.782 -12.992   8.576  1.00  0.00     0.144 C 
BRANCH  18  19
HETATM   19  C   UNL     1      43.756 -11.908   8.788  1.00  0.00    -0.016 A 
HETATM   20  C   UNL     1      43.622 -11.253  10.019  1.00  0.00     0.074 A 
HETATM   21  C   UNL     1      42.683 -10.235  10.197  1.00  0.00     0.037 A 
HETATM   22  C   UNL     1      41.885  -9.836   9.127  1.00  0.00     0.003 A 
HETATM   23  C   UNL     1      42.006 -10.474   7.893  1.00  0.00     0.001 A 
HETATM   24  C   UNL     1      42.930 -11.510   7.726  1.00  0.00     0.010 A 
BRANCH  20  25
HETATM   25  O   UNL     1      44.360 -11.684  11.091  1.00  0.00    -0.355 OA
HETATM   26  C   UNL     1      43.505 -11.991  12.195  1.00  0.00     0.210 C 
ENDBRANCH  20  25
ENDBRANCH  18  19
ENDBRANCH  15  18
ENDBRANCH   1  14
BRANCH   2  27
HETATM   27  O   UNL     1      42.638 -14.233   4.420  1.00  0.00    -0.354 OA
HETATM   28  C   UNL     1      41.386 -14.400   3.752  1.00  0.00     0.210 C 
ENDBRANCH   2  27
TORSDOF 5
ENDMDL
MODEL 4
REMARK VINA RESULT:      -8.3      1.365      1.960
REMARK  5 active torsions:
REMARK  status: ('A' for Active; 'I' for Inactive)
REMARK    1  A    between atoms: O_2  and  C_3 
REMARK    2  A    between atoms: C_4  and  C_5 
REMARK    3  A    between atoms: C_5  and  C_6 
REMARK       I    between atoms: C_6  and  N_7 
REMARK    4  A    between atoms: N_7  and  C_8 
REMARK    5  A    between atoms: C_9  and  O_10 
ROOT
HETATM    1  C   UNL     1      41.938 -15.670   2.279  1.00  0.00     0.071 A 
HETATM    2  C   UNL     1      42.357 -15.703   3.623  1.00  0.00     0.096 A 
HETATM    3  C   UNL     1      43.008 -16.818   4.171  1.00  0.00     0.054 A 
HETATM    4  C   UNL     1      43.181 -17.952   3.361  1.00  0.00     0.014 A 
HETATM    5  C   UNL     1      42.698 -17.917   2.057  1.00  0.00     0.089 A 
HETATM    6  O   UNL     1      42.945 -19.102   1.430  1.00  0.00    -0.309 OA
HETATM    7  C   UNL     1      43.586 -19.904   2.327  1.00  0.00     0.087 A 
HETATM    8  C   UNL     1      43.753 -19.244   3.540  1.00  0.00     0.011 A 
HETATM    9  C   UNL     1      44.019 -21.206   2.085  1.00  0.00     0.038 A 
HETATM   10  C   UNL     1      44.653 -21.864   3.144  1.00  0.00     0.003 A 
HETATM   11  C   UNL     1      44.834 -21.237   4.381  1.00  0.00     0.001 A 
HETATM   12  C   UNL     1      44.389 -19.925   4.595  1.00  0.00     0.015 A 
HETATM   13  C   UNL     1      42.058 -16.816   1.483  1.00  0.00     0.070 A 
ENDROOT
BRANCH   1  14
HETATM   14  N   UNL     1      41.313 -14.535   1.715  1.00  0.00    -0.324 N 
HETATM   15  C   UNL     1      39.955 -14.459   1.450  1.00  0.00     0.226 C 
HETATM   16  O   UNL     1      39.098 -15.197   1.934  1.00  0.00    -0.273 OA
HETATM   17  H   UNL     1      41.810 -13.652   1.747  1.00  0.00     0.169 HD
BRANCH  15  18
HETATM   18  C   UNL     1      39.575 -13.399   0.436  1.00  0.00     0.144 C 
BRANCH  18  19
HETATM   19  C   UNL     1      39.393 -13.877  -0.982  1.00  0.00    -0.016 A 
HETATM   20  C   UNL     1      40.483 -14.260  -1.774  1.00  0.00     0.074 A 
HETATM   21  C   UNL     1      40.300 -14.722  -3.079  1.00  0.00     0.037 A 
HETATM   22  C   UNL     1      39.011 -14.837  -3.597  1.00  0.00     0.003 A 
HETATM   23  C   UNL     1      37.914 -14.463  -2.822  1.00  0.00     0.001 A 
HETATM   24  C   UNL     1      38.104 -13.978  -1.525  1.00  0.00     0.010 A 
BRANCH  20  25
HETATM   25  O   UNL     1      41.755 -14.089  -1.292  1.00  0.00    -0.355 OA
HETATM   26  C   UNL     1      42.400 -13.002  -1.960  1.00  0.00     0.210 C 
ENDBRANCH  20  25
ENDBRANCH  18  19
ENDBRANCH  15  18
ENDBRANCH   1  14
BRANCH   2  27
HETATM   27  O   UNL     1      42.094 -14.666   4.490  1.00  0.00    -0.354 OA
HETATM   28  C   UNL     1      41.179 -15.093   5.500  1.00  0.00     0.210 C 
ENDBRANCH   2  27
TORSDOF 5
ENDMDL
MODEL 5
REMARK VINA RESULT:      -8.1      1.870      3.012
REMARK  5 active torsions:
REMARK  status: ('A' for Active; 'I' for Inactive)
REMARK    1  A    between atoms: O_2  and  C_3 
REMARK    2  A    between atoms: C_4  and  C_5 
REMARK    3  A    between atoms: C_5  and  C_6 
REMARK       I    between atoms: C_6  and  N_7 
REMARK    4  A    between atoms: N_7  and  C_8 
REMARK    5  A    between atoms: C_9  and  O_10 
ROOT
HETATM    1  C   UNL     1      42.836 -15.868   3.682  1.00  0.00     0.071 A 
HETATM    2  C   UNL     1      43.288 -16.274   4.953  1.00  0.00     0.096 A 
HETATM    3  C   UNL     1      43.776 -17.566   5.189  1.00  0.00     0.054 A 
HETATM    4  C   UNL     1      43.748 -18.493   4.134  1.00  0.00     0.014 A 
HETATM    5  C   UNL     1      43.235 -18.086   2.907  1.00  0.00     0.089 A 
HETATM    6  O   UNL     1      43.277 -19.115   2.013  1.00  0.00    -0.309 OA
HETATM    7  C   UNL     1      43.815 -20.186   2.661  1.00  0.00     0.087 A 
HETATM    8  C   UNL     1      44.120 -19.858   3.977  1.00  0.00     0.011 A 
HETATM    9  C   UNL     1      44.036 -21.444   2.101  1.00  0.00     0.038 A 
HETATM   10  C   UNL     1      44.594 -22.414   2.940  1.00  0.00     0.003 A 
HETATM   11  C   UNL     1      44.908 -22.126   4.272  1.00  0.00     0.001 A 
HETATM   12  C   UNL     1      44.677 -20.851   4.807  1.00  0.00     0.015 A 
HETATM   13  C   UNL     1      42.753 -16.802   2.640  1.00  0.00     0.070 A 
ENDROOT
BRANCH   1  14
HETATM   14  N   UNL     1      42.375 -14.557   3.432  1.00  0.00    -0.324 N 
HETATM   15  C   UNL     1      41.058 -14.160   3.601  1.00  0.00     0.226 C 
HETATM   16  O   UNL     1      40.216 -14.769   4.260  1.00  0.00    -0.273 OA
HETATM   17  H   UNL     1      43.061 -13.811   3.383  1.00  0.00     0.169 HD
BRANCH  15  18
HETATM   18  C   UNL     1      40.683 -12.903   2.843  1.00  0.00     0.144 C 
BRANCH  18  19
HETATM   19  C   UNL     1      39.695 -13.080   1.718  1.00  0.00    -0.016 A 
HETATM   20  C   UNL     1      40.033 -13.771   0.546  1.00  0.00     0.074 A 
HETATM   21  C   UNL     1      39.103 -13.948  -0.480  1.00  0.00     0.037 A 
HETATM   22  C   UNL     1      37.806 -13.462  -0.329  1.00  0.00     0.003 A 
HETATM   23  C   UNL     1      37.451 -12.775   0.831  1.00  0.00     0.001 A 
HETATM   24  C   UNL     1      38.392 -12.578   1.845  1.00  0.00     0.010 A 
BRANCH  20  25
HETATM   25  O   UNL     1      41.324 -14.195   0.366  1.00  0.00    -0.355 OA
HETATM   26  C   UNL     1      41.361 -15.331  -0.500  1.00  0.00     0.210 C 
ENDBRANCH  20  25
ENDBRANCH  18  19
ENDBRANCH  15  18
ENDBRANCH   1  14
BRANCH   2  27
HETATM   27  O   UNL     1      43.215 -15.442   6.046  1.00  0.00    -0.354 OA
HETATM   28  C   UNL     1      44.247 -15.766   6.978  1.00  0.00     0.210 C 
ENDBRANCH   2  27
TORSDOF 5
ENDMDL
MODEL 6
REMARK VINA RESULT:      -8.1      1.576      2.569
REMARK  5 active torsions:
REMARK  status: ('A' for Active; 'I' for Inactive)
REMARK    1  A    between atoms: O_2  and  C_3 
REMARK    2  A    between atoms: C_4  and  C_5 
REMARK    3  A    between atoms: C_5  and  C_6 
REMARK       I    between atoms: C_6  and  N_7 
REMARK    4  A    between atoms: N_7  and  C_8 
REMARK    5  A    between atoms: C_9  and  O_10 
ROOT
HETATM    1  C   UNL     1      42.326 -15.736   2.261  1.00  0.00     0.071 A 
HETATM    2  C   UNL     1      42.812 -15.815   3.580  1.00  0.00     0.096 A 
HETATM    3  C   UNL     1      43.395 -16.986   4.087  1.00  0.00     0.054 A 
HETATM    4  C   UNL     1      43.428 -18.123   3.265  1.00  0.00     0.014 A 
HETATM    5  C   UNL     1      42.881 -18.037   1.989  1.00  0.00     0.089 A 
HETATM    6  O   UNL     1      42.994 -19.233   1.345  1.00  0.00    -0.309 OA
HETATM    7  C   UNL     1      43.612 -20.093   2.202  1.00  0.00     0.087 A 
HETATM    8  C   UNL     1      43.898 -19.460   3.407  1.00  0.00     0.011 A 
HETATM    9  C   UNL     1      43.921 -21.425   1.932  1.00  0.00     0.038 A 
HETATM   10  C   UNL     1      44.552 -22.143   2.953  1.00  0.00     0.003 A 
HETATM   11  C   UNL     1      44.851 -21.544   4.181  1.00  0.00     0.001 A 
HETATM   12  C   UNL     1      44.530 -20.201   4.424  1.00  0.00     0.015 A 
HETATM   13  C   UNL     1      42.306 -16.882   1.454  1.00  0.00     0.070 A 
ENDROOT
BRANCH   1  14
HETATM   14  N   UNL     1      41.769 -14.548   1.736  1.00  0.00    -0.324 N 
HETATM   15  C   UNL     1      40.407 -14.333   1.600  1.00  0.00     0.226 C 
HETATM   16  O   UNL     1      39.530 -14.972   2.179  1.00  0.00    -0.273 OA
HETATM   17  H   UNL     1      42.356 -13.721   1.701  1.00  0.00     0.169 HD
BRANCH  15  18
HETATM   18  C   UNL     1      40.043 -13.249   0.605  1.00  0.00     0.144 C 
BRANCH  18  19
HETATM   19  C   UNL     1      41.042 -13.001  -0.496  1.00  0.00    -0.016 A 
HETATM   20  C   UNL     1      41.039 -13.759  -1.675  1.00  0.00     0.074 A 
HETATM   21  C   UNL     1      41.956 -13.505  -2.697  1.00  0.00     0.037 A 
HETATM   22  C   UNL     1      42.869 -12.461  -2.563  1.00  0.00     0.003 A 
HETATM   23  C   UNL     1      42.885 -11.695  -1.399  1.00  0.00     0.001 A 
HETATM   24  C   UNL     1      41.982 -11.968  -0.367  1.00  0.00     0.010 A 
BRANCH  20  25
HETATM   25  O   UNL     1      40.186 -14.825  -1.784  1.00  0.00    -0.355 OA
HETATM   26  C   UNL     1      40.644 -15.731  -2.791  1.00  0.00     0.210 C 
ENDBRANCH  20  25
ENDBRANCH  18  19
ENDBRANCH  15  18
ENDBRANCH   1  14
BRANCH   2  27
HETATM   27  O   UNL     1      42.684 -14.768   4.463  1.00  0.00    -0.354 OA
HETATM   28  C   UNL     1      41.688 -15.071   5.441  1.00  0.00     0.210 C 
ENDBRANCH   2  27
TORSDOF 5
ENDMDL
MODEL 7
REMARK VINA RESULT:      -7.9      3.040      9.038
REMARK  5 active torsions:
REMARK  status: ('A' for Active; 'I' for Inactive)
REMARK    1  A    between atoms: O_2  and  C_3 
REMARK    2  A    between atoms: C_4  and  C_5 
REMARK    3  A    between atoms: C_5  and  C_6 
REMARK       I    between atoms: C_6  and  N_7 
REMARK    4  A    between atoms: N_7  and  C_8 
REMARK    5  A    between atoms: C_9  and  O_10 
ROOT
HETATM    1  C   UNL     1      41.026 -14.884  -1.159  1.00  0.00     0.071 A 
HETATM    2  C   UNL     1      40.946 -15.094  -2.549  1.00  0.00     0.096 A 
HETATM    3  C   UNL     1      41.263 -14.087  -3.472  1.00  0.00     0.054 A 
HETATM    4  C   UNL     1      41.606 -12.817  -2.981  1.00  0.00     0.014 A 
HETATM    5  C   UNL     1      41.613 -12.618  -1.604  1.00  0.00     0.089 A 
HETATM    6  O   UNL     1      41.957 -11.330  -1.315  1.00  0.00    -0.309 OA
HETATM    7  C   UNL     1      42.171 -10.697  -2.503  1.00  0.00     0.087 A 
HETATM    8  C   UNL     1      41.962 -11.569  -3.566  1.00  0.00     0.011 A 
HETATM    9  C   UNL     1      42.544  -9.363  -2.654  1.00  0.00     0.038 A 
HETATM   10  C   UNL     1      42.707  -8.901  -3.965  1.00  0.00     0.003 A 
HETATM   11  C   UNL     1      42.501  -9.745  -5.060  1.00  0.00     0.001 A 
HETATM   12  C   UNL     1      42.128 -11.084  -4.878  1.00  0.00     0.015 A 
HETATM   13  C   UNL     1      41.314 -13.605  -0.663  1.00  0.00     0.070 A 
ENDROOT
BRANCH   1  14
HETATM   14  N   UNL     1      40.740 -15.906  -0.227  1.00  0.00    -0.324 N 
HETATM   15  C   UNL     1      41.642 -16.350   0.726  1.00  0.00     0.226 C 
HETATM   16  O   UNL     1      42.645 -15.737   1.090  1.00  0.00    -0.273 OA
HETATM   17  H   UNL     1      39.768 -16.146  -0.066  1.00  0.00     0.169 HD
BRANCH  15  18
HETATM   18  C   UNL     1      41.337 -17.727   1.281  1.00  0.00     0.144 C 
BRANCH  18  19
HETATM   19  C   UNL     1      42.353 -18.292   2.241  1.00  0.00    -0.016 A 
HETATM   20  C   UNL     1      42.260 -18.075   3.622  1.00  0.00     0.074 A 
HETATM   21  C   UNL     1      43.195 -18.622   4.503  1.00  0.00     0.037 A 
HETATM   22  C   UNL     1      44.222 -19.425   4.010  1.00  0.00     0.003 A 
HETATM   23  C   UNL     1      44.329 -19.654   2.639  1.00  0.00     0.001 A 
HETATM   24  C   UNL     1      43.405 -19.084   1.758  1.00  0.00     0.010 A 
BRANCH  20  25
HETATM   25  O   UNL     1      41.290 -17.236   4.105  1.00  0.00    -0.355 OA
HETATM   26  C   UNL     1      41.317 -17.210   5.534  1.00  0.00     0.210 C 
ENDBRANCH  20  25
ENDBRANCH  18  19
ENDBRANCH  15  18
ENDBRANCH   1  14
BRANCH   2  27
HETATM   27  O   UNL     1      40.491 -16.281  -3.077  1.00  0.00    -0.354 OA
HETATM   28  C   UNL     1      39.314 -16.052  -3.852  1.00  0.00     0.210 C 
ENDBRANCH   2  27
TORSDOF 5
ENDMDL
MODEL 8
REMARK VINA RESULT:      -7.9      2.251      3.171
REMARK  5 active torsions:
REMARK  status: ('A' for Active; 'I' for Inactive)
REMARK    1  A    between atoms: O_2  and  C_3 
REMARK    2  A    between atoms: C_4  and  C_5 
REMARK    3  A    between atoms: C_5  and  C_6 
REMARK       I    between atoms: C_6  and  N_7 
REMARK    4  A    between atoms: N_7  and  C_8 
REMARK    5  A    between atoms: C_9  and  O_10 
ROOT
HETATM    1  C   UNL     1      42.950 -16.211   3.102  1.00  0.00     0.071 A 
HETATM    2  C   UNL     1      42.969 -16.874   1.860  1.00  0.00     0.096 A 
HETATM    3  C   UNL     1      43.298 -18.233   1.748  1.00  0.00     0.054 A 
HETATM    4  C   UNL     1      43.680 -18.923   2.910  1.00  0.00     0.014 A 
HETATM    5  C   UNL     1      43.717 -18.228   4.114  1.00  0.00     0.089 A 
HETATM    6  O   UNL     1      44.118 -19.052   5.123  1.00  0.00    -0.309 OA
HETATM    7  C   UNL     1      44.342 -20.279   4.574  1.00  0.00     0.087 A 
HETATM    8  C   UNL     1      44.091 -20.254   3.206  1.00  0.00     0.011 A 
HETATM    9  C   UNL     1      44.765 -21.412   5.266  1.00  0.00     0.038 A 
HETATM   10  C   UNL     1      44.944 -22.577   4.513  1.00  0.00     0.003 A 
HETATM   11  C   UNL     1      44.708 -22.592   3.135  1.00  0.00     0.001 A 
HETATM   12  C   UNL     1      44.281 -21.437   2.465  1.00  0.00     0.015 A 
HETATM   13  C   UNL     1      43.383 -16.879   4.256  1.00  0.00     0.070 A 
ENDROOT
BRANCH   1  14
HETATM   14  N   UNL     1      42.586 -14.852   3.222  1.00  0.00    -0.324 N 
HETATM   15  C   UNL     1      41.278 -14.416   3.363  1.00  0.00     0.226 C 
HETATM   16  O   UNL     1      40.332 -15.122   3.708  1.00  0.00    -0.273 OA
HETATM   17  H   UNL     1      43.307 -14.186   3.480  1.00  0.00     0.169 HD
BRANCH  15  18
HETATM   18  C   UNL     1      41.062 -12.962   2.996  1.00  0.00     0.144 C 
BRANCH  18  19
HETATM   19  C   UNL     1      40.936 -12.665   1.523  1.00  0.00    -0.016 A 
HETATM   20  C   UNL     1      39.690 -12.635   0.883  1.00  0.00     0.074 A 
HETATM   21  C   UNL     1      39.584 -12.338  -0.477  1.00  0.00     0.037 A 
HETATM   22  C   UNL     1      40.730 -12.032  -1.209  1.00  0.00     0.003 A 
HETATM   23  C   UNL     1      41.978 -12.054  -0.589  1.00  0.00     0.001 A 
HETATM   24  C   UNL     1      42.082 -12.376   0.767  1.00  0.00     0.010 A 
BRANCH  20  25
HETATM   25  O   UNL     1      38.568 -12.997   1.583  1.00  0.00    -0.355 OA
HETATM   26  C   UNL     1      38.049 -14.235   1.090  1.00  0.00     0.210 C 
ENDBRANCH  20  25
ENDBRANCH  18  19
ENDBRANCH  15  18
ENDBRANCH   1  14
BRANCH   2  27
HETATM   27  O   UNL     1      42.728 -16.209   0.680  1.00  0.00    -0.354 OA
HETATM   28  C   UNL     1      41.387 -16.446   0.249  1.00  0.00     0.210 C 
ENDBRANCH   2  27
TORSDOF 5
ENDMDL
MODEL 9
REMARK VINA RESULT:      -7.9      2.771      4.854
REMARK  5 active torsions:
REMARK  status: ('A' for Active; 'I' for Inactive)
REMARK    1  A    between atoms: O_2  and  C_3 
REMARK    2  A    between atoms: C_4  and  C_5 
REMARK    3  A    between atoms: C_5  and  C_6 
REMARK       I    between atoms: C_6  and  N_7 
REMARK    4  A    between atoms: N_7  and  C_8 
REMARK    5  A    between atoms: C_9  and  O_10 
ROOT
HETATM    1  C   UNL     1      42.613 -16.125   3.548  1.00  0.00     0.071 A 
HETATM    2  C   UNL     1      42.728 -16.657   2.249  1.00  0.00     0.096 A 
HETATM    3  C   UNL     1      43.145 -17.976   2.021  1.00  0.00     0.054 A 
HETATM    4  C   UNL     1      43.518 -18.757   3.127  1.00  0.00     0.014 A 
HETATM    5  C   UNL     1      43.458 -18.186   4.394  1.00  0.00     0.089 A 
HETATM    6  O   UNL     1      43.864 -19.084   5.336  1.00  0.00    -0.309 OA
HETATM    7  C   UNL     1      44.188 -20.234   4.680  1.00  0.00     0.087 A 
HETATM    8  C   UNL     1      43.997 -20.085   3.311  1.00  0.00     0.011 A 
HETATM    9  C   UNL     1      44.649 -21.405   5.278  1.00  0.00     0.038 A 
HETATM   10  C   UNL     1      44.933 -22.476   4.424  1.00  0.00     0.003 A 
HETATM   11  C   UNL     1      44.760 -22.364   3.041  1.00  0.00     0.001 A 
HETATM   12  C   UNL     1      44.292 -21.174   2.468  1.00  0.00     0.015 A 
HETATM   13  C   UNL     1      43.035 -16.880   4.651  1.00  0.00     0.070 A 
ENDROOT
BRANCH   1  14
HETATM   14  N   UNL     1      42.160 -14.808   3.783  1.00  0.00    -0.324 N 
HETATM   15  C   UNL     1      43.004 -13.714   3.894  1.00  0.00     0.226 C 
HETATM   16  O   UNL     1      44.172 -13.681   3.508  1.00  0.00    -0.273 OA
HETATM   17  H   UNL     1      41.184 -14.600   3.603  1.00  0.00     0.169 HD
BRANCH  15  18
HETATM   18  C   UNL     1      42.393 -12.524   4.605  1.00  0.00     0.144 C 
BRANCH  18  19
HETATM   19  C   UNL     1      41.050 -12.068   4.094  1.00  0.00    -0.016 A 
HETATM   20  C   UNL     1      39.905 -12.105   4.901  1.00  0.00     0.074 A 
HETATM   21  C   UNL     1      38.671 -11.660   4.423  1.00  0.00     0.037 A 
HETATM   22  C   UNL     1      38.576 -11.139   3.134  1.00  0.00     0.003 A 
HETATM   23  C   UNL     1      39.705 -11.091   2.318  1.00  0.00     0.001 A 
HETATM   24  C   UNL     1      40.933 -11.561   2.791  1.00  0.00     0.010 A 
BRANCH  20  25
HETATM   25  O   UNL     1      39.980 -12.675   6.145  1.00  0.00    -0.355 OA
HETATM   26  C   UNL     1      39.665 -11.714   7.155  1.00  0.00     0.210 C 
ENDBRANCH  20  25
ENDBRANCH  18  19
ENDBRANCH  15  18
ENDBRANCH   1  14
BRANCH   2  27
HETATM   27  O   UNL     1      42.498 -15.890   1.130  1.00  0.00    -0.354 OA
HETATM   28  C   UNL     1      41.480 -16.488   0.327  1.00  0.00     0.210 C 
ENDBRANCH   2  27
TORSDOF 5
ENDMDL
MODEL 10
REMARK VINA RESULT:      -7.7      2.254      2.870
REMARK  5 active torsions:
REMARK  status: ('A' for Active; 'I' for Inactive)
REMARK    1  A    between atoms: O_2  and  C_3 
REMARK    2  A    between atoms: C_4  and  C_5 
REMARK    3  A    between atoms: C_5  and  C_6 
REMARK       I    between atoms: C_6  and  N_7 
REMARK    4  A    between atoms: N_7  and  C_8 
REMARK    5  A    between atoms: C_9  and  O_10 
ROOT
HETATM    1  C   UNL     1      43.134 -16.044   3.003  1.00  0.00     0.071 A 
HETATM    2  C   UNL     1      43.435 -16.288   4.357  1.00  0.00     0.096 A 
HETATM    3  C   UNL     1      43.843 -17.551   4.811  1.00  0.00     0.054 A 
HETATM    4  C   UNL     1      43.885 -18.608   3.889  1.00  0.00     0.014 A 
HETATM    5  C   UNL     1      43.519 -18.355   2.571  1.00  0.00     0.089 A 
HETATM    6  O   UNL     1      43.611 -19.495   1.828  1.00  0.00    -0.309 OA
HETATM    7  C   UNL     1      44.035 -20.485   2.664  1.00  0.00     0.087 A 
HETATM    8  C   UNL     1      44.215 -19.993   3.952  1.00  0.00     0.011 A 
HETATM    9  C   UNL     1      44.260 -21.811   2.300  1.00  0.00     0.038 A 
HETATM   10  C   UNL     1      44.688 -22.676   3.313  1.00  0.00     0.003 A 
HETATM   11  C   UNL     1      44.875 -22.221   4.622  1.00  0.00     0.001 A 
HETATM   12  C   UNL     1      44.642 -20.880   4.958  1.00  0.00     0.015 A 
HETATM   13  C   UNL     1      43.121 -17.106   2.089  1.00  0.00     0.070 A 
ENDROOT
BRANCH   1  14
HETATM   14  N   UNL     1      42.755 -14.766   2.537  1.00  0.00    -0.324 N 
HETATM   15  C   UNL     1      41.471 -14.258   2.646  1.00  0.00     0.226 C 
HETATM   16  O   UNL     1      40.604 -14.687   3.406  1.00  0.00    -0.273 OA
HETATM   17  H   UNL     1      43.488 -14.088   2.357  1.00  0.00     0.169 HD
BRANCH  15  18
HETATM   18  C   UNL     1      41.164 -13.124   1.688  1.00  0.00     0.144 C 
BRANCH  18  19
HETATM   19  C   UNL     1      39.715 -12.956   1.306  1.00  0.00    -0.016 A 
HETATM   20  C   UNL     1      38.917 -11.954   1.873  1.00  0.00     0.074 A 
HETATM   21  C   UNL     1      37.583 -11.795   1.495  1.00  0.00     0.037 A 
HETATM   22  C   UNL     1      37.039 -12.621   0.514  1.00  0.00     0.003 A 
HETATM   23  C   UNL     1      37.818 -13.622  -0.063  1.00  0.00     0.001 A 
HETATM   24  C   UNL     1      39.147 -13.795   0.335  1.00  0.00     0.010 A 
BRANCH  20  25
HETATM   25  O   UNL     1      39.429 -11.181   2.882  1.00  0.00    -0.355 OA
HETATM   26  C   UNL     1      38.803 -11.504   4.126  1.00  0.00     0.210 C 
ENDBRANCH  20  25
ENDBRANCH  18  19
ENDBRANCH  15  18
ENDBRANCH   1  14
BRANCH   2  27
HETATM   27  O   UNL     1      43.283 -15.316   5.320  1.00  0.00    -0.354 OA
HETATM   28  C   UNL     1      43.113 -15.920   6.603  1.00  0.00     0.210 C 
ENDBRANCH   2  27
TORSDOF 5
ENDMDL
