MODEL 1
REMARK VINA RESULT:      -7.7      0.000      0.000
REMARK  5 active torsions:
REMARK  status: ('A' for Active; 'I' for Inactive)
REMARK    1  A    between atoms: C_4  and  O_5 
REMARK    2  A    between atoms: C_6  and  C_7 
REMARK       I    between atoms: C_7  and  N_8 
REMARK    3  A    between atoms: N_8  and  C_9 
REMARK    4  A    between atoms: C_9  and  C_10 
REMARK    5  A    between atoms: C_10  and  C_11 
ROOT
HETATM    1  C   UNL     1      42.347 -16.806   1.515  1.00  0.00     0.254 C 
HETATM    2  N   UNL     1      42.714 -16.959   2.833  1.00  0.00    -0.356 N 
HETATM    3  O   UNL     1      42.966 -17.332   0.593  1.00  0.00    -0.268 OA
HETATM    4  H   UNL     1      42.206 -16.398   3.512  1.00  0.00     0.162 HD
ENDROOT
BRANCH   2   5
HETATM    5  C   UNL     1      43.946 -17.629   3.200  1.00  0.00     0.136 C 
BRANCH   5   6
HETATM    6  C   UNL     1      43.812 -18.667   4.354  1.00  0.00    -0.004 C 
HETATM    7  C   UNL     1      44.840 -18.374   5.473  1.00  0.00     0.021 C 
HETATM    8  C   UNL     1      42.404 -18.536   4.983  1.00  0.00     0.021 C 
BRANCH   6   9
HETATM    9  C   UNL     1      44.088 -20.074   3.782  1.00  0.00    -0.046 A 
HETATM   10  C   UNL     1      43.865 -20.343   2.420  1.00  0.00     0.027 A 
HETATM   11  C   UNL     1      44.115 -21.614   1.919  1.00  0.00     0.116 A 
HETATM   12  N   UNL     1      44.570 -22.638   2.666  1.00  0.00    -0.273 NA
HETATM   13  C   UNL     1      44.778 -22.376   3.971  1.00  0.00     0.116 A 
HETATM   14  C   UNL     1      44.556 -21.139   4.563  1.00  0.00     0.027 A 
ENDBRANCH   6   9
ENDBRANCH   5   6
ENDBRANCH   2   5
BRANCH   1  15
HETATM   15  C   UNL     1      41.156 -15.942   1.232  1.00  0.00     0.065 A 
HETATM   16  C   UNL     1      41.028 -15.093   0.122  1.00  0.00     0.081 A 
HETATM   17  C   UNL     1      39.865 -14.335  -0.067  1.00  0.00     0.044 A 
HETATM   18  C   UNL     1      38.813 -14.405   0.855  1.00  0.00    -0.059 A 
HETATM   19  C   UNL     1      37.548 -13.623   0.646  1.00  0.00     0.048 C 
HETATM   20  C   UNL     1      38.932 -15.254   1.959  1.00  0.00     0.008 A 
HETATM   21  C   UNL     1      40.092 -16.010   2.147  1.00  0.00     0.020 A 
BRANCH  16  22
HETATM   22  O   UNL     1      42.029 -14.993  -0.812  1.00  0.00    -0.360 OA
HETATM   23  H   UNL     1      41.994 -14.107  -1.212  1.00  0.00     0.217 HD
ENDBRANCH  16  22
ENDBRANCH   1  15
TORSDOF 5
ENDMDL
MODEL 2
REMARK VINA RESULT:      -7.5      6.201      7.550
REMARK  5 active torsions:
REMARK  status: ('A' for Active; 'I' for Inactive)
REMARK    1  A    between atoms: C_4  and  O_5 
REMARK    2  A    between atoms: C_6  and  C_7 
REMARK       I    between atoms: C_7  and  N_8 
REMARK    3  A    between atoms: N_8  and  C_9 
REMARK    4  A    between atoms: C_9  and  C_10 
REMARK    5  A    between atoms: C_10  and  C_11 
ROOT
HETATM    1  C   UNL     1      44.864 -13.351   7.770  1.00  0.00     0.254 C 
HETATM    2  N   UNL     1      43.965 -14.369   7.537  1.00  0.00    -0.356 N 
HETATM    3  O   UNL     1      45.944 -13.281   7.190  1.00  0.00    -0.268 OA
HETATM    4  H   UNL     1      43.150 -14.400   8.144  1.00  0.00     0.162 HD
ENDROOT
BRANCH   2   5
HETATM    5  C   UNL     1      44.309 -15.502   6.700  1.00  0.00     0.136 C 
BRANCH   5   6
HETATM    6  C   UNL     1      43.288 -16.677   6.733  1.00  0.00    -0.004 C 
HETATM    7  C   UNL     1      43.255 -17.331   8.135  1.00  0.00     0.021 C 
HETATM    8  C   UNL     1      41.872 -16.117   6.458  1.00  0.00     0.021 C 
BRANCH   6   9
HETATM    9  C   UNL     1      43.728 -17.737   5.701  1.00  0.00    -0.046 A 
HETATM   10  C   UNL     1      43.203 -17.717   4.395  1.00  0.00     0.027 A 
HETATM   11  C   UNL     1      43.605 -18.678   3.477  1.00  0.00     0.116 A 
HETATM   12  N   UNL     1      44.487 -19.657   3.754  1.00  0.00    -0.273 NA
HETATM   13  C   UNL     1      44.983 -19.675   5.006  1.00  0.00     0.116 A 
HETATM   14  C   UNL     1      44.641 -18.758   5.994  1.00  0.00     0.027 A 
ENDBRANCH   6   9
ENDBRANCH   5   6
ENDBRANCH   2   5
BRANCH   1  15
HETATM   15  C   UNL     1      44.483 -12.323   8.792  1.00  0.00     0.065 A 
HETATM   16  C   UNL     1      43.326 -11.531   8.738  1.00  0.00     0.081 A 
HETATM   17  C   UNL     1      43.045 -10.607   9.753  1.00  0.00     0.044 A 
HETATM   18  C   UNL     1      43.921 -10.451  10.835  1.00  0.00    -0.059 A 
HETATM   19  C   UNL     1      43.614  -9.489  11.945  1.00  0.00     0.048 C 
HETATM   20  C   UNL     1      45.072 -11.243  10.897  1.00  0.00     0.008 A 
HETATM   21  C   UNL     1      45.350 -12.164   9.885  1.00  0.00     0.020 A 
BRANCH  16  22
HETATM   22  O   UNL     1      42.434 -11.649   7.701  1.00  0.00    -0.360 OA
HETATM   23  H   UNL     1      41.916 -10.828   7.640  1.00  0.00     0.217 HD
ENDBRANCH  16  22
ENDBRANCH   1  15
TORSDOF 5
ENDMDL
MODEL 3
REMARK VINA RESULT:      -7.5      1.385      2.070
REMARK  5 active torsions:
REMARK  status: ('A' for Active; 'I' for Inactive)
REMARK    1  A    between atoms: C_4  and  O_5 
REMARK    2  A    between atoms: C_6  and  C_7 
REMARK       I    between atoms: C_7  and  N_8 
REMARK    3  A    between atoms: N_8  and  C_9 
REMARK    4  A    between atoms: C_9  and  C_10 
REMARK    5  A    between atoms: C_10  and  C_11 
ROOT
HETATM    1  C   UNL     1      40.819 -16.000   2.352  1.00  0.00     0.254 C 
HETATM    2  N   UNL     1      41.364 -17.204   1.965  1.00  0.00    -0.356 N 
HETATM    3  O   UNL     1      40.874 -15.594   3.510  1.00  0.00    -0.268 OA
HETATM    4  H   UNL     1      41.171 -17.502   1.012  1.00  0.00     0.162 HD
ENDROOT
BRANCH   2   5
HETATM    5  C   UNL     1      41.906 -18.134   2.936  1.00  0.00     0.136 C 
BRANCH   5   6
HETATM    6  C   UNL     1      43.459 -18.252   2.938  1.00  0.00    -0.004 C 
HETATM    7  C   UNL     1      44.060 -17.556   1.694  1.00  0.00     0.021 C 
HETATM    8  C   UNL     1      44.015 -17.520   4.184  1.00  0.00     0.021 C 
BRANCH   6   9
HETATM    9  C   UNL     1      43.837 -19.748   2.901  1.00  0.00    -0.046 A 
HETATM   10  C   UNL     1      44.495 -20.341   3.994  1.00  0.00     0.027 A 
HETATM   11  C   UNL     1      44.832 -21.688   3.946  1.00  0.00     0.116 A 
HETATM   12  N   UNL     1      44.564 -22.491   2.899  1.00  0.00    -0.273 NA
HETATM   13  C   UNL     1      43.938 -21.917   1.854  1.00  0.00     0.116 A 
HETATM   14  C   UNL     1      43.563 -20.580   1.808  1.00  0.00     0.027 A 
ENDBRANCH   6   9
ENDBRANCH   5   6
ENDBRANCH   2   5
BRANCH   1  15
HETATM   15  C   UNL     1      40.120 -15.195   1.298  1.00  0.00     0.065 A 
HETATM   16  C   UNL     1      40.675 -14.850   0.056  1.00  0.00     0.081 A 
HETATM   17  C   UNL     1      39.935 -14.107  -0.874  1.00  0.00     0.044 A 
HETATM   18  C   UNL     1      38.632 -13.688  -0.576  1.00  0.00    -0.059 A 
HETATM   19  C   UNL     1      37.819 -12.921  -1.577  1.00  0.00     0.048 C 
HETATM   20  C   UNL     1      38.073 -14.035   0.658  1.00  0.00     0.008 A 
HETATM   21  C   UNL     1      38.811 -14.776   1.585  1.00  0.00     0.020 A 
BRANCH  16  22
HETATM   22  O   UNL     1      41.946 -15.240  -0.285  1.00  0.00    -0.360 OA
HETATM   23  H   UNL     1      42.574 -14.568   0.032  1.00  0.00     0.217 HD
ENDBRANCH  16  22
ENDBRANCH   1  15
TORSDOF 5
ENDMDL
MODEL 4
REMARK VINA RESULT:      -7.4      0.934      1.810
REMARK  5 active torsions:
REMARK  status: ('A' for Active; 'I' for Inactive)
REMARK    1  A    between atoms: C_4  and  O_5 
REMARK    2  A    between atoms: C_6  and  C_7 
REMARK       I    between atoms: C_7  and  N_8 
REMARK    3  A    between atoms: N_8  and  C_9 
REMARK    4  A    between atoms: C_9  and  C_10 
REMARK    5  A    between atoms: C_10  and  C_11 
ROOT
HETATM    1  C   UNL     1      42.374 -16.805   1.521  1.00  0.00     0.254 C 
HETATM    2  N   UNL     1      42.759 -16.909   2.839  1.00  0.00    -0.356 N 
HETATM    3  O   UNL     1      42.969 -17.381   0.614  1.00  0.00    -0.268 OA
HETATM    4  H   UNL     1      42.273 -16.310   3.501  1.00  0.00     0.162 HD
ENDROOT
BRANCH   2   5
HETATM    5  C   UNL     1      43.984 -17.587   3.216  1.00  0.00     0.136 C 
BRANCH   5   6
HETATM    6  C   UNL     1      43.825 -18.665   4.328  1.00  0.00    -0.004 C 
HETATM    7  C   UNL     1      44.856 -18.438   5.459  1.00  0.00     0.021 C 
HETATM    8  C   UNL     1      42.418 -18.527   4.959  1.00  0.00     0.021 C 
BRANCH   6   9
HETATM    9  C   UNL     1      44.071 -20.054   3.703  1.00  0.00    -0.046 A 
HETATM   10  C   UNL     1      44.575 -21.107   4.489  1.00  0.00     0.027 A 
HETATM   11  C   UNL     1      44.794 -22.352   3.913  1.00  0.00     0.116 A 
HETATM   12  N   UNL     1      44.551 -22.632   2.619  1.00  0.00    -0.273 NA
HETATM   13  C   UNL     1      44.074 -21.620   1.870  1.00  0.00     0.116 A 
HETATM   14  C   UNL     1      43.823 -20.341   2.355  1.00  0.00     0.027 A 
ENDBRANCH   6   9
ENDBRANCH   5   6
ENDBRANCH   2   5
BRANCH   1  15
HETATM   15  C   UNL     1      41.195 -15.931   1.220  1.00  0.00     0.065 A 
HETATM   16  C   UNL     1      40.109 -15.725   2.084  1.00  0.00     0.081 A 
HETATM   17  C   UNL     1      39.058 -14.872   1.720  1.00  0.00     0.044 A 
HETATM   18  C   UNL     1      39.071 -14.216   0.483  1.00  0.00    -0.059 A 
HETATM   19  C   UNL     1      37.968 -13.274   0.097  1.00  0.00     0.048 C 
HETATM   20  C   UNL     1      40.154 -14.412  -0.379  1.00  0.00     0.008 A 
HETATM   21  C   UNL     1      41.201 -15.263  -0.016  1.00  0.00     0.020 A 
BRANCH  16  22
HETATM   22  O   UNL     1      40.053 -16.341   3.310  1.00  0.00    -0.360 OA
HETATM   23  H   UNL     1      39.719 -17.247   3.188  1.00  0.00     0.217 HD
ENDBRANCH  16  22
ENDBRANCH   1  15
TORSDOF 5
ENDMDL
MODEL 5
REMARK VINA RESULT:      -7.4      2.848      3.468
REMARK  5 active torsions:
REMARK  status: ('A' for Active; 'I' for Inactive)
REMARK    1  A    between atoms: C_4  and  O_5 
REMARK    2  A    between atoms: C_6  and  C_7 
REMARK       I    between atoms: C_7  and  N_8 
REMARK    3  A    between atoms: N_8  and  C_9 
REMARK    4  A    between atoms: C_9  and  C_10 
REMARK    5  A    between atoms: C_10  and  C_11 
ROOT
HETATM    1  C   UNL     1      41.391 -15.953   4.535  1.00  0.00     0.254 C 
HETATM    2  N   UNL     1      42.526 -16.135   3.778  1.00  0.00    -0.356 N 
HETATM    3  O   UNL     1      41.012 -16.777   5.363  1.00  0.00    -0.268 OA
HETATM    4  H   UNL     1      42.695 -15.452   3.044  1.00  0.00     0.162 HD
ENDROOT
BRANCH   2   5
HETATM    5  C   UNL     1      43.261 -17.385   3.809  1.00  0.00     0.136 C 
BRANCH   5   6
HETATM    6  C   UNL     1      43.325 -18.144   2.450  1.00  0.00    -0.004 C 
HETATM    7  C   UNL     1      41.931 -18.178   1.779  1.00  0.00     0.021 C 
HETATM    8  C   UNL     1      44.273 -17.381   1.495  1.00  0.00     0.021 C 
BRANCH   6   9
HETATM    9  C   UNL     1      43.781 -19.594   2.720  1.00  0.00    -0.046 A 
HETATM   10  C   UNL     1      43.560 -20.598   1.760  1.00  0.00     0.027 A 
HETATM   11  C   UNL     1      43.973 -21.899   2.017  1.00  0.00     0.116 A 
HETATM   12  N   UNL     1      44.589 -22.279   3.152  1.00  0.00    -0.273 NA
HETATM   13  C   UNL     1      44.794 -21.315   4.070  1.00  0.00     0.116 A 
HETATM   14  C   UNL     1      44.416 -19.988   3.905  1.00  0.00     0.027 A 
ENDBRANCH   6   9
ENDBRANCH   5   6
ENDBRANCH   2   5
BRANCH   1  15
HETATM   15  C   UNL     1      40.602 -14.701   4.295  1.00  0.00     0.065 A 
HETATM   16  C   UNL     1      40.034 -13.907   5.303  1.00  0.00     0.081 A 
HETATM   17  C   UNL     1      39.327 -12.741   4.980  1.00  0.00     0.044 A 
HETATM   18  C   UNL     1      39.168 -12.353   3.644  1.00  0.00    -0.059 A 
HETATM   19  C   UNL     1      38.441 -11.089   3.287  1.00  0.00     0.048 C 
HETATM   20  C   UNL     1      39.737 -13.137   2.636  1.00  0.00     0.008 A 
HETATM   21  C   UNL     1      40.442 -14.300   2.959  1.00  0.00     0.020 A 
BRANCH  16  22
HETATM   22  O   UNL     1      40.166 -14.242   6.628  1.00  0.00    -0.360 OA
HETATM   23  H   UNL     1      39.900 -15.171   6.742  1.00  0.00     0.217 HD
ENDBRANCH  16  22
ENDBRANCH   1  15
TORSDOF 5
ENDMDL
MODEL 6
REMARK VINA RESULT:      -7.3      2.002      6.819
REMARK  5 active torsions:
REMARK  status: ('A' for Active; 'I' for Inactive)
REMARK    1  A    between atoms: C_4  and  O_5 
REMARK    2  A    between atoms: C_6  and  C_7 
REMARK       I    between atoms: C_7  and  N_8 
REMARK    3  A    between atoms: N_8  and  C_9 
REMARK    4  A    between atoms: C_9  and  C_10 
REMARK    5  A    between atoms: C_10  and  C_11 
ROOT
HETATM    1  C   UNL     1      43.128 -18.036   1.623  1.00  0.00     0.254 C 
HETATM    2  N   UNL     1      41.884 -17.519   1.908  1.00  0.00    -0.356 N 
HETATM    3  O   UNL     1      43.772 -17.695   0.635  1.00  0.00    -0.268 OA
HETATM    4  H   UNL     1      41.385 -17.944   2.686  1.00  0.00     0.162 HD
ENDROOT
BRANCH   2   5
HETATM    5  C   UNL     1      41.196 -16.650   0.974  1.00  0.00     0.136 C 
BRANCH   5   6
HETATM    6  C   UNL     1      40.714 -15.294   1.569  1.00  0.00    -0.004 C 
HETATM    7  C   UNL     1      40.821 -14.167   0.515  1.00  0.00     0.021 C 
HETATM    8  C   UNL     1      39.219 -15.419   1.953  1.00  0.00     0.021 C 
BRANCH   6   9
HETATM    9  C   UNL     1      41.616 -14.938   2.770  1.00  0.00    -0.046 A 
HETATM   10  C   UNL     1      41.153 -15.126   4.086  1.00  0.00     0.027 A 
HETATM   11  C   UNL     1      41.974 -14.799   5.157  1.00  0.00     0.116 A 
HETATM   12  N   UNL     1      43.217 -14.300   5.024  1.00  0.00    -0.273 NA
HETATM   13  C   UNL     1      43.654 -14.117   3.763  1.00  0.00     0.116 A 
HETATM   14  C   UNL     1      42.907 -14.413   2.629  1.00  0.00     0.027 A 
ENDBRANCH   6   9
ENDBRANCH   5   6
ENDBRANCH   2   5
BRANCH   1  15
HETATM   15  C   UNL     1      43.673 -19.067   2.565  1.00  0.00     0.065 A 
HETATM   16  C   UNL     1      44.007 -18.829   3.907  1.00  0.00     0.081 A 
HETATM   17  C   UNL     1      44.494 -19.864   4.716  1.00  0.00     0.044 A 
HETATM   18  C   UNL     1      44.663 -21.153   4.196  1.00  0.00    -0.059 A 
HETATM   19  C   UNL     1      45.152 -22.278   5.063  1.00  0.00     0.048 C 
HETATM   20  C   UNL     1      44.325 -21.398   2.862  1.00  0.00     0.008 A 
HETATM   21  C   UNL     1      43.840 -20.365   2.056  1.00  0.00     0.020 A 
BRANCH  16  22
HETATM   22  O   UNL     1      43.855 -17.583   4.464  1.00  0.00    -0.360 OA
HETATM   23  H   UNL     1      43.839 -16.922   3.750  1.00  0.00     0.217 HD
ENDBRANCH  16  22
ENDBRANCH   1  15
TORSDOF 5
ENDMDL
MODEL 7
REMARK VINA RESULT:      -7.2      3.225      7.871
REMARK  5 active torsions:
REMARK  status: ('A' for Active; 'I' for Inactive)
REMARK    1  A    between atoms: C_4  and  O_5 
REMARK    2  A    between atoms: C_6  and  C_7 
REMARK       I    between atoms: C_7  and  N_8 
REMARK    3  A    between atoms: N_8  and  C_9 
REMARK    4  A    between atoms: C_9  and  C_10 
REMARK    5  A    between atoms: C_10  and  C_11 
ROOT
HETATM    1  C   UNL     1      42.876 -17.194   4.457  1.00  0.00     0.254 C 
HETATM    2  N   UNL     1      41.570 -16.843   4.198  1.00  0.00    -0.356 N 
HETATM    3  O   UNL     1      43.618 -16.505   5.152  1.00  0.00    -0.268 OA
HETATM    4  H   UNL     1      41.072 -17.419   3.525  1.00  0.00     0.162 HD
ENDROOT
BRANCH   2   5
HETATM    5  C   UNL     1      41.039 -15.558   4.609  1.00  0.00     0.136 C 
BRANCH   5   6
HETATM    6  C   UNL     1      40.703 -14.581   3.443  1.00  0.00    -0.004 C 
HETATM    7  C   UNL     1      41.998 -14.083   2.759  1.00  0.00     0.021 C 
HETATM    8  C   UNL     1      39.886 -15.345   2.372  1.00  0.00     0.021 C 
BRANCH   6   9
HETATM    9  C   UNL     1      39.948 -13.367   4.024  1.00  0.00    -0.046 A 
HETATM   10  C   UNL     1      39.920 -13.146   5.413  1.00  0.00     0.027 A 
HETATM   11  C   UNL     1      39.235 -12.050   5.922  1.00  0.00     0.116 A 
HETATM   12  N   UNL     1      38.577 -11.157   5.159  1.00  0.00    -0.273 NA
HETATM   13  C   UNL     1      38.603 -11.375   3.830  1.00  0.00     0.116 A 
HETATM   14  C   UNL     1      39.259 -12.443   3.228  1.00  0.00     0.027 A 
ENDBRANCH   6   9
ENDBRANCH   5   6
ENDBRANCH   2   5
BRANCH   1  15
HETATM   15  C   UNL     1      43.381 -18.460   3.832  1.00  0.00     0.065 A 
HETATM   16  C   UNL     1      44.322 -19.321   4.417  1.00  0.00     0.081 A 
HETATM   17  C   UNL     1      44.720 -20.494   3.762  1.00  0.00     0.044 A 
HETATM   18  C   UNL     1      44.191 -20.822   2.507  1.00  0.00    -0.059 A 
HETATM   19  C   UNL     1      44.584 -22.093   1.811  1.00  0.00     0.048 C 
HETATM   20  C   UNL     1      43.248 -19.971   1.924  1.00  0.00     0.008 A 
HETATM   21  C   UNL     1      42.852 -18.802   2.577  1.00  0.00     0.020 A 
BRANCH  16  22
HETATM   22  O   UNL     1      44.867 -19.046   5.647  1.00  0.00    -0.360 OA
HETATM   23  H   UNL     1      45.443 -18.266   5.565  1.00  0.00     0.217 HD
ENDBRANCH  16  22
ENDBRANCH   1  15
TORSDOF 5
ENDMDL
MODEL 8
REMARK VINA RESULT:      -7.2      1.644      2.347
REMARK  5 active torsions:
REMARK  status: ('A' for Active; 'I' for Inactive)
REMARK    1  A    between atoms: C_4  and  O_5 
REMARK    2  A    between atoms: C_6  and  C_7 
REMARK       I    between atoms: C_7  and  N_8 
REMARK    3  A    between atoms: N_8  and  C_9 
REMARK    4  A    between atoms: C_9  and  C_10 
REMARK    5  A    between atoms: C_10  and  C_11 
ROOT
HETATM    1  C   UNL     1      40.884 -16.042   1.003  1.00  0.00     0.254 C 
HETATM    2  N   UNL     1      41.060 -16.993   1.983  1.00  0.00    -0.356 N 
HETATM    3  O   UNL     1      41.303 -16.190  -0.142  1.00  0.00    -0.268 OA
HETATM    4  H   UNL     1      40.775 -16.732   2.923  1.00  0.00     0.162 HD
ENDROOT
BRANCH   2   5
HETATM    5  C   UNL     1      41.885 -18.164   1.758  1.00  0.00     0.136 C 
BRANCH   5   6
HETATM    6  C   UNL     1      43.309 -18.096   2.383  1.00  0.00    -0.004 C 
HETATM    7  C   UNL     1      44.312 -17.464   1.388  1.00  0.00     0.021 C 
HETATM    8  C   UNL     1      43.265 -17.178   3.629  1.00  0.00     0.021 C 
BRANCH   6   9
HETATM    9  C   UNL     1      43.771 -19.532   2.710  1.00  0.00    -0.046 A 
HETATM   10  C   UNL     1      44.387 -19.816   3.942  1.00  0.00     0.027 A 
HETATM   11  C   UNL     1      44.800 -21.112   4.222  1.00  0.00     0.116 A 
HETATM   12  N   UNL     1      44.649 -22.147   3.374  1.00  0.00    -0.273 NA
HETATM   13  C   UNL     1      44.064 -21.868   2.194  1.00  0.00     0.116 A 
HETATM   14  C   UNL     1      43.619 -20.605   1.823  1.00  0.00     0.027 A 
ENDBRANCH   6   9
ENDBRANCH   5   6
ENDBRANCH   2   5
BRANCH   1  15
HETATM   15  C   UNL     1      40.169 -14.783   1.392  1.00  0.00     0.065 A 
HETATM   16  C   UNL     1      39.286 -14.076   0.563  1.00  0.00     0.081 A 
HETATM   17  C   UNL     1      38.649 -12.915   1.023  1.00  0.00     0.044 A 
HETATM   18  C   UNL     1      38.891 -12.437   2.317  1.00  0.00    -0.059 A 
HETATM   19  C   UNL     1      38.190 -11.214   2.833  1.00  0.00     0.048 C 
HETATM   20  C   UNL     1      39.766 -13.142   3.149  1.00  0.00     0.008 A 
HETATM   21  C   UNL     1      40.400 -14.299   2.690  1.00  0.00     0.020 A 
BRANCH  16  22
HETATM   22  O   UNL     1      39.012 -14.506  -0.712  1.00  0.00    -0.360 OA
HETATM   23  H   UNL     1      38.775 -13.736  -1.256  1.00  0.00     0.217 HD
ENDBRANCH  16  22
ENDBRANCH   1  15
TORSDOF 5
ENDMDL
MODEL 9
REMARK VINA RESULT:      -7.2      2.832      6.759
REMARK  5 active torsions:
REMARK  status: ('A' for Active; 'I' for Inactive)
REMARK    1  A    between atoms: C_4  and  O_5 
REMARK    2  A    between atoms: C_6  and  C_7 
REMARK       I    between atoms: C_7  and  N_8 
REMARK    3  A    between atoms: N_8  and  C_9 
REMARK    4  A    between atoms: C_9  and  C_10 
REMARK    5  A    between atoms: C_10  and  C_11 
ROOT
HETATM    1  C   UNL     1      43.133 -17.400   5.215  1.00  0.00     0.254 C 
HETATM    2  N   UNL     1      41.880 -16.845   5.078  1.00  0.00    -0.356 N 
HETATM    3  O   UNL     1      43.960 -16.968   6.013  1.00  0.00    -0.268 OA
HETATM    4  H   UNL     1      41.308 -17.201   4.317  1.00  0.00     0.162 HD
ENDROOT
BRANCH   2   5
HETATM    5  C   UNL     1      41.518 -15.620   5.764  1.00  0.00     0.136 C 
BRANCH   5   6
HETATM    6  C   UNL     1      41.602 -14.330   4.896  1.00  0.00    -0.004 C 
HETATM    7  C   UNL     1      40.646 -13.242   5.441  1.00  0.00     0.021 C 
HETATM    8  C   UNL     1      43.039 -13.761   4.985  1.00  0.00     0.021 C 
BRANCH   6   9
HETATM    9  C   UNL     1      41.182 -14.682   3.453  1.00  0.00    -0.046 A 
HETATM   10  C   UNL     1      42.156 -14.859   2.453  1.00  0.00     0.027 A 
HETATM   11  C   UNL     1      41.764 -15.172   1.158  1.00  0.00     0.116 A 
HETATM   12  N   UNL     1      40.481 -15.325   0.780  1.00  0.00    -0.273 NA
HETATM   13  C   UNL     1      39.552 -15.149   1.739  1.00  0.00     0.116 A 
HETATM   14  C   UNL     1      39.846 -14.833   3.060  1.00  0.00     0.027 A 
ENDBRANCH   6   9
ENDBRANCH   5   6
ENDBRANCH   2   5
BRANCH   1  15
HETATM   15  C   UNL     1      43.469 -18.558   4.325  1.00  0.00     0.065 A 
HETATM   16  C   UNL     1      44.221 -19.676   4.717  1.00  0.00     0.081 A 
HETATM   17  C   UNL     1      44.469 -20.720   3.816  1.00  0.00     0.044 A 
HETATM   18  C   UNL     1      43.977 -20.662   2.506  1.00  0.00    -0.059 A 
HETATM   19  C   UNL     1      44.207 -21.789   1.542  1.00  0.00     0.048 C 
HETATM   20  C   UNL     1      43.221 -19.553   2.113  1.00  0.00     0.008 A 
HETATM   21  C   UNL     1      42.974 -18.512   3.012  1.00  0.00     0.020 A 
BRANCH  16  22
HETATM   22  O   UNL     1      44.721 -19.783   5.991  1.00  0.00    -0.360 OA
HETATM   23  H   UNL     1      45.260 -20.591   6.046  1.00  0.00     0.217 HD
ENDBRANCH  16  22
ENDBRANCH   1  15
TORSDOF 5
ENDMDL
MODEL 10
REMARK VINA RESULT:      -7.2      2.020      7.305
REMARK  5 active torsions:
REMARK  status: ('A' for Active; 'I' for Inactive)
REMARK    1  A    between atoms: C_4  and  O_5 
REMARK    2  A    between atoms: C_6  and  C_7 
REMARK       I    between atoms: C_7  and  N_8 
REMARK    3  A    between atoms: N_8  and  C_9 
REMARK    4  A    between atoms: C_9  and  C_10 
REMARK    5  A    between atoms: C_10  and  C_11 
ROOT
HETATM    1  C   UNL     1      43.689 -17.430   2.373  1.00  0.00     0.254 C 
HETATM    2  N   UNL     1      42.823 -16.549   2.982  1.00  0.00    -0.356 N 
HETATM    3  O   UNL     1      44.130 -17.245   1.242  1.00  0.00    -0.268 OA
HETATM    4  H   UNL     1      42.428 -16.844   3.871  1.00  0.00     0.162 HD
ENDROOT
BRANCH   2   5
HETATM    5  C   UNL     1      42.263 -15.422   2.261  1.00  0.00     0.136 C 
BRANCH   5   6
HETATM    6  C   UNL     1      40.743 -15.534   1.945  1.00  0.00    -0.004 C 
HETATM    7  C   UNL     1      40.260 -16.996   2.096  1.00  0.00     0.021 C 
HETATM    8  C   UNL     1      39.955 -14.684   2.971  1.00  0.00     0.021 C 
BRANCH   6   9
HETATM    9  C   UNL     1      40.511 -15.083   0.487  1.00  0.00    -0.046 A 
HETATM   10  C   UNL     1      41.209 -15.702  -0.567  1.00  0.00     0.027 A 
HETATM   11  C   UNL     1      40.993 -15.285  -1.874  1.00  0.00     0.116 A 
HETATM   12  N   UNL     1      40.139 -14.302  -2.216  1.00  0.00    -0.273 NA
HETATM   13  C   UNL     1      39.477 -13.709  -1.203  1.00  0.00     0.116 A 
HETATM   14  C   UNL     1      39.626 -14.056   0.135  1.00  0.00     0.027 A 
ENDBRANCH   6   9
ENDBRANCH   5   6
ENDBRANCH   2   5
BRANCH   1  15
HETATM   15  C   UNL     1      44.065 -18.660   3.142  1.00  0.00     0.065 A 
HETATM   16  C   UNL     1      44.263 -18.707   4.530  1.00  0.00     0.081 A 
HETATM   17  C   UNL     1      44.596 -19.912   5.164  1.00  0.00     0.044 A 
HETATM   18  C   UNL     1      44.747 -21.089   4.419  1.00  0.00    -0.059 A 
HETATM   19  C   UNL     1      45.071 -22.392   5.090  1.00  0.00     0.048 C 
HETATM   20  C   UNL     1      44.544 -21.049   3.036  1.00  0.00     0.008 A 
HETATM   21  C   UNL     1      44.212 -19.847   2.406  1.00  0.00     0.020 A 
BRANCH  16  22
HETATM   22  O   UNL     1      44.122 -17.582   5.304  1.00  0.00    -0.360 OA
HETATM   23  H   UNL     1      44.950 -17.071   5.264  1.00  0.00     0.217 HD
ENDBRANCH  16  22
ENDBRANCH   1  15
TORSDOF 5
ENDMDL
