MODEL 1
REMARK VINA RESULT:      -9.3      0.000      0.000
REMARK  7 active torsions:
REMARK  status: ('A' for Active; 'I' for Inactive)
REMARK    1  A    between atoms: C_2  and  N_3 
REMARK       I    between atoms: N_3  and  C_4 
REMARK    2  A    between atoms: C_4  and  C_5 
REMARK    3  A    between atoms: C_8  and  C_9 
REMARK       I    between atoms: C_9  and  N_10 
REMARK    4  A    between atoms: N_13  and  C_14 
REMARK    5  A    between atoms: C_15  and  O_16 
REMARK    6  A    between atoms: N_26  and  C_27 
REMARK    7  A    between atoms: C_27  and  C_28 
ROOT
HETATM    1  C   UNL     1      41.578 -12.090   0.611  1.00  0.00     0.098 A 
HETATM    2  C   UNL     1      41.937 -13.008   1.730  1.00  0.00     0.206 A 
HETATM    3  O   UNL     1      42.883 -12.753   2.475  1.00  0.00    -0.286 OA
HETATM    4  C   UNL     1      41.130 -14.249   1.895  1.00  0.00     0.098 A 
HETATM    5  C   UNL     1      40.192 -14.509   0.969  1.00  0.00     0.111 A 
HETATM    6  N   UNL     1      39.929 -13.714  -0.140  1.00  0.00    -0.364 N 
HETATM    7  C   UNL     1      40.627 -12.512  -0.242  1.00  0.00     0.111 A 
ENDROOT
BRANCH   4   8
HETATM    8  C   UNL     1      41.153 -15.022   3.155  1.00  0.00     0.259 C 
HETATM    9  N   UNL     1      42.286 -15.725   3.513  1.00  0.00    -0.345 N 
HETATM   10  C   UNL     1      42.203 -16.645   4.652  1.00  0.00     0.146 C 
HETATM   11  C   UNL     1      43.539 -15.877   2.755  1.00  0.00     0.146 C 
HETATM   12  C   UNL     1      42.303 -18.101   4.164  1.00  0.00     0.143 C 
HETATM   13  N   UNL     1      43.559 -18.289   3.388  1.00  0.00    -0.376 N 
HETATM   14  C   UNL     1      43.707 -17.337   2.265  1.00  0.00     0.143 C 
HETATM   15  O   UNL     1      40.120 -15.053   3.826  1.00  0.00    -0.267 OA
BRANCH  13  16
HETATM   16  C   UNL     1      43.867 -19.651   3.173  1.00  0.00     0.064 A 
HETATM   17  C   UNL     1      44.483 -20.428   4.191  1.00  0.00     0.094 A 
HETATM   18  C   UNL     1      44.766 -21.786   3.978  1.00  0.00     0.039 A 
HETATM   19  C   UNL     1      44.442 -22.395   2.767  1.00  0.00     0.003 A 
HETATM   20  C   UNL     1      43.850 -21.650   1.756  1.00  0.00     0.002 A 
HETATM   21  C   UNL     1      43.571 -20.294   1.956  1.00  0.00     0.032 A 
BRANCH  17  22
HETATM   22  O   UNL     1      44.833 -19.765   5.346  1.00  0.00    -0.354 OA
HETATM   23  C   UNL     1      44.116 -20.095   6.527  1.00  0.00     0.210 C 
ENDBRANCH  17  22
ENDBRANCH  13  16
ENDBRANCH   4   8
BRANCH   1  24
HETATM   24  C   UNL     1      42.169 -10.735   0.400  1.00  0.00     0.257 C 
HETATM   25  N   UNL     1      41.451  -9.694   0.932  1.00  0.00    -0.353 N 
HETATM   26  H   UNL     1      40.597  -9.921   1.443  1.00  0.00     0.163 HD
HETATM   27  O   UNL     1      43.211 -10.588  -0.234  1.00  0.00    -0.267 OA
BRANCH  25  28
HETATM   28  C   UNL     1      41.748  -8.282   0.729  1.00  0.00     0.076 C 
HETATM   29  C   UNL     1      41.870  -7.531   2.053  1.00  0.00     0.032 C 
HETATM   30  C   UNL     1      40.761  -7.601  -0.215  1.00  0.00     0.032 C 
ENDBRANCH  25  28
ENDBRANCH   1  24
BRANCH   6  31
HETATM   31  C   UNL     1      38.904 -14.073  -1.146  1.00  0.00     0.132 C 
BRANCH  31  32
HETATM   32  C   UNL     1      39.329 -13.769  -2.602  1.00  0.00     0.004 C 
HETATM   33  C   UNL     1      40.476 -14.654  -3.117  1.00  0.00     0.006 C 
HETATM   34  C   UNL     1      40.047 -16.093  -3.379  1.00  0.00     0.000 C 
HETATM   35  C   UNL     1      38.864 -16.150  -4.339  1.00  0.00     0.000 C 
HETATM   36  C   UNL     1      37.695 -15.302  -3.850  1.00  0.00     0.000 C 
HETATM   37  C   UNL     1      38.120 -13.864  -3.552  1.00  0.00     0.006 C 
ENDBRANCH  31  32
ENDBRANCH   6  31
TORSDOF 7
ENDMDL
MODEL 2
REMARK VINA RESULT:      -9.1      3.080      8.065
REMARK  7 active torsions:
REMARK  status: ('A' for Active; 'I' for Inactive)
REMARK    1  A    between atoms: C_2  and  N_3 
REMARK       I    between atoms: N_3  and  C_4 
REMARK    2  A    between atoms: C_4  and  C_5 
REMARK    3  A    between atoms: C_8  and  C_9 
REMARK       I    between atoms: C_9  and  N_10 
REMARK    4  A    between atoms: N_13  and  C_14 
REMARK    5  A    between atoms: C_15  and  O_16 
REMARK    6  A    between atoms: N_26  and  C_27 
REMARK    7  A    between atoms: C_27  and  C_28 
ROOT
HETATM    1  C   UNL     1      43.422 -14.894   6.213  1.00  0.00     0.098 A 
HETATM    2  C   UNL     1      42.115 -14.447   5.649  1.00  0.00     0.206 A 
HETATM    3  O   UNL     1      41.694 -13.311   5.859  1.00  0.00    -0.286 OA
HETATM    4  C   UNL     1      41.333 -15.432   4.850  1.00  0.00     0.098 A 
HETATM    5  C   UNL     1      41.808 -16.685   4.768  1.00  0.00     0.111 A 
HETATM    6  N   UNL     1      42.968 -17.137   5.386  1.00  0.00    -0.364 N 
HETATM    7  C   UNL     1      43.740 -16.192   6.059  1.00  0.00     0.111 A 
ENDROOT
BRANCH   4   8
HETATM    8  C   UNL     1      40.237 -15.001   3.956  1.00  0.00     0.259 C 
HETATM    9  N   UNL     1      40.266 -15.338   2.617  1.00  0.00    -0.345 N 
HETATM   10  C   UNL     1      39.282 -14.719   1.722  1.00  0.00     0.146 C 
HETATM   11  C   UNL     1      41.317 -16.063   1.885  1.00  0.00     0.146 C 
HETATM   12  C   UNL     1      39.979 -13.732   0.770  1.00  0.00     0.143 C 
HETATM   13  N   UNL     1      41.054 -14.433   0.015  1.00  0.00    -0.376 N 
HETATM   14  C   UNL     1      42.034 -15.121   0.884  1.00  0.00     0.143 C 
HETATM   15  O   UNL     1      39.349 -14.297   4.438  1.00  0.00    -0.267 OA
BRANCH  13  16
HETATM   16  C   UNL     1      41.527 -13.679  -1.082  1.00  0.00     0.064 A 
HETATM   17  C   UNL     1      41.298 -14.113  -2.417  1.00  0.00     0.094 A 
HETATM   18  C   UNL     1      41.752 -13.349  -3.502  1.00  0.00     0.039 A 
HETATM   19  C   UNL     1      42.430 -12.150  -3.290  1.00  0.00     0.003 A 
HETATM   20  C   UNL     1      42.674 -11.715  -1.994  1.00  0.00     0.002 A 
HETATM   21  C   UNL     1      42.232 -12.474  -0.905  1.00  0.00     0.032 A 
BRANCH  17  22
HETATM   22  O   UNL     1      40.674 -15.332  -2.570  1.00  0.00    -0.354 OA
HETATM   23  C   UNL     1      39.620 -15.406  -3.519  1.00  0.00     0.210 C 
ENDBRANCH  17  22
ENDBRANCH  13  16
ENDBRANCH   4   8
BRANCH   1  24
HETATM   24  C   UNL     1      44.404 -13.999   6.893  1.00  0.00     0.257 C 
HETATM   25  N   UNL     1      43.894 -13.234   7.911  1.00  0.00    -0.353 N 
HETATM   26  H   UNL     1      42.906 -13.352   8.141  1.00  0.00     0.163 HD
HETATM   27  O   UNL     1      45.576 -13.947   6.526  1.00  0.00    -0.267 OA
BRANCH  25  28
HETATM   28  C   UNL     1      44.620 -12.187   8.618  1.00  0.00     0.076 C 
HETATM   29  C   UNL     1      45.430 -12.746   9.786  1.00  0.00     0.032 C 
HETATM   30  C   UNL     1      43.717 -11.038   9.058  1.00  0.00     0.032 C 
ENDBRANCH  25  28
ENDBRANCH   1  24
BRANCH   6  31
HETATM   31  C   UNL     1      43.422 -18.542   5.286  1.00  0.00     0.132 C 
BRANCH  31  32
HETATM   32  C   UNL     1      44.592 -18.748   4.295  1.00  0.00     0.004 C 
HETATM   33  C   UNL     1      45.246 -20.137   4.378  1.00  0.00     0.006 C 
HETATM   34  C   UNL     1      44.366 -21.244   3.809  1.00  0.00     0.000 C 
HETATM   35  C   UNL     1      43.955 -20.939   2.373  1.00  0.00     0.000 C 
HETATM   36  C   UNL     1      43.280 -19.577   2.254  1.00  0.00     0.000 C 
HETATM   37  C   UNL     1      44.138 -18.462   2.851  1.00  0.00     0.006 C 
ENDBRANCH  31  32
ENDBRANCH   6  31
TORSDOF 7
ENDMDL
MODEL 3
REMARK VINA RESULT:      -8.9      5.863      9.662
REMARK  7 active torsions:
REMARK  status: ('A' for Active; 'I' for Inactive)
REMARK    1  A    between atoms: C_2  and  N_3 
REMARK       I    between atoms: N_3  and  C_4 
REMARK    2  A    between atoms: C_4  and  C_5 
REMARK    3  A    between atoms: C_8  and  C_9 
REMARK       I    between atoms: C_9  and  N_10 
REMARK    4  A    between atoms: N_13  and  C_14 
REMARK    5  A    between atoms: C_15  and  O_16 
REMARK    6  A    between atoms: N_26  and  C_27 
REMARK    7  A    between atoms: C_27  and  C_28 
ROOT
HETATM    1  C   UNL     1      41.851 -13.199   3.091  1.00  0.00     0.098 A 
HETATM    2  C   UNL     1      41.083 -12.305   4.004  1.00  0.00     0.206 A 
HETATM    3  O   UNL     1      40.474 -11.330   3.566  1.00  0.00    -0.286 OA
HETATM    4  C   UNL     1      41.101 -12.621   5.460  1.00  0.00     0.098 A 
HETATM    5  C   UNL     1      41.884 -13.633   5.868  1.00  0.00     0.111 A 
HETATM    6  N   UNL     1      42.691 -14.398   5.035  1.00  0.00    -0.364 N 
HETATM    7  C   UNL     1      42.604 -14.155   3.666  1.00  0.00     0.111 A 
ENDROOT
BRANCH   4   8
HETATM    8  C   UNL     1      40.102 -12.044   6.386  1.00  0.00     0.259 C 
HETATM    9  N   UNL     1      40.428 -10.944   7.154  1.00  0.00    -0.345 N 
HETATM   10  C   UNL     1      39.495 -10.531   8.209  1.00  0.00     0.146 C 
HETATM   11  C   UNL     1      41.721 -10.245   7.238  1.00  0.00     0.146 C 
HETATM   12  C   UNL     1      40.108 -10.806   9.594  1.00  0.00     0.143 C 
HETATM   13  N   UNL     1      41.421 -10.115   9.711  1.00  0.00    -0.376 N 
HETATM   14  C   UNL     1      42.370 -10.460   8.629  1.00  0.00     0.143 C 
HETATM   15  O   UNL     1      39.013 -12.611   6.478  1.00  0.00    -0.267 OA
BRANCH  13  16
HETATM   16  C   UNL     1      41.893 -10.067  11.041  1.00  0.00     0.064 A 
HETATM   17  C   UNL     1      41.834  -8.862  11.793  1.00  0.00     0.094 A 
HETATM   18  C   UNL     1      42.285  -8.827  13.121  1.00  0.00     0.039 A 
HETATM   19  C   UNL     1      42.793  -9.974  13.727  1.00  0.00     0.003 A 
HETATM   20  C   UNL     1      42.870 -11.159  13.006  1.00  0.00     0.002 A 
HETATM   21  C   UNL     1      42.430 -11.202  11.679  1.00  0.00     0.032 A 
BRANCH  17  22
HETATM   22  O   UNL     1      41.376  -7.744  11.130  1.00  0.00    -0.354 OA
HETATM   23  C   UNL     1      40.077  -7.277  11.464  1.00  0.00     0.210 C 
ENDBRANCH  17  22
ENDBRANCH  13  16
ENDBRANCH   4   8
BRANCH   1  24
HETATM   24  C   UNL     1      41.810 -13.130   1.600  1.00  0.00     0.257 C 
HETATM   25  N   UNL     1      41.030 -14.079   0.990  1.00  0.00    -0.353 N 
HETATM   26  H   UNL     1      40.526 -14.734   1.591  1.00  0.00     0.163 HD
HETATM   27  O   UNL     1      42.462 -12.289   0.985  1.00  0.00    -0.267 OA
BRANCH  25  28
HETATM   28  C   UNL     1      40.952 -14.301  -0.448  1.00  0.00     0.076 C 
HETATM   29  C   UNL     1      39.591 -13.899  -1.012  1.00  0.00     0.032 C 
HETATM   30  C   UNL     1      41.326 -15.727  -0.845  1.00  0.00     0.032 C 
ENDBRANCH  25  28
ENDBRANCH   1  24
BRANCH   6  31
HETATM   31  C   UNL     1      43.559 -15.480   5.551  1.00  0.00     0.132 C 
BRANCH  31  32
HETATM   32  C   UNL     1      42.847 -16.849   5.660  1.00  0.00     0.004 C 
HETATM   33  C   UNL     1      43.711 -18.041   5.214  1.00  0.00     0.006 C 
HETATM   34  C   UNL     1      44.827 -18.369   6.200  1.00  0.00     0.000 C 
HETATM   35  C   UNL     1      44.274 -18.612   7.600  1.00  0.00     0.000 C 
HETATM   36  C   UNL     1      43.430 -17.438   8.087  1.00  0.00     0.000 C 
HETATM   37  C   UNL     1      42.327 -17.079   7.092  1.00  0.00     0.006 C 
ENDBRANCH  31  32
ENDBRANCH   6  31
TORSDOF 7
ENDMDL
MODEL 4
REMARK VINA RESULT:      -8.7      5.624      8.796
REMARK  7 active torsions:
REMARK  status: ('A' for Active; 'I' for Inactive)
REMARK    1  A    between atoms: C_2  and  N_3 
REMARK       I    between atoms: N_3  and  C_4 
REMARK    2  A    between atoms: C_4  and  C_5 
REMARK    3  A    between atoms: C_8  and  C_9 
REMARK       I    between atoms: C_9  and  N_10 
REMARK    4  A    between atoms: N_13  and  C_14 
REMARK    5  A    between atoms: C_15  and  O_16 
REMARK    6  A    between atoms: N_26  and  C_27 
REMARK    7  A    between atoms: C_27  and  C_28 
ROOT
HETATM    1  C   UNL     1      41.900 -12.859   2.768  1.00  0.00     0.098 A 
HETATM    2  C   UNL     1      41.180 -12.074   3.812  1.00  0.00     0.206 A 
HETATM    3  O   UNL     1      40.708 -10.968   3.556  1.00  0.00    -0.286 OA
HETATM    4  C   UNL     1      41.076 -12.667   5.176  1.00  0.00     0.098 A 
HETATM    5  C   UNL     1      41.719 -13.824   5.402  1.00  0.00     0.111 A 
HETATM    6  N   UNL     1      42.486 -14.503   4.463  1.00  0.00    -0.364 N 
HETATM    7  C   UNL     1      42.508 -13.990   3.168  1.00  0.00     0.111 A 
ENDROOT
BRANCH   4   8
HETATM    8  C   UNL     1      40.093 -12.167   6.160  1.00  0.00     0.259 C 
HETATM    9  N   UNL     1      40.388 -11.058   6.928  1.00  0.00    -0.345 N 
HETATM   10  C   UNL     1      39.487 -10.718   8.036  1.00  0.00     0.146 C 
HETATM   11  C   UNL     1      41.637 -10.279   6.958  1.00  0.00     0.146 C 
HETATM   12  C   UNL     1      40.186 -10.971   9.383  1.00  0.00     0.143 C 
HETATM   13  N   UNL     1      41.458 -10.199   9.444  1.00  0.00    -0.376 N 
HETATM   14  C   UNL     1      42.369 -10.470   8.310  1.00  0.00     0.143 C 
HETATM   15  O   UNL     1      39.048 -12.803   6.298  1.00  0.00    -0.267 OA
BRANCH  13  16
HETATM   16  C   UNL     1      41.995 -10.139  10.749  1.00  0.00     0.064 A 
HETATM   17  C   UNL     1      41.979  -8.924  11.488  1.00  0.00     0.094 A 
HETATM   18  C   UNL     1      42.494  -8.875  12.792  1.00  0.00     0.039 A 
HETATM   19  C   UNL     1      43.024 -10.019  13.386  1.00  0.00     0.003 A 
HETATM   20  C   UNL     1      43.060 -11.212  12.677  1.00  0.00     0.002 A 
HETATM   21  C   UNL     1      42.556 -11.269  11.374  1.00  0.00     0.032 A 
BRANCH  17  22
HETATM   22  O   UNL     1      41.495  -7.811  10.834  1.00  0.00    -0.354 OA
HETATM   23  C   UNL     1      40.260  -7.277  11.288  1.00  0.00     0.210 C 
ENDBRANCH  17  22
ENDBRANCH  13  16
ENDBRANCH   4   8
BRANCH   1  24
HETATM   24  C   UNL     1      41.956 -12.497   1.321  1.00  0.00     0.257 C 
HETATM   25  N   UNL     1      42.079 -11.157   1.057  1.00  0.00    -0.353 N 
HETATM   26  H   UNL     1      42.149 -10.522   1.853  1.00  0.00     0.163 HD
HETATM   27  O   UNL     1      41.864 -13.356   0.448  1.00  0.00    -0.267 OA
BRANCH  25  28
HETATM   28  C   UNL     1      42.007 -10.554  -0.268  1.00  0.00     0.076 C 
HETATM   29  C   UNL     1      43.391 -10.372  -0.887  1.00  0.00     0.032 C 
HETATM   30  C   UNL     1      41.210  -9.252  -0.281  1.00  0.00     0.032 C 
ENDBRANCH  25  28
ENDBRANCH   1  24
BRANCH   6  31
HETATM   31  C   UNL     1      43.200 -15.760   4.785  1.00  0.00     0.132 C 
BRANCH  31  32
HETATM   32  C   UNL     1      42.285 -17.007   4.802  1.00  0.00     0.004 C 
HETATM   33  C   UNL     1      41.590 -17.292   3.460  1.00  0.00     0.006 C 
HETATM   34  C   UNL     1      42.547 -17.818   2.396  1.00  0.00     0.000 C 
HETATM   35  C   UNL     1      43.287 -19.059   2.882  1.00  0.00     0.000 C 
HETATM   36  C   UNL     1      44.009 -18.807   4.202  1.00  0.00     0.000 C 
HETATM   37  C   UNL     1      43.067 -18.249   5.268  1.00  0.00     0.006 C 
ENDBRANCH  31  32
ENDBRANCH   6  31
TORSDOF 7
ENDMDL
MODEL 5
REMARK VINA RESULT:      -8.5      2.707      8.651
REMARK  7 active torsions:
REMARK  status: ('A' for Active; 'I' for Inactive)
REMARK    1  A    between atoms: C_2  and  N_3 
REMARK       I    between atoms: N_3  and  C_4 
REMARK    2  A    between atoms: C_4  and  C_5 
REMARK    3  A    between atoms: C_8  and  C_9 
REMARK       I    between atoms: C_9  and  N_10 
REMARK    4  A    between atoms: N_13  and  C_14 
REMARK    5  A    between atoms: C_15  and  O_16 
REMARK    6  A    between atoms: N_26  and  C_27 
REMARK    7  A    between atoms: C_27  and  C_28 
ROOT
HETATM    1  C   UNL     1      41.132 -14.203   4.805  1.00  0.00     0.098 A 
HETATM    2  C   UNL     1      40.183 -13.895   3.696  1.00  0.00     0.206 A 
HETATM    3  O   UNL     1      39.557 -12.836   3.677  1.00  0.00    -0.286 OA
HETATM    4  C   UNL     1      40.003 -14.924   2.633  1.00  0.00     0.098 A 
HETATM    5  C   UNL     1      40.634 -16.099   2.791  1.00  0.00     0.111 A 
HETATM    6  N   UNL     1      41.430 -16.433   3.880  1.00  0.00    -0.364 N 
HETATM    7  C   UNL     1      41.664 -15.438   4.827  1.00  0.00     0.111 A 
ENDROOT
BRANCH   4   8
HETATM    8  C   UNL     1      39.394 -14.586   1.329  1.00  0.00     0.259 C 
HETATM    9  N   UNL     1      40.188 -14.138   0.292  1.00  0.00    -0.345 N 
HETATM   10  C   UNL     1      39.531 -13.613  -0.910  1.00  0.00     0.146 C 
HETATM   11  C   UNL     1      41.636 -13.877   0.303  1.00  0.00     0.146 C 
HETATM   12  C   UNL     1      39.752 -12.093  -1.012  1.00  0.00     0.143 C 
HETATM   13  N   UNL     1      41.210 -11.793  -0.999  1.00  0.00    -0.376 N 
HETATM   14  C   UNL     1      41.920 -12.360   0.170  1.00  0.00     0.143 C 
HETATM   15  O   UNL     1      38.169 -14.667   1.232  1.00  0.00    -0.267 OA
BRANCH  13  16
HETATM   16  C   UNL     1      41.496 -10.467  -1.393  1.00  0.00     0.064 A 
HETATM   17  C   UNL     1      42.096 -10.194  -2.652  1.00  0.00     0.094 A 
HETATM   18  C   UNL     1      42.357  -8.873  -3.046  1.00  0.00     0.039 A 
HETATM   19  C   UNL     1      42.028  -7.807  -2.211  1.00  0.00     0.003 A 
HETATM   20  C   UNL     1      41.451  -8.054  -0.972  1.00  0.00     0.002 A 
HETATM   21  C   UNL     1      41.194  -9.367  -0.567  1.00  0.00     0.032 A 
BRANCH  17  22
HETATM   22  O   UNL     1      42.454 -11.285  -3.414  1.00  0.00    -0.354 OA
HETATM   23  C   UNL     1      42.385 -11.141  -4.826  1.00  0.00     0.210 C 
ENDBRANCH  17  22
ENDBRANCH  13  16
ENDBRANCH   4   8
BRANCH   1  24
HETATM   24  C   UNL     1      41.554 -13.230   5.856  1.00  0.00     0.257 C 
HETATM   25  N   UNL     1      40.541 -12.488   6.408  1.00  0.00    -0.353 N 
HETATM   26  H   UNL     1      39.590 -12.670   6.085  1.00  0.00     0.163 HD
HETATM   27  O   UNL     1      42.736 -13.101   6.164  1.00  0.00    -0.267 OA
BRANCH  25  28
HETATM   28  C   UNL     1      40.725 -11.381   7.338  1.00  0.00     0.076 C 
HETATM   29  C   UNL     1      39.511 -11.193   8.246  1.00  0.00     0.032 C 
HETATM   30  C   UNL     1      41.110 -10.080   6.638  1.00  0.00     0.032 C 
ENDBRANCH  25  28
ENDBRANCH   1  24
BRANCH   6  31
HETATM   31  C   UNL     1      42.072 -17.760   4.013  1.00  0.00     0.132 C 
BRANCH  31  32
HETATM   32  C   UNL     1      43.590 -17.749   3.714  1.00  0.00     0.004 C 
HETATM   33  C   UNL     1      44.435 -18.530   4.734  1.00  0.00     0.006 C 
HETATM   34  C   UNL     1      44.266 -20.040   4.615  1.00  0.00     0.000 C 
HETATM   35  C   UNL     1      44.569 -20.520   3.200  1.00  0.00     0.000 C 
HETATM   36  C   UNL     1      43.731 -19.784   2.160  1.00  0.00     0.000 C 
HETATM   37  C   UNL     1      43.867 -18.267   2.289  1.00  0.00     0.006 C 
ENDBRANCH  31  32
ENDBRANCH   6  31
TORSDOF 7
ENDMDL
MODEL 6
REMARK VINA RESULT:      -8.5      2.278      2.755
REMARK  7 active torsions:
REMARK  status: ('A' for Active; 'I' for Inactive)
REMARK    1  A    between atoms: C_2  and  N_3 
REMARK       I    between atoms: N_3  and  C_4 
REMARK    2  A    between atoms: C_4  and  C_5 
REMARK    3  A    between atoms: C_8  and  C_9 
REMARK       I    between atoms: C_9  and  N_10 
REMARK    4  A    between atoms: N_13  and  C_14 
REMARK    5  A    between atoms: C_15  and  O_16 
REMARK    6  A    between atoms: N_26  and  C_27 
REMARK    7  A    between atoms: C_27  and  C_28 
ROOT
HETATM    1  C   UNL     1      40.473 -10.928   3.098  1.00  0.00     0.098 A 
HETATM    2  C   UNL     1      40.768 -11.967   4.126  1.00  0.00     0.206 A 
HETATM    3  O   UNL     1      40.999 -11.652   5.292  1.00  0.00    -0.286 OA
HETATM    4  C   UNL     1      40.798 -13.390   3.684  1.00  0.00     0.098 A 
HETATM    5  C   UNL     1      40.650 -13.638   2.372  1.00  0.00     0.111 A 
HETATM    6  N   UNL     1      40.488 -12.665   1.394  1.00  0.00    -0.364 N 
HETATM    7  C   UNL     1      40.374 -11.344   1.822  1.00  0.00     0.111 A 
ENDROOT
BRANCH   4   8
HETATM    8  C   UNL     1      40.711 -14.501   4.656  1.00  0.00     0.259 C 
HETATM    9  N   UNL     1      41.824 -15.275   4.921  1.00  0.00    -0.345 N 
HETATM   10  C   UNL     1      41.651 -16.491   5.723  1.00  0.00     0.146 C 
HETATM   11  C   UNL     1      43.157 -15.192   4.301  1.00  0.00     0.146 C 
HETATM   12  C   UNL     1      41.857 -17.737   4.844  1.00  0.00     0.143 C 
HETATM   13  N   UNL     1      43.197 -17.683   4.197  1.00  0.00    -0.376 N 
HETATM   14  C   UNL     1      43.432 -16.442   3.427  1.00  0.00     0.143 C 
HETATM   15  O   UNL     1      39.614 -14.732   5.165  1.00  0.00    -0.267 OA
BRANCH  13  16
HETATM   16  C   UNL     1      43.577 -18.920   3.629  1.00  0.00     0.064 A 
HETATM   17  C   UNL     1      44.333 -19.864   4.376  1.00  0.00     0.094 A 
HETATM   18  C   UNL     1      44.688 -21.099   3.813  1.00  0.00     0.039 A 
HETATM   19  C   UNL     1      44.300 -21.422   2.514  1.00  0.00     0.003 A 
HETATM   20  C   UNL     1      43.571 -20.509   1.764  1.00  0.00     0.002 A 
HETATM   21  C   UNL     1      43.219 -19.272   2.314  1.00  0.00     0.032 A 
BRANCH  17  22
HETATM   22  O   UNL     1      44.738 -19.472   5.634  1.00  0.00    -0.354 OA
HETATM   23  C   UNL     1      44.017 -19.994   6.740  1.00  0.00     0.210 C 
ENDBRANCH  17  22
ENDBRANCH  13  16
ENDBRANCH   4   8
BRANCH   1  24
HETATM   24  C   UNL     1      40.243  -9.483   3.393  1.00  0.00     0.257 C 
HETATM   25  N   UNL     1      39.433  -9.226   4.470  1.00  0.00    -0.353 N 
HETATM   26  H   UNL     1      39.076 -10.026   4.995  1.00  0.00     0.163 HD
HETATM   27  O   UNL     1      40.732  -8.605   2.686  1.00  0.00    -0.267 OA
BRANCH  25  28
HETATM   28  C   UNL     1      38.949  -7.908   4.859  1.00  0.00     0.076 C 
HETATM   29  C   UNL     1      39.790  -7.302   5.981  1.00  0.00     0.032 C 
HETATM   30  C   UNL     1      37.463  -7.904   5.205  1.00  0.00     0.032 C 
ENDBRANCH  25  28
ENDBRANCH   1  24
BRANCH   6  31
HETATM   31  C   UNL     1      40.365 -13.000  -0.043  1.00  0.00     0.132 C 
BRANCH  31  32
HETATM   32  C   UNL     1      41.560 -13.812  -0.595  1.00  0.00     0.004 C 
HETATM   33  C   UNL     1      41.189 -15.223  -1.080  1.00  0.00     0.006 C 
HETATM   34  C   UNL     1      40.394 -15.215  -2.381  1.00  0.00     0.000 C 
HETATM   35  C   UNL     1      41.136 -14.459  -3.477  1.00  0.00     0.000 C 
HETATM   36  C   UNL     1      41.501 -13.043  -3.041  1.00  0.00     0.000 C 
HETATM   37  C   UNL     1      42.271 -13.035  -1.721  1.00  0.00     0.006 C 
ENDBRANCH  31  32
ENDBRANCH   6  31
TORSDOF 7
ENDMDL
MODEL 7
REMARK VINA RESULT:      -8.4      4.046      7.003
REMARK  7 active torsions:
REMARK  status: ('A' for Active; 'I' for Inactive)
REMARK    1  A    between atoms: C_2  and  N_3 
REMARK       I    between atoms: N_3  and  C_4 
REMARK    2  A    between atoms: C_4  and  C_5 
REMARK    3  A    between atoms: C_8  and  C_9 
REMARK       I    between atoms: C_9  and  N_10 
REMARK    4  A    between atoms: N_13  and  C_14 
REMARK    5  A    between atoms: C_15  and  O_16 
REMARK    6  A    between atoms: N_26  and  C_27 
REMARK    7  A    between atoms: C_27  and  C_28 
ROOT
HETATM    1  C   UNL     1      43.051 -12.878   6.396  1.00  0.00     0.098 A 
HETATM    2  C   UNL     1      43.316 -13.326   4.998  1.00  0.00     0.206 A 
HETATM    3  O   UNL     1      44.378 -13.871   4.700  1.00  0.00    -0.286 OA
HETATM    4  C   UNL     1      42.262 -13.065   3.976  1.00  0.00     0.098 A 
HETATM    5  C   UNL     1      41.185 -12.361   4.359  1.00  0.00     0.111 A 
HETATM    6  N   UNL     1      40.985 -11.844   5.634  1.00  0.00    -0.364 N 
HETATM    7  C   UNL     1      41.931 -12.164   6.605  1.00  0.00     0.111 A 
ENDROOT
BRANCH   4   8
HETATM    8  C   UNL     1      42.254 -13.776   2.680  1.00  0.00     0.259 C 
HETATM    9  N   UNL     1      41.767 -15.065   2.602  1.00  0.00    -0.345 N 
HETATM   10  C   UNL     1      41.968 -15.812   1.356  1.00  0.00     0.146 C 
HETATM   11  C   UNL     1      41.271 -15.916   3.697  1.00  0.00     0.146 C 
HETATM   12  C   UNL     1      42.977 -16.952   1.580  1.00  0.00     0.143 C 
HETATM   13  N   UNL     1      42.507 -17.832   2.686  1.00  0.00    -0.376 N 
HETATM   14  C   UNL     1      42.235 -17.104   3.945  1.00  0.00     0.143 C 
HETATM   15  O   UNL     1      42.742 -13.198   1.708  1.00  0.00    -0.267 OA
BRANCH  13  16
HETATM   16  C   UNL     1      43.212 -19.055   2.744  1.00  0.00     0.064 A 
HETATM   17  C   UNL     1      44.148 -19.307   3.784  1.00  0.00     0.094 A 
HETATM   18  C   UNL     1      44.829 -20.533   3.848  1.00  0.00     0.039 A 
HETATM   19  C   UNL     1      44.594 -21.523   2.897  1.00  0.00     0.003 A 
HETATM   20  C   UNL     1      43.692 -21.292   1.867  1.00  0.00     0.002 A 
HETATM   21  C   UNL     1      43.014 -20.071   1.790  1.00  0.00     0.032 A 
BRANCH  17  22
HETATM   22  O   UNL     1      44.385 -18.274   4.664  1.00  0.00    -0.354 OA
HETATM   23  C   UNL     1      45.090 -18.587   5.857  1.00  0.00     0.210 C 
ENDBRANCH  17  22
ENDBRANCH  13  16
ENDBRANCH   4   8
BRANCH   1  24
HETATM   24  C   UNL     1      43.917 -13.201   7.569  1.00  0.00     0.257 C 
HETATM   25  N   UNL     1      44.006 -12.217   8.520  1.00  0.00    -0.353 N 
HETATM   26  H   UNL     1      43.465 -11.364   8.370  1.00  0.00     0.163 HD
HETATM   27  O   UNL     1      44.519 -14.270   7.639  1.00  0.00    -0.267 OA
BRANCH  25  28
HETATM   28  C   UNL     1      44.899 -12.243   9.671  1.00  0.00     0.076 C 
HETATM   29  C   UNL     1      44.138 -12.460  10.977  1.00  0.00     0.032 C 
HETATM   30  C   UNL     1      45.803 -11.015   9.744  1.00  0.00     0.032 C 
ENDBRANCH  25  28
ENDBRANCH   1  24
BRANCH   6  31
HETATM   31  C   UNL     1      39.790 -11.045   5.985  1.00  0.00     0.132 C 
BRANCH  31  32
HETATM   32  C   UNL     1      39.863  -9.575   5.508  1.00  0.00     0.004 C 
HETATM   33  C   UNL     1      38.707  -8.695   6.011  1.00  0.00     0.006 C 
HETATM   34  C   UNL     1      38.804  -8.379   7.499  1.00  0.00     0.000 C 
HETATM   35  C   UNL     1      40.144  -7.737   7.841  1.00  0.00     0.000 C 
HETATM   36  C   UNL     1      41.317  -8.594   7.378  1.00  0.00     0.000 C 
HETATM   37  C   UNL     1      41.215  -8.945   5.894  1.00  0.00     0.006 C 
ENDBRANCH  31  32
ENDBRANCH   6  31
TORSDOF 7
ENDMDL
MODEL 8
REMARK VINA RESULT:      -8.4      2.675      8.304
REMARK  7 active torsions:
REMARK  status: ('A' for Active; 'I' for Inactive)
REMARK    1  A    between atoms: C_2  and  N_3 
REMARK       I    between atoms: N_3  and  C_4 
REMARK    2  A    between atoms: C_4  and  C_5 
REMARK    3  A    between atoms: C_8  and  C_9 
REMARK       I    between atoms: C_9  and  N_10 
REMARK    4  A    between atoms: N_13  and  C_14 
REMARK    5  A    between atoms: C_15  and  O_16 
REMARK    6  A    between atoms: N_26  and  C_27 
REMARK    7  A    between atoms: C_27  and  C_28 
ROOT
HETATM    1  C   UNL     1      41.086 -14.253   4.802  1.00  0.00     0.098 A 
HETATM    2  C   UNL     1      40.117 -13.997   3.697  1.00  0.00     0.206 A 
HETATM    3  O   UNL     1      39.471 -12.951   3.654  1.00  0.00    -0.286 OA
HETATM    4  C   UNL     1      39.944 -15.060   2.667  1.00  0.00     0.098 A 
HETATM    5  C   UNL     1      40.600 -16.218   2.852  1.00  0.00     0.111 A 
HETATM    6  N   UNL     1      41.416 -16.504   3.940  1.00  0.00    -0.364 N 
HETATM    7  C   UNL     1      41.642 -15.476   4.853  1.00  0.00     0.111 A 
ENDROOT
BRANCH   4   8
HETATM    8  C   UNL     1      39.312 -14.773   1.362  1.00  0.00     0.259 C 
HETATM    9  N   UNL     1      40.097 -14.534   0.252  1.00  0.00    -0.345 N 
HETATM   10  C   UNL     1      39.447 -14.046  -0.969  1.00  0.00     0.146 C 
HETATM   11  C   UNL     1      41.566 -14.462   0.176  1.00  0.00     0.146 C 
HETATM   12  C   UNL     1      39.849 -12.585  -1.235  1.00  0.00     0.143 C 
HETATM   13  N   UNL     1      41.332 -12.475  -1.313  1.00  0.00    -0.376 N 
HETATM   14  C   UNL     1      42.028 -13.014  -0.123  1.00  0.00     0.143 C 
HETATM   15  O   UNL     1      38.083 -14.704   1.325  1.00  0.00    -0.267 OA
BRANCH  13  16
HETATM   16  C   UNL     1      41.759 -11.241  -1.852  1.00  0.00     0.064 A 
HETATM   17  C   UNL     1      41.974 -10.115  -1.011  1.00  0.00     0.094 A 
HETATM   18  C   UNL     1      42.418  -8.898  -1.550  1.00  0.00     0.039 A 
HETATM   19  C   UNL     1      42.661  -8.776  -2.917  1.00  0.00     0.003 A 
HETATM   20  C   UNL     1      42.446  -9.861  -3.756  1.00  0.00     0.002 A 
HETATM   21  C   UNL     1      41.996 -11.076  -3.230  1.00  0.00     0.032 A 
BRANCH  17  22
HETATM   22  O   UNL     1      41.665 -10.273   0.322  1.00  0.00    -0.354 OA
HETATM   23  C   UNL     1      40.645  -9.441   0.855  1.00  0.00     0.210 C 
ENDBRANCH  17  22
ENDBRANCH  13  16
ENDBRANCH   4   8
BRANCH   1  24
HETATM   24  C   UNL     1      41.503 -13.241   5.817  1.00  0.00     0.257 C 
HETATM   25  N   UNL     1      40.484 -12.499   6.358  1.00  0.00    -0.353 N 
HETATM   26  H   UNL     1      39.532 -12.707   6.051  1.00  0.00     0.163 HD
HETATM   27  O   UNL     1      42.686 -13.083   6.108  1.00  0.00    -0.267 OA
BRANCH  25  28
HETATM   28  C   UNL     1      40.659 -11.360   7.250  1.00  0.00     0.076 C 
HETATM   29  C   UNL     1      39.502 -11.231   8.240  1.00  0.00     0.032 C 
HETATM   30  C   UNL     1      40.906 -10.055   6.500  1.00  0.00     0.032 C 
ENDBRANCH  25  28
ENDBRANCH   1  24
BRANCH   6  31
HETATM   31  C   UNL     1      42.085 -17.814   4.104  1.00  0.00     0.132 C 
BRANCH  31  32
HETATM   32  C   UNL     1      43.598 -17.783   3.787  1.00  0.00     0.004 C 
HETATM   33  C   UNL     1      44.461 -18.593   4.768  1.00  0.00     0.006 C 
HETATM   34  C   UNL     1      44.299 -20.100   4.598  1.00  0.00     0.000 C 
HETATM   35  C   UNL     1      44.588 -20.528   3.163  1.00  0.00     0.000 C 
HETATM   36  C   UNL     1      43.733 -19.760   2.160  1.00  0.00     0.000 C 
HETATM   37  C   UNL     1      43.861 -18.248   2.342  1.00  0.00     0.006 C 
ENDBRANCH  31  32
ENDBRANCH   6  31
TORSDOF 7
ENDMDL
MODEL 9
REMARK VINA RESULT:      -8.1      3.317      5.920
REMARK  7 active torsions:
REMARK  status: ('A' for Active; 'I' for Inactive)
REMARK    1  A    between atoms: C_2  and  N_3 
REMARK       I    between atoms: N_3  and  C_4 
REMARK    2  A    between atoms: C_4  and  C_5 
REMARK    3  A    between atoms: C_8  and  C_9 
REMARK       I    between atoms: C_9  and  N_10 
REMARK    4  A    between atoms: N_13  and  C_14 
REMARK    5  A    between atoms: C_15  and  O_16 
REMARK    6  A    between atoms: N_26  and  C_27 
REMARK    7  A    between atoms: C_27  and  C_28 
ROOT
HETATM    1  C   UNL     1      37.631 -12.374   0.638  1.00  0.00     0.098 A 
HETATM    2  C   UNL     1      38.505 -13.458   0.104  1.00  0.00     0.206 A 
HETATM    3  O   UNL     1      38.256 -13.994  -0.975  1.00  0.00    -0.286 OA
HETATM    4  C   UNL     1      39.669 -13.882   0.932  1.00  0.00     0.098 A 
HETATM    5  C   UNL     1      39.802 -13.327   2.149  1.00  0.00     0.111 A 
HETATM    6  N   UNL     1      38.925 -12.399   2.698  1.00  0.00    -0.364 N 
HETATM    7  C   UNL     1      37.889 -11.943   1.886  1.00  0.00     0.111 A 
ENDROOT
BRANCH   4   8
HETATM    8  C   UNL     1      40.785 -14.659   0.353  1.00  0.00     0.259 C 
HETATM    9  N   UNL     1      40.977 -15.975   0.728  1.00  0.00    -0.345 N 
HETATM   10  C   UNL     1      42.209 -16.647   0.301  1.00  0.00     0.146 C 
HETATM   11  C   UNL     1      40.224 -16.755   1.723  1.00  0.00     0.146 C 
HETATM   12  C   UNL     1      43.122 -16.899   1.513  1.00  0.00     0.143 C 
HETATM   13  N   UNL     1      42.388 -17.685   2.543  1.00  0.00    -0.376 N 
HETATM   14  C   UNL     1      41.108 -17.067   2.957  1.00  0.00     0.143 C 
HETATM   15  O   UNL     1      41.549 -14.077  -0.418  1.00  0.00    -0.267 OA
BRANCH  13  16
HETATM   16  C   UNL     1      43.243 -18.211   3.537  1.00  0.00     0.064 A 
HETATM   17  C   UNL     1      43.838 -19.493   3.382  1.00  0.00     0.094 A 
HETATM   18  C   UNL     1      44.704 -20.000   4.363  1.00  0.00     0.039 A 
HETATM   19  C   UNL     1      44.998 -19.253   5.502  1.00  0.00     0.003 A 
HETATM   20  C   UNL     1      44.417 -18.004   5.678  1.00  0.00     0.002 A 
HETATM   21  C   UNL     1      43.547 -17.493   4.709  1.00  0.00     0.032 A 
BRANCH  17  22
HETATM   22  O   UNL     1      43.470 -20.212   2.266  1.00  0.00    -0.354 OA
HETATM   23  C   UNL     1      44.098 -21.471   2.070  1.00  0.00     0.210 C 
ENDBRANCH  17  22
ENDBRANCH  13  16
ENDBRANCH   4   8
BRANCH   1  24
HETATM   24  C   UNL     1      36.529 -11.718  -0.125  1.00  0.00     0.257 C 
HETATM   25  N   UNL     1      36.795 -11.478  -1.450  1.00  0.00    -0.353 N 
HETATM   26  H   UNL     1      37.699 -11.784  -1.813  1.00  0.00     0.163 HD
HETATM   27  O   UNL     1      35.478 -11.397   0.425  1.00  0.00    -0.267 OA
BRANCH  25  28
HETATM   28  C   UNL     1      35.937 -10.722  -2.353  1.00  0.00     0.076 C 
HETATM   29  C   UNL     1      35.990 -11.269  -3.778  1.00  0.00     0.032 C 
HETATM   30  C   UNL     1      36.219  -9.222  -2.315  1.00  0.00     0.032 C 
ENDBRANCH  25  28
ENDBRANCH   1  24
BRANCH   6  31
HETATM   31  C   UNL     1      39.108 -11.850   4.061  1.00  0.00     0.132 C 
BRANCH  31  32
HETATM   32  C   UNL     1      40.250 -12.526   4.855  1.00  0.00     0.004 C 
HETATM   33  C   UNL     1      41.517 -11.664   4.986  1.00  0.00     0.006 C 
HETATM   34  C   UNL     1      41.340 -10.489   5.941  1.00  0.00     0.000 C 
HETATM   35  C   UNL     1      40.876 -10.958   7.315  1.00  0.00     0.000 C 
HETATM   36  C   UNL     1      39.606 -11.797   7.228  1.00  0.00     0.000 C 
HETATM   37  C   UNL     1      39.759 -12.961   6.249  1.00  0.00     0.006 C 
ENDBRANCH  31  32
ENDBRANCH   6  31
TORSDOF 7
ENDMDL
MODEL 10
REMARK VINA RESULT:      -8.1      3.415      4.663
REMARK  7 active torsions:
REMARK  status: ('A' for Active; 'I' for Inactive)
REMARK    1  A    between atoms: C_2  and  N_3 
REMARK       I    between atoms: N_3  and  C_4 
REMARK    2  A    between atoms: C_4  and  C_5 
REMARK    3  A    between atoms: C_8  and  C_9 
REMARK       I    between atoms: C_9  and  N_10 
REMARK    4  A    between atoms: N_13  and  C_14 
REMARK    5  A    between atoms: C_15  and  O_16 
REMARK    6  A    between atoms: N_26  and  C_27 
REMARK    7  A    between atoms: C_27  and  C_28 
ROOT
HETATM    1  C   UNL     1      39.308 -12.090   3.092  1.00  0.00     0.098 A 
HETATM    2  C   UNL     1      40.405 -12.783   2.358  1.00  0.00     0.206 A 
HETATM    3  O   UNL     1      41.529 -12.880   2.849  1.00  0.00    -0.286 OA
HETATM    4  C   UNL     1      40.098 -13.327   1.005  1.00  0.00     0.098 A 
HETATM    5  C   UNL     1      38.881 -13.076   0.495  1.00  0.00     0.111 A 
HETATM    6  N   UNL     1      37.892 -12.333   1.129  1.00  0.00    -0.364 N 
HETATM    7  C   UNL     1      38.154 -11.902   2.427  1.00  0.00     0.111 A 
ENDROOT
BRANCH   4   8
HETATM    8  C   UNL     1      40.973 -14.330   0.361  1.00  0.00     0.259 C 
HETATM    9  N   UNL     1      40.966 -15.638   0.803  1.00  0.00    -0.345 N 
HETATM   10  C   UNL     1      41.992 -16.552   0.289  1.00  0.00     0.146 C 
HETATM   11  C   UNL     1      40.210 -16.213   1.928  1.00  0.00     0.146 C 
HETATM   12  C   UNL     1      42.985 -16.915   1.408  1.00  0.00     0.143 C 
HETATM   13  N   UNL     1      42.251 -17.496   2.565  1.00  0.00    -0.376 N 
HETATM   14  C   UNL     1      41.166 -16.627   3.074  1.00  0.00     0.143 C 
HETATM   15  O   UNL     1      41.730 -13.941  -0.529  1.00  0.00    -0.267 OA
BRANCH  13  16
HETATM   16  C   UNL     1      43.110 -18.127   3.492  1.00  0.00     0.064 A 
HETATM   17  C   UNL     1      43.615 -19.433   3.246  1.00  0.00     0.094 A 
HETATM   18  C   UNL     1      44.485 -20.045   4.160  1.00  0.00     0.039 A 
HETATM   19  C   UNL     1      44.873 -19.380   5.322  1.00  0.00     0.003 A 
HETATM   20  C   UNL     1      44.383 -18.109   5.586  1.00  0.00     0.002 A 
HETATM   21  C   UNL     1      43.509 -17.493   4.684  1.00  0.00     0.032 A 
BRANCH  17  22
HETATM   22  O   UNL     1      43.155 -20.068   2.112  1.00  0.00    -0.354 OA
HETATM   23  C   UNL     1      43.750 -21.314   1.780  1.00  0.00     0.210 C 
ENDBRANCH  17  22
ENDBRANCH  13  16
ENDBRANCH   4   8
BRANCH   1  24
HETATM   24  C   UNL     1      39.391 -11.634   4.512  1.00  0.00     0.257 C 
HETATM   25  N   UNL     1      40.527 -10.938   4.838  1.00  0.00    -0.353 N 
HETATM   26  H   UNL     1      41.206 -10.765   4.094  1.00  0.00     0.163 HD
HETATM   27  O   UNL     1      38.504 -11.903   5.318  1.00  0.00    -0.267 OA
BRANCH  25  28
HETATM   28  C   UNL     1      40.898 -10.524   6.184  1.00  0.00     0.076 C 
HETATM   29  C   UNL     1      41.452  -9.101   6.209  1.00  0.00     0.032 C 
HETATM   30  C   UNL     1      41.846 -11.508   6.865  1.00  0.00     0.032 C 
ENDBRANCH  25  28
ENDBRANCH   1  24
BRANCH   6  31
HETATM   31  C   UNL     1      36.581 -12.062   0.498  1.00  0.00     0.132 C 
BRANCH  31  32
HETATM   32  C   UNL     1      35.996 -10.675   0.853  1.00  0.00     0.004 C 
HETATM   33  C   UNL     1      36.417  -9.553  -0.111  1.00  0.00     0.006 C 
HETATM   34  C   UNL     1      35.746  -9.658  -1.476  1.00  0.00     0.000 C 
HETATM   35  C   UNL     1      34.228  -9.698  -1.343  1.00  0.00     0.000 C 
HETATM   36  C   UNL     1      33.770 -10.816  -0.412  1.00  0.00     0.000 C 
HETATM   37  C   UNL     1      34.460 -10.741   0.950  1.00  0.00     0.006 C 
ENDBRANCH  31  32
ENDBRANCH   6  31
TORSDOF 7
ENDMDL
