MODEL 1
REMARK VINA RESULT:      -9.0      0.000      0.000
REMARK  3 active torsions:
REMARK  status: ('A' for Active; 'I' for Inactive)
REMARK    1  A    between atoms: C_9  and  C_10 
REMARK       I    between atoms: C_10  and  N_11 
REMARK    2  A    between atoms: N_11  and  C_12 
REMARK    3  A    between atoms: C_13  and  O_14 
ROOT
HETATM    1  C   UNL     1      40.610 -15.783   1.095  1.00  0.00     0.268 C 
HETATM    2  N   UNL     1      40.960 -15.608  -0.217  1.00  0.00    -0.344 N 
HETATM    3  O   UNL     1      39.662 -15.177   1.594  1.00  0.00    -0.266 OA
HETATM    4  H   UNL     1      41.702 -16.162  -0.618  1.00  0.00     0.163 HD
ENDROOT
BRANCH   1   5
HETATM    5  C   UNL     1      41.434 -16.699   1.844  1.00  0.00     0.102 A 
HETATM    6  N   UNL     1      41.893 -16.388   3.105  1.00  0.00    -0.351 N 
HETATM    7  C   UNL     1      42.727 -17.369   3.586  1.00  0.00     0.043 A 
HETATM    8  H   UNL     1      41.670 -15.526   3.585  1.00  0.00     0.166 HD
HETATM    9  C   UNL     1      42.771 -18.382   2.633  1.00  0.00    -0.001 A 
HETATM   10  C   UNL     1      43.435 -17.425   4.786  1.00  0.00     0.031 A 
HETATM   11  C   UNL     1      43.560 -19.538   2.871  1.00  0.00    -0.043 A 
HETATM   12  C   UNL     1      41.943 -17.952   1.550  1.00  0.00     0.049 A 
HETATM   13  C   UNL     1      44.312 -19.592   4.076  1.00  0.00    -0.055 A 
HETATM   14  C   UNL     1      43.639 -20.670   1.879  1.00  0.00     0.049 C 
HETATM   15  C   UNL     1      45.192 -20.775   4.390  1.00  0.00     0.049 C 
HETATM   16  C   UNL     1      44.230 -18.549   5.010  1.00  0.00     0.009 A 
ENDBRANCH   1   5
BRANCH   2  17
HETATM   17  C   UNL     1      40.331 -14.604  -1.051  1.00  0.00     0.147 C 
HETATM   18  C   UNL     1      40.187 -14.995  -2.556  1.00  0.00     0.149 C 
HETATM   19  C   UNL     1      41.450 -14.467  -3.265  1.00  0.00     0.073 C 
HETATM   20  C   UNL     1      41.840 -13.316  -2.390  1.00  0.00    -0.047 A 
HETATM   21  C   UNL     1      41.207 -13.388  -1.145  1.00  0.00    -0.027 A 
HETATM   22  C   UNL     1      42.738 -12.301  -2.675  1.00  0.00     0.008 A 
HETATM   23  C   UNL     1      41.459 -12.446  -0.159  1.00  0.00     0.010 A 
HETATM   24  C   UNL     1      42.355 -11.414  -0.441  1.00  0.00     0.001 A 
HETATM   25  C   UNL     1      42.990 -11.342  -1.691  1.00  0.00     0.001 A 
BRANCH  18  26
HETATM   26  O   UNL     1      40.025 -16.390  -2.796  1.00  0.00    -0.393 OA
HETATM   27  H   UNL     1      39.078 -16.534  -2.999  1.00  0.00     0.210 HD
ENDBRANCH  18  26
ENDBRANCH   2  17
TORSDOF 3
ENDMDL
MODEL 2
REMARK VINA RESULT:      -8.7      1.263      2.037
REMARK  3 active torsions:
REMARK  status: ('A' for Active; 'I' for Inactive)
REMARK    1  A    between atoms: C_9  and  C_10 
REMARK       I    between atoms: C_10  and  N_11 
REMARK    2  A    between atoms: N_11  and  C_12 
REMARK    3  A    between atoms: C_13  and  O_14 
ROOT
HETATM    1  C   UNL     1      41.078 -15.297   0.403  1.00  0.00     0.268 C 
HETATM    2  N   UNL     1      41.767 -14.795  -0.668  1.00  0.00    -0.344 N 
HETATM    3  O   UNL     1      39.915 -14.967   0.633  1.00  0.00    -0.266 OA
HETATM    4  H   UNL     1      42.697 -15.130  -0.869  1.00  0.00     0.163 HD
ENDROOT
BRANCH   1   5
HETATM    5  C   UNL     1      41.811 -16.213   1.244  1.00  0.00     0.102 A 
HETATM    6  N   UNL     1      42.658 -17.158   0.710  1.00  0.00    -0.351 N 
HETATM    7  C   UNL     1      43.177 -17.970   1.689  1.00  0.00     0.043 A 
HETATM    8  H   UNL     1      42.832 -17.258  -0.282  1.00  0.00     0.166 HD
HETATM    9  C   UNL     1      42.699 -17.505   2.911  1.00  0.00    -0.001 A 
HETATM   10  C   UNL     1      44.026 -19.071   1.577  1.00  0.00     0.031 A 
HETATM   11  C   UNL     1      43.084 -18.158   4.112  1.00  0.00    -0.043 A 
HETATM   12  C   UNL     1      41.853 -16.392   2.615  1.00  0.00     0.049 A 
HETATM   13  C   UNL     1      43.923 -19.300   4.007  1.00  0.00    -0.055 A 
HETATM   14  C   UNL     1      42.604 -17.693   5.464  1.00  0.00     0.049 C 
HETATM   15  C   UNL     1      44.355 -20.062   5.234  1.00  0.00     0.049 C 
HETATM   16  C   UNL     1      44.385 -19.728   2.754  1.00  0.00     0.009 A 
ENDBRANCH   1   5
BRANCH   2  17
HETATM   17  C   UNL     1      41.221 -13.748  -1.507  1.00  0.00     0.147 C 
HETATM   18  C   UNL     1      41.735 -13.752  -2.982  1.00  0.00     0.149 C 
HETATM   19  C   UNL     1      42.966 -12.825  -3.015  1.00  0.00     0.073 C 
HETATM   20  C   UNL     1      42.685 -11.891  -1.880  1.00  0.00    -0.047 A 
HETATM   21  C   UNL     1      41.699 -12.405  -1.032  1.00  0.00    -0.027 A 
HETATM   22  C   UNL     1      43.306 -10.685  -1.601  1.00  0.00     0.008 A 
HETATM   23  C   UNL     1      41.313 -11.723   0.112  1.00  0.00     0.010 A 
HETATM   24  C   UNL     1      41.926 -10.503   0.396  1.00  0.00     0.001 A 
HETATM   25  C   UNL     1      42.916  -9.987  -0.455  1.00  0.00     0.001 A 
BRANCH  18  26
HETATM   26  O   UNL     1      42.063 -15.039  -3.495  1.00  0.00    -0.393 OA
HETATM   27  H   UNL     1      41.525 -15.168  -4.303  1.00  0.00     0.210 HD
ENDBRANCH  18  26
ENDBRANCH   2  17
TORSDOF 3
ENDMDL
MODEL 3
REMARK VINA RESULT:      -8.5      1.427      7.827
REMARK  3 active torsions:
REMARK  status: ('A' for Active; 'I' for Inactive)
REMARK    1  A    between atoms: C_9  and  C_10 
REMARK       I    between atoms: C_10  and  N_11 
REMARK    2  A    between atoms: N_11  and  C_12 
REMARK    3  A    between atoms: C_13  and  O_14 
ROOT
HETATM    1  C   UNL     1      40.957 -15.963   1.841  1.00  0.00     0.268 C 
HETATM    2  N   UNL     1      41.991 -16.808   2.139  1.00  0.00    -0.344 N 
HETATM    3  O   UNL     1      39.940 -15.922   2.531  1.00  0.00    -0.266 OA
HETATM    4  H   UNL     1      42.839 -16.778   1.593  1.00  0.00     0.163 HD
ENDROOT
BRANCH   1   5
HETATM    5  C   UNL     1      41.135 -15.151   0.661  1.00  0.00     0.102 A 
HETATM    6  N   UNL     1      40.670 -15.559  -0.569  1.00  0.00    -0.351 N 
HETATM    7  C   UNL     1      41.028 -14.671  -1.555  1.00  0.00     0.043 A 
HETATM    8  H   UNL     1      40.168 -16.425  -0.720  1.00  0.00     0.166 HD
HETATM    9  C   UNL     1      41.701 -13.618  -0.942  1.00  0.00    -0.001 A 
HETATM   10  C   UNL     1      40.805 -14.730  -2.931  1.00  0.00     0.031 A 
HETATM   11  C   UNL     1      42.185 -12.539  -1.728  1.00  0.00    -0.043 A 
HETATM   12  C   UNL     1      41.747 -13.929   0.453  1.00  0.00     0.049 A 
HETATM   13  C   UNL     1      41.992 -12.604  -3.134  1.00  0.00    -0.055 A 
HETATM   14  C   UNL     1      42.912 -11.369  -1.117  1.00  0.00     0.049 C 
HETATM   15  C   UNL     1      42.498 -11.510  -4.039  1.00  0.00     0.049 C 
HETATM   16  C   UNL     1      41.302 -13.683  -3.707  1.00  0.00     0.009 A 
ENDBRANCH   1   5
BRANCH   2  17
HETATM   17  C   UNL     1      41.893 -17.796   3.194  1.00  0.00     0.147 C 
HETATM   18  C   UNL     1      42.380 -17.311   4.597  1.00  0.00     0.149 C 
HETATM   19  C   UNL     1      43.872 -17.688   4.693  1.00  0.00     0.073 C 
HETATM   20  C   UNL     1      43.957 -18.864   3.770  1.00  0.00    -0.047 A 
HETATM   21  C   UNL     1      42.841 -18.930   2.929  1.00  0.00    -0.027 A 
HETATM   22  C   UNL     1      44.987 -19.782   3.661  1.00  0.00     0.008 A 
HETATM   23  C   UNL     1      42.733 -19.918   1.962  1.00  0.00     0.010 A 
HETATM   24  C   UNL     1      43.762 -20.854   1.851  1.00  0.00     0.001 A 
HETATM   25  C   UNL     1      44.882 -20.786   2.695  1.00  0.00     0.001 A 
BRANCH  18  26
HETATM   26  O   UNL     1      42.199 -15.920   4.842  1.00  0.00    -0.393 OA
HETATM   27  H   UNL     1      42.699 -15.708   5.657  1.00  0.00     0.210 HD
ENDBRANCH  18  26
ENDBRANCH   2  17
TORSDOF 3
ENDMDL
MODEL 4
REMARK VINA RESULT:      -8.2      1.987      3.254
REMARK  3 active torsions:
REMARK  status: ('A' for Active; 'I' for Inactive)
REMARK    1  A    between atoms: C_9  and  C_10 
REMARK       I    between atoms: C_10  and  N_11 
REMARK    2  A    between atoms: N_11  and  C_12 
REMARK    3  A    between atoms: C_13  and  O_14 
ROOT
HETATM    1  C   UNL     1      42.312 -14.505   1.880  1.00  0.00     0.268 C 
HETATM    2  N   UNL     1      41.207 -14.601   1.077  1.00  0.00    -0.344 N 
HETATM    3  O   UNL     1      42.809 -13.415   2.162  1.00  0.00    -0.266 OA
HETATM    4  H   UNL     1      40.782 -15.501   0.911  1.00  0.00     0.163 HD
ENDROOT
BRANCH   1   5
HETATM    5  C   UNL     1      42.856 -15.757   2.345  1.00  0.00     0.102 A 
HETATM    6  N   UNL     1      43.036 -16.824   1.493  1.00  0.00    -0.351 N 
HETATM    7  C   UNL     1      43.482 -17.932   2.172  1.00  0.00     0.043 A 
HETATM    8  H   UNL     1      42.822 -16.794   0.505  1.00  0.00     0.166 HD
HETATM    9  C   UNL     1      43.655 -17.563   3.503  1.00  0.00    -0.001 A 
HETATM   10  C   UNL     1      43.741 -19.220   1.703  1.00  0.00     0.031 A 
HETATM   11  C   UNL     1      44.121 -18.519   4.444  1.00  0.00    -0.043 A 
HETATM   12  C   UNL     1      43.270 -16.189   3.592  1.00  0.00     0.049 A 
HETATM   13  C   UNL     1      44.357 -19.843   3.984  1.00  0.00    -0.055 A 
HETATM   14  C   UNL     1      44.334 -18.173   5.896  1.00  0.00     0.049 C 
HETATM   15  C   UNL     1      44.829 -20.920   4.927  1.00  0.00     0.049 C 
HETATM   16  C   UNL     1      44.175 -20.166   2.631  1.00  0.00     0.009 A 
ENDBRANCH   1   5
BRANCH   2  17
HETATM   17  C   UNL     1      40.646 -13.447   0.405  1.00  0.00     0.147 C 
HETATM   18  C   UNL     1      39.234 -13.011   0.912  1.00  0.00     0.149 C 
HETATM   19  C   UNL     1      38.209 -13.744   0.025  1.00  0.00     0.073 C 
HETATM   20  C   UNL     1      38.982 -13.950  -1.241  1.00  0.00    -0.047 A 
HETATM   21  C   UNL     1      40.354 -13.777  -1.031  1.00  0.00    -0.027 A 
HETATM   22  C   UNL     1      38.492 -14.313  -2.484  1.00  0.00     0.008 A 
HETATM   23  C   UNL     1      41.264 -13.965  -2.061  1.00  0.00     0.010 A 
HETATM   24  C   UNL     1      40.778 -14.322  -3.319  1.00  0.00     0.001 A 
HETATM   25  C   UNL     1      39.401 -14.495  -3.529  1.00  0.00     0.001 A 
BRANCH  18  26
HETATM   26  O   UNL     1      38.988 -13.280   2.289  1.00  0.00    -0.393 OA
HETATM   27  H   UNL     1      39.725 -13.842   2.604  1.00  0.00     0.210 HD
ENDBRANCH  18  26
ENDBRANCH   2  17
TORSDOF 3
ENDMDL
MODEL 5
REMARK VINA RESULT:      -8.2      1.899      2.775
REMARK  3 active torsions:
REMARK  status: ('A' for Active; 'I' for Inactive)
REMARK    1  A    between atoms: C_9  and  C_10 
REMARK       I    between atoms: C_10  and  N_11 
REMARK    2  A    between atoms: N_11  and  C_12 
REMARK    3  A    between atoms: C_13  and  O_14 
ROOT
HETATM    1  C   UNL     1      42.230 -14.497   2.031  1.00  0.00     0.268 C 
HETATM    2  N   UNL     1      41.138 -14.583   1.210  1.00  0.00    -0.344 N 
HETATM    3  O   UNL     1      42.796 -13.425   2.239  1.00  0.00    -0.266 OA
HETATM    4  H   UNL     1      40.655 -15.463   1.106  1.00  0.00     0.163 HD
ENDROOT
BRANCH   1   5
HETATM    5  C   UNL     1      42.675 -15.742   2.610  1.00  0.00     0.102 A 
HETATM    6  N   UNL     1      43.056 -15.825   3.931  1.00  0.00    -0.351 N 
HETATM    7  C   UNL     1      43.522 -17.081   4.236  1.00  0.00     0.043 A 
HETATM    8  H   UNL     1      43.030 -15.042   4.571  1.00  0.00     0.166 HD
HETATM    9  C   UNL     1      43.389 -17.863   3.091  1.00  0.00    -0.001 A 
HETATM   10  C   UNL     1      44.046 -17.571   5.432  1.00  0.00     0.031 A 
HETATM   11  C   UNL     1      43.791 -19.225   3.119  1.00  0.00    -0.043 A 
HETATM   12  C   UNL     1      42.842 -17.010   2.083  1.00  0.00     0.049 A 
HETATM   13  C   UNL     1      44.356 -19.726   4.322  1.00  0.00    -0.055 A 
HETATM   14  C   UNL     1      43.662 -20.120   1.913  1.00  0.00     0.049 C 
HETATM   15  C   UNL     1      44.829 -21.154   4.423  1.00  0.00     0.049 C 
HETATM   16  C   UNL     1      44.464 -18.902   5.452  1.00  0.00     0.009 A 
ENDBRANCH   1   5
BRANCH   2  17
HETATM   17  C   UNL     1      40.674 -13.453   0.432  1.00  0.00     0.147 C 
HETATM   18  C   UNL     1      39.219 -12.986   0.753  1.00  0.00     0.149 C 
HETATM   19  C   UNL     1      38.294 -13.746  -0.219  1.00  0.00     0.073 C 
HETATM   20  C   UNL     1      39.207 -14.009  -1.377  1.00  0.00    -0.047 A 
HETATM   21  C   UNL     1      40.547 -13.839  -1.014  1.00  0.00    -0.027 A 
HETATM   22  C   UNL     1      38.860 -14.418  -2.653  1.00  0.00     0.008 A 
HETATM   23  C   UNL     1      41.568 -14.075  -1.922  1.00  0.00     0.010 A 
HETATM   24  C   UNL     1      41.228 -14.479  -3.214  1.00  0.00     0.001 A 
HETATM   25  C   UNL     1      39.882 -14.649  -3.576  1.00  0.00     0.001 A 
BRANCH  18  26
HETATM   26  O   UNL     1      38.810 -13.198   2.101  1.00  0.00    -0.393 OA
HETATM   27  H   UNL     1      38.532 -12.327   2.453  1.00  0.00     0.210 HD
ENDBRANCH  18  26
ENDBRANCH   2  17
TORSDOF 3
ENDMDL
MODEL 6
REMARK VINA RESULT:      -7.9      1.740      7.733
REMARK  3 active torsions:
REMARK  status: ('A' for Active; 'I' for Inactive)
REMARK    1  A    between atoms: C_9  and  C_10 
REMARK       I    between atoms: C_10  and  N_11 
REMARK    2  A    between atoms: N_11  and  C_12 
REMARK    3  A    between atoms: C_13  and  O_14 
ROOT
HETATM    1  C   UNL     1      40.652 -15.349   2.078  1.00  0.00     0.268 C 
HETATM    2  N   UNL     1      41.613 -16.181   2.587  1.00  0.00    -0.344 N 
HETATM    3  O   UNL     1      39.455 -15.547   2.281  1.00  0.00    -0.266 OA
HETATM    4  H   UNL     1      42.589 -15.961   2.458  1.00  0.00     0.163 HD
ENDROOT
BRANCH   1   5
HETATM    5  C   UNL     1      41.138 -14.250   1.279  1.00  0.00     0.102 A 
HETATM    6  N   UNL     1      41.124 -12.956   1.751  1.00  0.00    -0.351 N 
HETATM    7  C   UNL     1      41.551 -12.072   0.790  1.00  0.00     0.043 A 
HETATM    8  H   UNL     1      40.798 -12.700   2.674  1.00  0.00     0.166 HD
HETATM    9  C   UNL     1      41.911 -12.817  -0.330  1.00  0.00    -0.001 A 
HETATM   10  C   UNL     1      41.641 -10.681   0.836  1.00  0.00     0.031 A 
HETATM   11  C   UNL     1      42.401 -12.156  -1.487  1.00  0.00    -0.043 A 
HETATM   12  C   UNL     1      41.658 -14.185  -0.001  1.00  0.00     0.049 A 
HETATM   13  C   UNL     1      42.467 -10.736  -1.463  1.00  0.00    -0.055 A 
HETATM   14  C   UNL     1      42.813 -12.911  -2.725  1.00  0.00     0.049 C 
HETATM   15  C   UNL     1      42.953  -9.960  -2.660  1.00  0.00     0.049 C 
HETATM   16  C   UNL     1      42.099 -10.029  -0.309  1.00  0.00     0.009 A 
ENDBRANCH   1   5
BRANCH   2  17
HETATM   17  C   UNL     1      41.275 -17.413   3.270  1.00  0.00     0.147 C 
HETATM   18  C   UNL     1      41.085 -17.278   4.815  1.00  0.00     0.149 C 
HETATM   19  C   UNL     1      42.460 -17.569   5.449  1.00  0.00     0.073 C 
HETATM   20  C   UNL     1      43.094 -18.457   4.424  1.00  0.00    -0.047 A 
HETATM   21  C   UNL     1      42.425 -18.375   3.198  1.00  0.00    -0.027 A 
HETATM   22  C   UNL     1      44.222 -19.247   4.568  1.00  0.00     0.008 A 
HETATM   23  C   UNL     1      42.871 -19.083   2.092  1.00  0.00     0.010 A 
HETATM   24  C   UNL     1      44.001 -19.890   2.231  1.00  0.00     0.001 A 
HETATM   25  C   UNL     1      44.672 -19.971   3.462  1.00  0.00     0.001 A 
BRANCH  18  26
HETATM   26  O   UNL     1      40.593 -16.012   5.246  1.00  0.00    -0.393 OA
HETATM   27  H   UNL     1      39.748 -16.181   5.711  1.00  0.00     0.210 HD
ENDBRANCH  18  26
ENDBRANCH   2  17
TORSDOF 3
ENDMDL
MODEL 7
REMARK VINA RESULT:      -7.9      2.136      3.345
REMARK  3 active torsions:
REMARK  status: ('A' for Active; 'I' for Inactive)
REMARK    1  A    between atoms: C_9  and  C_10 
REMARK       I    between atoms: C_10  and  N_11 
REMARK    2  A    between atoms: N_11  and  C_12 
REMARK    3  A    between atoms: C_13  and  O_14 
ROOT
HETATM    1  C   UNL     1      41.760 -15.359   0.226  1.00  0.00     0.268 C 
HETATM    2  N   UNL     1      41.684 -14.051   0.621  1.00  0.00    -0.344 N 
HETATM    3  O   UNL     1      41.399 -15.715  -0.895  1.00  0.00    -0.266 OA
HETATM    4  H   UNL     1      42.044 -13.776   1.523  1.00  0.00     0.163 HD
ENDROOT
BRANCH   1   5
HETATM    5  C   UNL     1      42.266 -16.281   1.214  1.00  0.00     0.102 A 
HETATM    6  N   UNL     1      42.495 -15.888   2.514  1.00  0.00    -0.351 N 
HETATM    7  C   UNL     1      43.056 -16.905   3.249  1.00  0.00     0.043 A 
HETATM    8  H   UNL     1      42.308 -14.955   2.858  1.00  0.00     0.166 HD
HETATM    9  C   UNL     1      43.145 -18.018   2.418  1.00  0.00    -0.001 A 
HETATM   10  C   UNL     1      43.485 -16.913   4.576  1.00  0.00     0.031 A 
HETATM   11  C   UNL     1      43.687 -19.231   2.921  1.00  0.00    -0.043 A 
HETATM   12  C   UNL     1      42.632 -17.613   1.147  1.00  0.00     0.049 A 
HETATM   13  C   UNL     1      44.157 -19.241   4.263  1.00  0.00    -0.055 A 
HETATM   14  C   UNL     1      43.801 -20.469   2.070  1.00  0.00     0.049 C 
HETATM   15  C   UNL     1      44.768 -20.482   4.862  1.00  0.00     0.049 C 
HETATM   16  C   UNL     1      44.040 -18.096   5.064  1.00  0.00     0.009 A 
ENDBRANCH   1   5
BRANCH   2  17
HETATM   17  C   UNL     1      41.050 -13.039  -0.198  1.00  0.00     0.147 C 
HETATM   18  C   UNL     1      41.526 -11.576   0.076  1.00  0.00     0.149 C 
HETATM   19  C   UNL     1      40.565 -10.998   1.134  1.00  0.00     0.073 C 
HETATM   20  C   UNL     1      39.320 -11.795   0.895  1.00  0.00    -0.047 A 
HETATM   21  C   UNL     1      39.590 -12.941   0.140  1.00  0.00    -0.027 A 
HETATM   22  C   UNL     1      38.044 -11.534   1.363  1.00  0.00     0.008 A 
HETATM   23  C   UNL     1      38.586 -13.850  -0.163  1.00  0.00     0.010 A 
HETATM   24  C   UNL     1      37.295 -13.590   0.297  1.00  0.00     0.001 A 
HETATM   25  C   UNL     1      37.026 -12.439   1.054  1.00  0.00     0.001 A 
BRANCH  18  26
HETATM   26  O   UNL     1      42.877 -11.462   0.511  1.00  0.00    -0.393 OA
HETATM   27  H   UNL     1      43.428 -11.382  -0.296  1.00  0.00     0.210 HD
ENDBRANCH  18  26
ENDBRANCH   2  17
TORSDOF 3
ENDMDL
MODEL 8
REMARK VINA RESULT:      -7.8      3.127      4.638
REMARK  3 active torsions:
REMARK  status: ('A' for Active; 'I' for Inactive)
REMARK    1  A    between atoms: C_9  and  C_10 
REMARK       I    between atoms: C_10  and  N_11 
REMARK    2  A    between atoms: N_11  and  C_12 
REMARK    3  A    between atoms: C_13  and  O_14 
ROOT
HETATM    1  C   UNL     1      40.773 -16.167   2.561  1.00  0.00     0.268 C 
HETATM    2  N   UNL     1      40.910 -15.002   3.265  1.00  0.00    -0.344 N 
HETATM    3  O   UNL     1      39.891 -16.307   1.714  1.00  0.00    -0.266 OA
HETATM    4  H   UNL     1      41.680 -14.891   3.909  1.00  0.00     0.163 HD
ENDROOT
BRANCH   1   5
HETATM    5  C   UNL     1      41.710 -17.213   2.894  1.00  0.00     0.102 A 
HETATM    6  N   UNL     1      42.183 -18.086   1.940  1.00  0.00    -0.351 N 
HETATM    7  C   UNL     1      42.990 -19.046   2.502  1.00  0.00     0.043 A 
HETATM    8  H   UNL     1      41.926 -18.040   0.963  1.00  0.00     0.166 HD
HETATM    9  C   UNL     1      43.096 -18.758   3.860  1.00  0.00    -0.001 A 
HETATM   10  C   UNL     1      43.626 -20.135   1.906  1.00  0.00     0.031 A 
HETATM   11  C   UNL     1      43.885 -19.590   4.696  1.00  0.00    -0.043 A 
HETATM   12  C   UNL     1      42.296 -17.595   4.087  1.00  0.00     0.049 A 
HETATM   13  C   UNL     1      44.512 -20.722   4.107  1.00  0.00    -0.055 A 
HETATM   14  C   UNL     1      44.042 -19.322   6.171  1.00  0.00     0.049 C 
HETATM   15  C   UNL     1      45.346 -21.667   4.933  1.00  0.00     0.049 C 
HETATM   16  C   UNL     1      44.382 -20.967   2.732  1.00  0.00     0.009 A 
ENDBRANCH   1   5
BRANCH   2  17
HETATM   17  C   UNL     1      39.949 -13.924   3.158  1.00  0.00     0.147 C 
HETATM   18  C   UNL     1      40.268 -12.864   2.056  1.00  0.00     0.149 C 
HETATM   19  C   UNL     1      41.092 -11.758   2.744  1.00  0.00     0.073 C 
HETATM   20  C   UNL     1      40.630 -11.861   4.164  1.00  0.00    -0.047 A 
HETATM   21  C   UNL     1      39.981 -13.078   4.398  1.00  0.00    -0.027 A 
HETATM   22  C   UNL     1      40.822 -10.948   5.187  1.00  0.00     0.008 A 
HETATM   23  C   UNL     1      39.510 -13.405   5.661  1.00  0.00     0.010 A 
HETATM   24  C   UNL     1      39.690 -12.486   6.695  1.00  0.00     0.001 A 
HETATM   25  C   UNL     1      40.342 -11.265   6.459  1.00  0.00     0.001 A 
BRANCH  18  26
HETATM   26  O   UNL     1      40.964 -13.375   0.923  1.00  0.00    -0.393 OA
HETATM   27  H   UNL     1      41.237 -14.289   1.147  1.00  0.00     0.210 HD
ENDBRANCH  18  26
ENDBRANCH   2  17
TORSDOF 3
ENDMDL
MODEL 9
REMARK VINA RESULT:      -7.8      2.824      4.276
REMARK  3 active torsions:
REMARK  status: ('A' for Active; 'I' for Inactive)
REMARK    1  A    between atoms: C_9  and  C_10 
REMARK       I    between atoms: C_10  and  N_11 
REMARK    2  A    between atoms: N_11  and  C_12 
REMARK    3  A    between atoms: C_13  and  O_14 
ROOT
HETATM    1  C   UNL     1      43.145 -14.801   3.185  1.00  0.00     0.268 C 
HETATM    2  N   UNL     1      41.831 -14.591   2.865  1.00  0.00    -0.344 N 
HETATM    3  O   UNL     1      43.958 -13.878   3.207  1.00  0.00    -0.266 OA
HETATM    4  H   UNL     1      41.173 -15.355   2.915  1.00  0.00     0.163 HD
ENDROOT
BRANCH   1   5
HETATM    5  C   UNL     1      43.507 -16.169   3.470  1.00  0.00     0.102 A 
HETATM    6  N   UNL     1      43.773 -17.067   2.461  1.00  0.00    -0.351 N 
HETATM    7  C   UNL     1      44.009 -18.324   2.965  1.00  0.00     0.043 A 
HETATM    8  H   UNL     1      43.751 -16.829   1.479  1.00  0.00     0.166 HD
HETATM    9  C   UNL     1      43.952 -18.233   4.353  1.00  0.00    -0.001 A 
HETATM   10  C   UNL     1      44.265 -19.519   2.293  1.00  0.00     0.031 A 
HETATM   11  C   UNL     1      44.167 -19.393   5.144  1.00  0.00    -0.043 A 
HETATM   12  C   UNL     1      43.649 -16.869   4.655  1.00  0.00     0.049 A 
HETATM   13  C   UNL     1      44.397 -20.623   4.469  1.00  0.00    -0.055 A 
HETATM   14  C   UNL     1      44.126 -19.353   6.650  1.00  0.00     0.049 C 
HETATM   15  C   UNL     1      44.610 -21.902   5.237  1.00  0.00     0.049 C 
HETATM   16  C   UNL     1      44.452 -20.664   3.068  1.00  0.00     0.009 A 
ENDBRANCH   1   5
BRANCH   2  17
HETATM   17  C   UNL     1      41.352 -13.306   2.399  1.00  0.00     0.147 C 
HETATM   18  C   UNL     1      40.586 -12.463   3.468  1.00  0.00     0.149 C 
HETATM   19  C   UNL     1      39.094 -12.819   3.315  1.00  0.00     0.073 C 
HETATM   20  C   UNL     1      39.017 -13.229   1.877  1.00  0.00    -0.047 A 
HETATM   21  C   UNL     1      40.288 -13.498   1.358  1.00  0.00    -0.027 A 
HETATM   22  C   UNL     1      37.881 -13.395   1.103  1.00  0.00     0.008 A 
HETATM   23  C   UNL     1      40.448 -13.938   0.052  1.00  0.00     0.010 A 
HETATM   24  C   UNL     1      39.309 -14.098  -0.738  1.00  0.00     0.001 A 
HETATM   25  C   UNL     1      38.034 -13.829  -0.216  1.00  0.00     0.001 A 
BRANCH  18  26
HETATM   26  O   UNL     1      41.016 -12.671   4.810  1.00  0.00    -0.393 OA
HETATM   27  H   UNL     1      40.545 -12.014   5.363  1.00  0.00     0.210 HD
ENDBRANCH  18  26
ENDBRANCH   2  17
TORSDOF 3
ENDMDL
MODEL 10
REMARK VINA RESULT:      -7.7      6.813      9.629
REMARK  3 active torsions:
REMARK  status: ('A' for Active; 'I' for Inactive)
REMARK    1  A    between atoms: C_9  and  C_10 
REMARK       I    between atoms: C_10  and  N_11 
REMARK    2  A    between atoms: N_11  and  C_12 
REMARK    3  A    between atoms: C_13  and  O_14 
ROOT
HETATM    1  C   UNL     1      42.806 -12.041   7.300  1.00  0.00     0.268 C 
HETATM    2  N   UNL     1      43.505 -11.856   8.463  1.00  0.00    -0.344 N 
HETATM    3  O   UNL     1      42.109 -11.148   6.819  1.00  0.00    -0.266 OA
HETATM    4  H   UNL     1      44.117 -12.583   8.803  1.00  0.00     0.163 HD
ENDROOT
BRANCH   1   5
HETATM    5  C   UNL     1      42.927 -13.348   6.701  1.00  0.00     0.102 A 
HETATM    6  N   UNL     1      43.652 -14.351   7.303  1.00  0.00    -0.351 N 
HETATM    7  C   UNL     1      43.699 -15.474   6.512  1.00  0.00     0.043 A 
HETATM    8  H   UNL     1      44.120 -14.247   8.194  1.00  0.00     0.166 HD
HETATM    9  C   UNL     1      42.931 -15.217   5.379  1.00  0.00    -0.001 A 
HETATM   10  C   UNL     1      44.361 -16.684   6.721  1.00  0.00     0.031 A 
HETATM   11  C   UNL     1      42.795 -16.217   4.380  1.00  0.00    -0.043 A 
HETATM   12  C   UNL     1      42.442 -13.882   5.520  1.00  0.00     0.049 A 
HETATM   13  C   UNL     1      43.492 -17.442   4.567  1.00  0.00    -0.055 A 
HETATM   14  C   UNL     1      41.970 -15.998   3.138  1.00  0.00     0.049 C 
HETATM   15  C   UNL     1      43.417 -18.542   3.540  1.00  0.00     0.049 C 
HETATM   16  C   UNL     1      44.248 -17.657   5.728  1.00  0.00     0.009 A 
ENDBRANCH   1   5
BRANCH   2  17
HETATM   17  C   UNL     1      43.356 -10.658   9.263  1.00  0.00     0.147 C 
HETATM   18  C   UNL     1      44.626 -10.248  10.075  1.00  0.00     0.149 C 
HETATM   19  C   UNL     1      44.491 -10.916  11.458  1.00  0.00     0.073 C 
HETATM   20  C   UNL     1      43.006 -11.044  11.600  1.00  0.00    -0.047 A 
HETATM   21  C   UNL     1      42.364 -10.893  10.365  1.00  0.00    -0.027 A 
HETATM   22  C   UNL     1      42.284 -11.323  12.748  1.00  0.00     0.008 A 
HETATM   23  C   UNL     1      40.987 -11.019  10.256  1.00  0.00     0.010 A 
HETATM   24  C   UNL     1      40.252 -11.291  11.410  1.00  0.00     0.001 A 
HETATM   25  C   UNL     1      40.896 -11.442  12.648  1.00  0.00     0.001 A 
BRANCH  18  26
HETATM   26  O   UNL     1      45.863 -10.604   9.466  1.00  0.00    -0.393 OA
HETATM   27  H   UNL     1      45.674 -10.772   8.520  1.00  0.00     0.210 HD
ENDBRANCH  18  26
ENDBRANCH   2  17
TORSDOF 3
ENDMDL
