MODEL 1
REMARK VINA RESULT:      -9.4      0.000      0.000
REMARK  3 active torsions:
REMARK  status: ('A' for Active; 'I' for Inactive)
REMARK    1  A    between atoms: C_6  and  N_7 
REMARK    2  A    between atoms: N_7  and  N_8 
REMARK    3  A    between atoms: C_9  and  C_10 
ROOT
HETATM    1  C   UNL     1      44.009 -15.661   6.433  1.00  0.00     0.024 A 
HETATM    2  C   UNL     1      43.241 -15.313   5.334  1.00  0.00     0.138 A 
HETATM    3 CL   UNL     1      42.507 -13.771   5.133  1.00  0.00    -0.061 Cl
HETATM    4  N   UNL     1      42.982 -16.146   4.297  1.00  0.00    -0.235 NA
HETATM    5  C   UNL     1      43.502 -17.386   4.330  1.00  0.00     0.071 A 
HETATM    6  C   UNL     1      44.298 -17.835   5.408  1.00  0.00    -0.004 A 
HETATM    7  C   UNL     1      44.544 -16.950   6.462  1.00  0.00     0.030 A 
HETATM    8  C   UNL     1      43.262 -18.263   3.281  1.00  0.00     0.072 A 
HETATM    9  C   UNL     1      43.792 -19.554   3.280  1.00  0.00     0.104 A 
HETATM   10  C   UNL     1      44.554 -20.000   4.359  1.00  0.00     0.103 A 
HETATM   11  O   UNL     1      45.079 -21.262   4.445  1.00  0.00    -0.346 OA
HETATM   12  C   UNL     1      44.472 -22.146   3.495  1.00  0.00     0.202 C 
HETATM   13  C   UNL     1      44.375 -21.482   2.131  1.00  0.00     0.202 C 
HETATM   14  O   UNL     1      43.515 -20.335   2.187  1.00  0.00    -0.346 OA
HETATM   15  C   UNL     1      44.821 -19.138   5.416  1.00  0.00     0.053 A 
ENDROOT
BRANCH   1  16
HETATM   16  C   UNL     1      44.277 -14.733   7.548  1.00  0.00     0.154 C 
HETATM   17  N   UNL     1      45.068 -13.720   7.379  1.00  0.00    -0.172 NA
BRANCH  17  18
HETATM   18  N   UNL     1      45.249 -12.924   8.467  1.00  0.00    -0.108 N 
HETATM   19  H   UNL     1      46.141 -12.889   8.959  1.00  0.00     0.208 HD
BRANCH  18  20
HETATM   20  C   UNL     1      44.269 -12.146   8.970  1.00  0.00     0.721 A 
HETATM   21  N   UNL     1      43.581 -11.198   8.381  1.00  0.00    -0.061 NA
HETATM   22  C   UNL     1      42.715 -10.730   9.346  1.00  0.00     0.103 A 
HETATM   23  C   UNL     1      42.885 -11.414  10.546  1.00  0.00     0.078 A 
HETATM   24  C   UNL     1      41.749  -9.717   9.273  1.00  0.00     0.034 A 
HETATM   25  C   UNL     1      42.142 -11.151  11.698  1.00  0.00     0.032 A 
HETATM   26  N   UNL     1      43.881 -12.308  10.273  1.00  0.00    -0.186 N 
HETATM   27  C   UNL     1      41.183 -10.136  11.604  1.00  0.00     0.002 A 
HETATM   28  C   UNL     1      40.987  -9.429  10.414  1.00  0.00     0.002 A 
HETATM   29  H   UNL     1      44.294 -12.990  10.889  1.00  0.00     0.184 HD
ENDBRANCH  18  20
ENDBRANCH  17  18
ENDBRANCH   1  16
TORSDOF 3
ENDMDL
MODEL 2
REMARK VINA RESULT:      -8.8      1.803      2.420
REMARK  3 active torsions:
REMARK  status: ('A' for Active; 'I' for Inactive)
REMARK    1  A    between atoms: C_6  and  N_7 
REMARK    2  A    between atoms: N_7  and  N_8 
REMARK    3  A    between atoms: C_9  and  C_10 
ROOT
HETATM    1  C   UNL     1      41.463 -14.352   5.098  1.00  0.00     0.024 A 
HETATM    2  C   UNL     1      40.808 -14.706   3.930  1.00  0.00     0.138 A 
HETATM    3 CL   UNL     1      39.573 -13.755   3.203  1.00  0.00    -0.061 Cl
HETATM    4  N   UNL     1      41.065 -15.838   3.230  1.00  0.00    -0.235 NA
HETATM    5  C   UNL     1      42.014 -16.671   3.693  1.00  0.00     0.071 A 
HETATM    6  C   UNL     1      42.738 -16.398   4.876  1.00  0.00    -0.004 A 
HETATM    7  C   UNL     1      42.446 -15.221   5.573  1.00  0.00     0.030 A 
HETATM    8  C   UNL     1      42.309 -17.836   2.998  1.00  0.00     0.072 A 
HETATM    9  C   UNL     1      43.293 -18.718   3.445  1.00  0.00     0.104 A 
HETATM   10  C   UNL     1      43.983 -18.457   4.627  1.00  0.00     0.103 A 
HETATM   11  O   UNL     1      44.938 -19.290   5.147  1.00  0.00    -0.346 OA
HETATM   12  C   UNL     1      44.886 -20.587   4.539  1.00  0.00     0.202 C 
HETATM   13  C   UNL     1      44.758 -20.467   3.029  1.00  0.00     0.202 C 
HETATM   14  O   UNL     1      43.523 -19.830   2.675  1.00  0.00    -0.346 OA
HETATM   15  C   UNL     1      43.719 -17.291   5.336  1.00  0.00     0.053 A 
ENDROOT
BRANCH   1  16
HETATM   16  C   UNL     1      41.164 -13.112   5.839  1.00  0.00     0.154 C 
HETATM   17  N   UNL     1      42.129 -12.373   6.291  1.00  0.00    -0.172 NA
BRANCH  17  18
HETATM   18  N   UNL     1      41.749 -11.251   6.959  1.00  0.00    -0.108 N 
HETATM   19  H   UNL     1      41.169 -10.539   6.518  1.00  0.00     0.208 HD
BRANCH  18  20
HETATM   20  C   UNL     1      42.119 -11.002   8.232  1.00  0.00     0.721 A 
HETATM   21  N   UNL     1      43.297 -10.667   8.701  1.00  0.00    -0.061 NA
HETATM   22  C   UNL     1      43.118 -10.537  10.061  1.00  0.00     0.103 A 
HETATM   23  C   UNL     1      41.800 -10.800  10.422  1.00  0.00     0.078 A 
HETATM   24  C   UNL     1      44.041 -10.196  11.061  1.00  0.00     0.034 A 
HETATM   25  C   UNL     1      41.331 -10.744  11.735  1.00  0.00     0.032 A 
HETATM   26  N   UNL     1      41.190 -11.093   9.234  1.00  0.00    -0.186 N 
HETATM   27  C   UNL     1      42.267 -10.402  12.718  1.00  0.00     0.002 A 
HETATM   28  C   UNL     1      43.599 -10.132  12.390  1.00  0.00     0.002 A 
HETATM   29  H   UNL     1      40.227 -11.338   9.071  1.00  0.00     0.184 HD
ENDBRANCH  18  20
ENDBRANCH  17  18
ENDBRANCH   1  16
TORSDOF 3
ENDMDL
MODEL 3
REMARK VINA RESULT:      -8.7      5.127      7.608
REMARK  3 active torsions:
REMARK  status: ('A' for Active; 'I' for Inactive)
REMARK    1  A    between atoms: C_6  and  N_7 
REMARK    2  A    between atoms: N_7  and  N_8 
REMARK    3  A    between atoms: C_9  and  C_10 
ROOT
HETATM    1  C   UNL     1      42.605 -15.457   3.112  1.00  0.00     0.024 A 
HETATM    2  C   UNL     1      43.127 -15.571   4.390  1.00  0.00     0.138 A 
HETATM    3 CL   UNL     1      43.160 -14.278   5.525  1.00  0.00    -0.061 Cl
HETATM    4  N   UNL     1      43.669 -16.708   4.889  1.00  0.00    -0.235 NA
HETATM    5  C   UNL     1      43.704 -17.796   4.100  1.00  0.00     0.071 A 
HETATM    6  C   UNL     1      43.197 -17.781   2.781  1.00  0.00    -0.004 A 
HETATM    7  C   UNL     1      42.645 -16.590   2.298  1.00  0.00     0.030 A 
HETATM    8  C   UNL     1      44.246 -18.981   4.581  1.00  0.00     0.072 A 
HETATM    9  C   UNL     1      44.290 -20.131   3.792  1.00  0.00     0.104 A 
HETATM   10  C   UNL     1      43.814 -20.101   2.483  1.00  0.00     0.103 A 
HETATM   11  O   UNL     1      43.853 -21.179   1.638  1.00  0.00    -0.346 OA
HETATM   12  C   UNL     1      44.737 -22.195   2.128  1.00  0.00     0.202 C 
HETATM   13  C   UNL     1      44.509 -22.432   3.612  1.00  0.00     0.202 C 
HETATM   14  O   UNL     1      44.826 -21.255   4.368  1.00  0.00    -0.346 OA
HETATM   15  C   UNL     1      43.253 -18.933   1.981  1.00  0.00     0.053 A 
ENDROOT
BRANCH   1  16
HETATM   16  C   UNL     1      42.018 -14.207   2.595  1.00  0.00     0.154 C 
HETATM   17  N   UNL     1      42.785 -13.260   2.152  1.00  0.00    -0.172 NA
BRANCH  17  18
HETATM   18  N   UNL     1      42.147 -12.148   1.697  1.00  0.00    -0.108 N 
HETATM   19  H   UNL     1      41.575 -11.572   2.313  1.00  0.00     0.208 HD
BRANCH  18  20
HETATM   20  C   UNL     1      42.218 -11.744   0.412  1.00  0.00     0.721 A 
HETATM   21  N   UNL     1      42.834 -10.704  -0.096  1.00  0.00    -0.061 NA
HETATM   22  C   UNL     1      42.583 -10.763  -1.450  1.00  0.00     0.103 A 
HETATM   23  C   UNL     1      41.796 -11.866  -1.766  1.00  0.00     0.078 A 
HETATM   24  C   UNL     1      42.994  -9.904  -2.479  1.00  0.00     0.034 A 
HETATM   25  C   UNL     1      41.385 -12.177  -3.063  1.00  0.00     0.032 A 
HETATM   26  N   UNL     1      41.581 -12.470  -0.559  1.00  0.00    -0.186 N 
HETATM   27  C   UNL     1      41.806 -11.307  -4.076  1.00  0.00     0.002 A 
HETATM   28  C   UNL     1      42.597 -10.190  -3.792  1.00  0.00     0.002 A 
HETATM   29  H   UNL     1      41.053 -13.305  -0.364  1.00  0.00     0.184 HD
ENDBRANCH  18  20
ENDBRANCH  17  18
ENDBRANCH   1  16
TORSDOF 3
ENDMDL
MODEL 4
REMARK VINA RESULT:      -8.7      1.789      2.622
REMARK  3 active torsions:
REMARK  status: ('A' for Active; 'I' for Inactive)
REMARK    1  A    between atoms: C_6  and  N_7 
REMARK    2  A    between atoms: N_7  and  N_8 
REMARK    3  A    between atoms: C_9  and  C_10 
ROOT
HETATM    1  C   UNL     1      42.356 -15.574   3.740  1.00  0.00     0.024 A 
HETATM    2  C   UNL     1      41.857 -15.819   2.471  1.00  0.00     0.138 A 
HETATM    3 CL   UNL     1      40.958 -14.668   1.562  1.00  0.00    -0.061 Cl
HETATM    4  N   UNL     1      42.020 -16.988   1.805  1.00  0.00    -0.235 NA
HETATM    5  C   UNL     1      42.709 -17.973   2.408  1.00  0.00     0.071 A 
HETATM    6  C   UNL     1      43.257 -17.821   3.701  1.00  0.00    -0.004 A 
HETATM    7  C   UNL     1      43.069 -16.601   4.359  1.00  0.00     0.030 A 
HETATM    8  C   UNL     1      42.901 -19.182   1.752  1.00  0.00     0.072 A 
HETATM    9  C   UNL     1      43.617 -20.222   2.344  1.00  0.00     0.104 A 
HETATM   10  C   UNL     1      44.131 -20.075   3.631  1.00  0.00     0.103 A 
HETATM   11  O   UNL     1      44.816 -21.061   4.291  1.00  0.00    -0.346 OA
HETATM   12  C   UNL     1      44.633 -22.335   3.660  1.00  0.00     0.202 C 
HETATM   13  C   UNL     1      44.790 -22.214   2.153  1.00  0.00     0.202 C 
HETATM   14  O   UNL     1      43.770 -21.368   1.605  1.00  0.00    -0.346 OA
HETATM   15  C   UNL     1      43.966 -18.871   4.305  1.00  0.00     0.053 A 
ENDROOT
BRANCH   1  16
HETATM   16  C   UNL     1      42.166 -14.290   4.441  1.00  0.00     0.154 C 
HETATM   17  N   UNL     1      42.690 -14.101   5.611  1.00  0.00    -0.172 NA
BRANCH  17  18
HETATM   18  N   UNL     1      42.458 -12.884   6.172  1.00  0.00    -0.108 N 
HETATM   19  H   UNL     1      41.784 -12.233   5.772  1.00  0.00     0.208 HD
BRANCH  18  20
HETATM   20  C   UNL     1      43.103 -12.458   7.277  1.00  0.00     0.721 A 
HETATM   21  N   UNL     1      44.276 -12.818   7.742  1.00  0.00    -0.061 NA
HETATM   22  C   UNL     1      44.449 -12.079   8.892  1.00  0.00     0.103 A 
HETATM   23  C   UNL     1      43.355 -11.252   9.126  1.00  0.00     0.078 A 
HETATM   24  C   UNL     1      45.521 -12.060   9.795  1.00  0.00     0.034 A 
HETATM   25  C   UNL     1      43.257 -10.391  10.220  1.00  0.00     0.032 A 
HETATM   26  N   UNL     1      42.516 -11.517   8.080  1.00  0.00    -0.186 N 
HETATM   27  C   UNL     1      44.337 -10.386  11.110  1.00  0.00     0.002 A 
HETATM   28  C   UNL     1      45.451 -11.205  10.903  1.00  0.00     0.002 A 
HETATM   29  H   UNL     1      41.612 -11.117   7.888  1.00  0.00     0.184 HD
ENDBRANCH  18  20
ENDBRANCH  17  18
ENDBRANCH   1  16
TORSDOF 3
ENDMDL
MODEL 5
REMARK VINA RESULT:      -8.6      2.009      2.959
REMARK  3 active torsions:
REMARK  status: ('A' for Active; 'I' for Inactive)
REMARK    1  A    between atoms: C_6  and  N_7 
REMARK    2  A    between atoms: N_7  and  N_8 
REMARK    3  A    between atoms: C_9  and  C_10 
ROOT
HETATM    1  C   UNL     1      42.860 -15.594   4.914  1.00  0.00     0.024 A 
HETATM    2  C   UNL     1      43.703 -16.000   5.935  1.00  0.00     0.138 A 
HETATM    3 CL   UNL     1      44.102 -15.018   7.290  1.00  0.00    -0.061 Cl
HETATM    4  N   UNL     1      44.308 -17.212   5.982  1.00  0.00    -0.235 NA
HETATM    5  C   UNL     1      44.077 -18.078   4.980  1.00  0.00     0.071 A 
HETATM    6  C   UNL     1      43.233 -17.757   3.893  1.00  0.00    -0.004 A 
HETATM    7  C   UNL     1      42.626 -16.498   3.876  1.00  0.00     0.030 A 
HETATM    8  C   UNL     1      44.675 -19.331   4.999  1.00  0.00     0.072 A 
HETATM    9  C   UNL     1      44.451 -20.257   3.979  1.00  0.00     0.104 A 
HETATM   10  C   UNL     1      43.639 -19.924   2.896  1.00  0.00     0.103 A 
HETATM   11  O   UNL     1      43.398 -20.766   1.843  1.00  0.00    -0.346 OA
HETATM   12  C   UNL     1      44.335 -21.850   1.817  1.00  0.00     0.202 C 
HETATM   13  C   UNL     1      44.507 -22.442   3.206  1.00  0.00     0.202 C 
HETATM   14  O   UNL     1      45.070 -21.475   4.102  1.00  0.00    -0.346 OA
HETATM   15  C   UNL     1      43.017 -18.681   2.858  1.00  0.00     0.053 A 
ENDROOT
BRANCH   1  16
HETATM   16  C   UNL     1      42.213 -14.269   4.890  1.00  0.00     0.154 C 
HETATM   17  N   UNL     1      41.108 -14.070   5.537  1.00  0.00    -0.172 NA
BRANCH  17  18
HETATM   18  N   UNL     1      40.592 -12.814   5.452  1.00  0.00    -0.108 N 
HETATM   19  H   UNL     1      40.326 -12.407   4.556  1.00  0.00     0.208 HD
BRANCH  18  20
HETATM   20  C   UNL     1      40.410 -12.028   6.532  1.00  0.00     0.721 A 
HETATM   21  N   UNL     1      39.290 -11.647   7.099  1.00  0.00    -0.061 NA
HETATM   22  C   UNL     1      39.675 -10.856   8.160  1.00  0.00     0.103 A 
HETATM   23  C   UNL     1      41.061 -10.758   8.235  1.00  0.00     0.078 A 
HETATM   24  C   UNL     1      38.894 -10.182   9.109  1.00  0.00     0.034 A 
HETATM   25  C   UNL     1      41.733 -10.020   9.211  1.00  0.00     0.032 A 
HETATM   26  N   UNL     1      41.498 -11.515   7.185  1.00  0.00    -0.186 N 
HETATM   27  C   UNL     1      40.935  -9.355  10.149  1.00  0.00     0.002 A 
HETATM   28  C   UNL     1      39.540  -9.433  10.102  1.00  0.00     0.002 A 
HETATM   29  H   UNL     1      42.447 -11.697   6.898  1.00  0.00     0.184 HD
ENDBRANCH  18  20
ENDBRANCH  17  18
ENDBRANCH   1  16
TORSDOF 3
ENDMDL
MODEL 6
REMARK VINA RESULT:      -8.4      5.684      8.442
REMARK  3 active torsions:
REMARK  status: ('A' for Active; 'I' for Inactive)
REMARK    1  A    between atoms: C_6  and  N_7 
REMARK    2  A    between atoms: N_7  and  N_8 
REMARK    3  A    between atoms: C_9  and  C_10 
ROOT
HETATM    1  C   UNL     1      42.214 -16.555   1.672  1.00  0.00     0.024 A 
HETATM    2  C   UNL     1      42.782 -16.080   2.842  1.00  0.00     0.138 A 
HETATM    3 CL   UNL     1      42.697 -14.437   3.346  1.00  0.00    -0.061 Cl
HETATM    4  N   UNL     1      43.467 -16.852   3.720  1.00  0.00    -0.235 NA
HETATM    5  C   UNL     1      43.605 -18.161   3.444  1.00  0.00     0.071 A 
HETATM    6  C   UNL     1      43.063 -18.740   2.275  1.00  0.00    -0.004 A 
HETATM    7  C   UNL     1      42.363 -17.913   1.390  1.00  0.00     0.030 A 
HETATM    8  C   UNL     1      44.295 -18.983   4.324  1.00  0.00     0.072 A 
HETATM    9  C   UNL     1      44.450 -20.347   4.072  1.00  0.00     0.104 A 
HETATM   10  C   UNL     1      43.936 -20.907   2.904  1.00  0.00     0.103 A 
HETATM   11  O   UNL     1      44.076 -22.228   2.572  1.00  0.00    -0.346 OA
HETATM   12  C   UNL     1      45.086 -22.862   3.367  1.00  0.00     0.202 C 
HETATM   13  C   UNL     1      44.930 -22.485   4.831  1.00  0.00     0.202 C 
HETATM   14  O   UNL     1      45.129 -21.077   5.016  1.00  0.00    -0.346 OA
HETATM   15  C   UNL     1      43.229 -20.109   2.012  1.00  0.00     0.053 A 
ENDROOT
BRANCH   1  16
HETATM   16  C   UNL     1      41.472 -15.691   0.734  1.00  0.00     0.154 C 
HETATM   17  N   UNL     1      41.419 -15.989  -0.526  1.00  0.00    -0.172 NA
BRANCH  17  18
HETATM   18  N   UNL     1      40.709 -15.131  -1.306  1.00  0.00    -0.108 N 
HETATM   19  H   UNL     1      39.768 -15.356  -1.627  1.00  0.00     0.208 HD
BRANCH  18  20
HETATM   20  C   UNL     1      41.200 -13.942  -1.712  1.00  0.00     0.721 A 
HETATM   21  N   UNL     1      41.690 -12.960  -0.994  1.00  0.00    -0.061 NA
HETATM   22  C   UNL     1      42.042 -11.989  -1.906  1.00  0.00     0.103 A 
HETATM   23  C   UNL     1      41.759 -12.395  -3.207  1.00  0.00     0.078 A 
HETATM   24  C   UNL     1      42.613 -10.725  -1.699  1.00  0.00     0.034 A 
HETATM   25  C   UNL     1      42.011 -11.613  -4.334  1.00  0.00     0.032 A 
HETATM   26  N   UNL     1      41.223 -13.643  -3.048  1.00  0.00    -0.186 N 
HETATM   27  C   UNL     1      42.580 -10.355  -4.106  1.00  0.00     0.002 A 
HETATM   28  C   UNL     1      42.878  -9.916  -2.812  1.00  0.00     0.002 A 
HETATM   29  H   UNL     1      40.889 -14.274  -3.759  1.00  0.00     0.184 HD
ENDBRANCH  18  20
ENDBRANCH  17  18
ENDBRANCH   1  16
TORSDOF 3
ENDMDL
MODEL 7
REMARK VINA RESULT:      -8.3      5.748      7.920
REMARK  3 active torsions:
REMARK  status: ('A' for Active; 'I' for Inactive)
REMARK    1  A    between atoms: C_6  and  N_7 
REMARK    2  A    between atoms: N_7  and  N_8 
REMARK    3  A    between atoms: C_9  and  C_10 
ROOT
HETATM    1  C   UNL     1      42.664 -16.437   1.449  1.00  0.00     0.024 A 
HETATM    2  C   UNL     1      43.158 -15.986   2.661  1.00  0.00     0.138 A 
HETATM    3 CL   UNL     1      43.129 -14.336   3.149  1.00  0.00    -0.061 Cl
HETATM    4  N   UNL     1      43.718 -16.790   3.598  1.00  0.00    -0.235 NA
HETATM    5  C   UNL     1      43.801 -18.107   3.340  1.00  0.00     0.071 A 
HETATM    6  C   UNL     1      43.325 -18.664   2.131  1.00  0.00    -0.004 A 
HETATM    7  C   UNL     1      42.753 -17.805   1.187  1.00  0.00     0.030 A 
HETATM    8  C   UNL     1      44.363 -18.960   4.279  1.00  0.00     0.072 A 
HETATM    9  C   UNL     1      44.457 -20.333   4.047  1.00  0.00     0.104 A 
HETATM   10  C   UNL     1      44.011 -20.872   2.842  1.00  0.00     0.103 A 
HETATM   11  O   UNL     1      44.099 -22.203   2.528  1.00  0.00    -0.346 OA
HETATM   12  C   UNL     1      44.998 -22.888   3.409  1.00  0.00     0.202 C 
HETATM   13  C   UNL     1      44.742 -22.489   4.853  1.00  0.00     0.202 C 
HETATM   14  O   UNL     1      45.008 -21.093   5.048  1.00  0.00    -0.346 OA
HETATM   15  C   UNL     1      43.431 -20.042   1.889  1.00  0.00     0.053 A 
ENDROOT
BRANCH   1  16
HETATM   16  C   UNL     1      42.056 -15.540   0.449  1.00  0.00     0.154 C 
HETATM   17  N   UNL     1      41.191 -15.999  -0.400  1.00  0.00    -0.172 NA
BRANCH  17  18
HETATM   18  N   UNL     1      40.689 -15.091  -1.280  1.00  0.00    -0.108 N 
HETATM   19  H   UNL     1      41.075 -14.989  -2.218  1.00  0.00     0.208 HD
BRANCH  18  20
HETATM   20  C   UNL     1      39.666 -14.268  -0.972  1.00  0.00     0.721 A 
HETATM   21  N   UNL     1      39.045 -14.113   0.173  1.00  0.00    -0.061 NA
HETATM   22  C   UNL     1      38.085 -13.153  -0.067  1.00  0.00     0.103 A 
HETATM   23  C   UNL     1      38.128 -12.719  -1.388  1.00  0.00     0.078 A 
HETATM   24  C   UNL     1      37.132 -12.599   0.800  1.00  0.00     0.034 A 
HETATM   25  C   UNL     1      37.271 -11.751  -1.913  1.00  0.00     0.032 A 
HETATM   26  N   UNL     1      39.145 -13.448  -1.937  1.00  0.00    -0.186 N 
HETATM   27  C   UNL     1      36.328 -11.209  -1.032  1.00  0.00     0.002 A 
HETATM   28  C   UNL     1      36.257 -11.624   0.301  1.00  0.00     0.002 A 
HETATM   29  H   UNL     1      39.492 -13.424  -2.883  1.00  0.00     0.184 HD
ENDBRANCH  18  20
ENDBRANCH  17  18
ENDBRANCH   1  16
TORSDOF 3
ENDMDL
MODEL 8
REMARK VINA RESULT:      -8.3      5.775      8.838
REMARK  3 active torsions:
REMARK  status: ('A' for Active; 'I' for Inactive)
REMARK    1  A    between atoms: C_6  and  N_7 
REMARK    2  A    between atoms: N_7  and  N_8 
REMARK    3  A    between atoms: C_9  and  C_10 
ROOT
HETATM    1  C   UNL     1      42.095 -15.294   2.261  1.00  0.00     0.024 A 
HETATM    2  C   UNL     1      42.839 -15.149   3.420  1.00  0.00     0.138 A 
HETATM    3 CL   UNL     1      42.988 -13.666   4.279  1.00  0.00    -0.061 Cl
HETATM    4  N   UNL     1      43.531 -16.156   4.007  1.00  0.00    -0.235 NA
HETATM    5  C   UNL     1      43.496 -17.371   3.433  1.00  0.00     0.071 A 
HETATM    6  C   UNL     1      42.766 -17.620   2.249  1.00  0.00    -0.004 A 
HETATM    7  C   UNL     1      42.064 -16.558   1.670  1.00  0.00     0.030 A 
HETATM    8  C   UNL     1      44.188 -18.428   4.011  1.00  0.00     0.072 A 
HETATM    9  C   UNL     1      44.167 -19.704   3.446  1.00  0.00     0.104 A 
HETATM   10  C   UNL     1      43.467 -19.935   2.263  1.00  0.00     0.103 A 
HETATM   11  O   UNL     1      43.426 -21.150   1.633  1.00  0.00    -0.346 OA
HETATM   12  C   UNL     1      44.445 -22.029   2.126  1.00  0.00     0.202 C 
HETATM   13  C   UNL     1      44.496 -21.990   3.645  1.00  0.00     0.202 C 
HETATM   14  O   UNL     1      44.865 -20.683   4.106  1.00  0.00    -0.346 OA
HETATM   15  C   UNL     1      42.754 -18.899   1.671  1.00  0.00     0.053 A 
ENDROOT
BRANCH   1  16
HETATM   16  C   UNL     1      41.348 -14.181   1.645  1.00  0.00     0.154 C 
HETATM   17  N   UNL     1      41.138 -14.165   0.366  1.00  0.00    -0.172 NA
BRANCH  17  18
HETATM   18  N   UNL     1      40.439 -13.096  -0.104  1.00  0.00    -0.108 N 
HETATM   19  H   UNL     1      40.583 -12.159   0.271  1.00  0.00     0.208 HD
BRANCH  18  20
HETATM   20  C   UNL     1      39.512 -13.204  -1.077  1.00  0.00     0.721 A 
HETATM   21  N   UNL     1      38.788 -12.265  -1.639  1.00  0.00    -0.061 NA
HETATM   22  C   UNL     1      38.007 -12.921  -2.565  1.00  0.00     0.103 A 
HETATM   23  C   UNL     1      38.265 -14.288  -2.563  1.00  0.00     0.078 A 
HETATM   24  C   UNL     1      37.046 -12.413  -3.451  1.00  0.00     0.034 A 
HETATM   25  C   UNL     1      37.619 -15.199  -3.400  1.00  0.00     0.032 A 
HETATM   26  N   UNL     1      39.228 -14.435  -1.604  1.00  0.00    -0.186 N 
HETATM   27  C   UNL     1      36.663 -14.672  -4.276  1.00  0.00     0.002 A 
HETATM   28  C   UNL     1      36.380 -13.304  -4.304  1.00  0.00     0.002 A 
HETATM   29  H   UNL     1      39.683 -15.281  -1.301  1.00  0.00     0.184 HD
ENDBRANCH  18  20
ENDBRANCH  17  18
ENDBRANCH   1  16
TORSDOF 3
ENDMDL
MODEL 9
REMARK VINA RESULT:      -8.0      4.734      7.201
REMARK  3 active torsions:
REMARK  status: ('A' for Active; 'I' for Inactive)
REMARK    1  A    between atoms: C_6  and  N_7 
REMARK    2  A    between atoms: N_7  and  N_8 
REMARK    3  A    between atoms: C_9  and  C_10 
ROOT
HETATM    1  C   UNL     1      42.721 -15.460   3.520  1.00  0.00     0.024 A 
HETATM    2  C   UNL     1      43.245 -15.653   4.787  1.00  0.00     0.138 A 
HETATM    3 CL   UNL     1      43.292 -14.431   5.996  1.00  0.00    -0.061 Cl
HETATM    4  N   UNL     1      43.779 -16.823   5.216  1.00  0.00    -0.235 NA
HETATM    5  C   UNL     1      43.802 -17.863   4.364  1.00  0.00     0.071 A 
HETATM    6  C   UNL     1      43.292 -17.765   3.050  1.00  0.00    -0.004 A 
HETATM    7  C   UNL     1      42.749 -16.544   2.640  1.00  0.00     0.030 A 
HETATM    8  C   UNL     1      44.336 -19.078   4.772  1.00  0.00     0.072 A 
HETATM    9  C   UNL     1      44.369 -20.180   3.917  1.00  0.00     0.104 A 
HETATM   10  C   UNL     1      43.889 -20.069   2.613  1.00  0.00     0.103 A 
HETATM   11  O   UNL     1      43.917 -21.095   1.706  1.00  0.00    -0.346 OA
HETATM   12  C   UNL     1      44.794 -22.145   2.133  1.00  0.00     0.202 C 
HETATM   13  C   UNL     1      44.568 -22.468   3.601  1.00  0.00     0.202 C 
HETATM   14  O   UNL     1      44.896 -21.341   4.424  1.00  0.00    -0.346 OA
HETATM   15  C   UNL     1      43.336 -18.868   2.182  1.00  0.00     0.053 A 
ENDROOT
BRANCH   1  16
HETATM   16  C   UNL     1      42.143 -14.176   3.079  1.00  0.00     0.154 C 
HETATM   17  N   UNL     1      42.892 -13.284   2.511  1.00  0.00    -0.172 NA
BRANCH  17  18
HETATM   18  N   UNL     1      42.265 -12.135   2.141  1.00  0.00    -0.108 N 
HETATM   19  H   UNL     1      42.362 -11.277   2.682  1.00  0.00     0.208 HD
BRANCH  18  20
HETATM   20  C   UNL     1      41.471 -12.058   1.053  1.00  0.00     0.721 A 
HETATM   21  N   UNL     1      40.248 -11.595   0.952  1.00  0.00    -0.061 NA
HETATM   22  C   UNL     1      39.913 -11.754  -0.376  1.00  0.00     0.103 A 
HETATM   23  C   UNL     1      40.960 -12.325  -1.093  1.00  0.00     0.078 A 
HETATM   24  C   UNL     1      38.726 -11.431  -1.048  1.00  0.00     0.034 A 
HETATM   25  C   UNL     1      40.901 -12.602  -2.459  1.00  0.00     0.032 A 
HETATM   26  N   UNL     1      41.936 -12.506  -0.154  1.00  0.00    -0.186 N 
HETATM   27  C   UNL     1      39.707 -12.273  -3.112  1.00  0.00     0.002 A 
HETATM   28  C   UNL     1      38.637 -11.698  -2.421  1.00  0.00     0.002 A 
HETATM   29  H   UNL     1      42.856 -12.898  -0.278  1.00  0.00     0.184 HD
ENDBRANCH  18  20
ENDBRANCH  17  18
ENDBRANCH   1  16
TORSDOF 3
ENDMDL
MODEL 10
REMARK VINA RESULT:      -8.0      4.372      6.135
REMARK  3 active torsions:
REMARK  status: ('A' for Active; 'I' for Inactive)
REMARK    1  A    between atoms: C_6  and  N_7 
REMARK    2  A    between atoms: N_7  and  N_8 
REMARK    3  A    between atoms: C_9  and  C_10 
ROOT
HETATM    1  C   UNL     1      43.135 -15.384   4.131  1.00  0.00     0.024 A 
HETATM    2  C   UNL     1      43.635 -15.741   5.372  1.00  0.00     0.138 A 
HETATM    3 CL   UNL     1      43.769 -14.650   6.696  1.00  0.00    -0.061 Cl
HETATM    4  N   UNL     1      44.073 -16.985   5.684  1.00  0.00    -0.235 NA
HETATM    5  C   UNL     1      44.020 -17.935   4.735  1.00  0.00     0.071 A 
HETATM    6  C   UNL     1      43.527 -17.670   3.437  1.00  0.00    -0.004 A 
HETATM    7  C   UNL     1      43.084 -16.375   3.150  1.00  0.00     0.030 A 
HETATM    8  C   UNL     1      44.455 -19.222   5.021  1.00  0.00     0.072 A 
HETATM    9  C   UNL     1      44.407 -20.234   4.061  1.00  0.00     0.104 A 
HETATM   10  C   UNL     1      43.945 -19.959   2.776  1.00  0.00     0.103 A 
HETATM   11  O   UNL     1      43.898 -20.890   1.772  1.00  0.00    -0.346 OA
HETATM   12  C   UNL     1      44.687 -22.043   2.093  1.00  0.00     0.202 C 
HETATM   13  C   UNL     1      44.428 -22.489   3.522  1.00  0.00     0.202 C 
HETATM   14  O   UNL     1      44.839 -21.477   4.451  1.00  0.00    -0.346 OA
HETATM   15  C   UNL     1      43.490 -18.683   2.466  1.00  0.00     0.053 A 
ENDROOT
BRANCH   1  16
HETATM   16  C   UNL     1      42.662 -14.022   3.820  1.00  0.00     0.154 C 
HETATM   17  N   UNL     1      42.579 -13.625   2.589  1.00  0.00    -0.172 NA
BRANCH  17  18
HETATM   18  N   UNL     1      42.131 -12.354   2.408  1.00  0.00    -0.108 N 
HETATM   19  H   UNL     1      42.754 -11.552   2.493  1.00  0.00     0.208 HD
BRANCH  18  20
HETATM   20  C   UNL     1      40.845 -12.070   2.117  1.00  0.00     0.721 A 
HETATM   21  N   UNL     1      40.099 -11.080   2.545  1.00  0.00    -0.061 NA
HETATM   22  C   UNL     1      38.874 -11.266   1.941  1.00  0.00     0.103 A 
HETATM   23  C   UNL     1      38.882 -12.396   1.128  1.00  0.00     0.078 A 
HETATM   24  C   UNL     1      37.699 -10.508   2.039  1.00  0.00     0.034 A 
HETATM   25  C   UNL     1      37.778 -12.827   0.392  1.00  0.00     0.032 A 
HETATM   26  N   UNL     1      40.152 -12.884   1.262  1.00  0.00    -0.186 N 
HETATM   27  C   UNL     1      36.614 -12.058   0.504  1.00  0.00     0.002 A 
HETATM   28  C   UNL     1      36.573 -10.917   1.312  1.00  0.00     0.002 A 
HETATM   29  H   UNL     1      40.556 -13.698   0.829  1.00  0.00     0.184 HD
ENDBRANCH  18  20
ENDBRANCH  17  18
ENDBRANCH   1  16
TORSDOF 3
ENDMDL
