MODEL 1
REMARK VINA RESULT:      -8.8      0.000      0.000
REMARK  5 active torsions:
REMARK  status: ('A' for Active; 'I' for Inactive)
REMARK    1  A    between atoms: C_7  and  C_8 
REMARK    2  A    between atoms: N_9  and  N_10 
REMARK       I    between atoms: N_10  and  C_11 
REMARK    3  A    between atoms: C_11  and  C_12 
REMARK    4  A    between atoms: C_12  and  N_13 
REMARK       I    between atoms: N_13  and  C_14 
REMARK    5  A    between atoms: C_14  and  C_15 
ROOT
HETATM    1  N   UNL     1      42.847 -14.243   6.596  1.00  0.00    -0.246 N 
HETATM    2  C   UNL     1      42.478 -13.268   5.681  1.00  0.00     0.255 C 
HETATM    3  O   UNL     1      42.673 -13.313   4.467  1.00  0.00    -0.270 OA
HETATM    4  H   UNL     1      42.622 -14.106   7.585  1.00  0.00     0.192 HD
ENDROOT
BRANCH   1   5
HETATM    5  N   UNL     1      43.507 -15.361   6.183  1.00  0.00    -0.184 NA
HETATM    6  C   UNL     1      42.807 -16.449   6.165  1.00  0.00     0.153 C 
BRANCH   6   7
HETATM    7  C   UNL     1      43.418 -17.703   5.760  1.00  0.00     0.018 A 
HETATM    8  C   UNL     1      44.030 -18.639   6.586  1.00  0.00     0.018 A 
HETATM    9  C   UNL     1      44.248 -18.653   8.058  1.00  0.00     0.069 C 
HETATM   10  N   UNL     1      44.461 -19.675   5.796  1.00  0.00    -0.358 N 
HETATM   11  H   UNL     1      44.939 -20.500   6.133  1.00  0.00     0.166 HD
HETATM   12  C   UNL     1      44.147 -19.447   4.479  1.00  0.00     0.043 A 
HETATM   13  C   UNL     1      43.494 -18.215   4.421  1.00  0.00     0.004 A 
HETATM   14  C   UNL     1      44.388 -20.235   3.347  1.00  0.00     0.030 A 
HETATM   15  C   UNL     1      43.061 -17.749   3.160  1.00  0.00     0.014 A 
HETATM   16  C   UNL     1      43.294 -18.526   2.017  1.00  0.00     0.001 A 
HETATM   17  C   UNL     1      43.948 -19.750   2.113  1.00  0.00     0.002 A 
ENDBRANCH   6   7
ENDBRANCH   1   5
BRANCH   2  18
HETATM   18  C   UNL     1      41.863 -12.035   6.345  1.00  0.00     0.227 C 
BRANCH  18  19
HETATM   19  N   UNL     1      42.353 -11.790   7.692  1.00  0.00    -0.348 N 
HETATM   20  C   UNL     1      42.403 -10.537   8.246  1.00  0.00     0.253 C 
HETATM   21  O   UNL     1      42.125  -9.539   7.583  1.00  0.00    -0.268 OA
HETATM   22  H   UNL     1      42.695 -12.589   8.215  1.00  0.00     0.163 HD
BRANCH  20  23
HETATM   23  C   UNL     1      42.788 -10.405   9.685  1.00  0.00     0.053 A 
HETATM   24  C   UNL     1      44.048 -10.693  10.233  1.00  0.00     0.049 A 
HETATM   25 CL   UNL     1      45.418 -11.200   9.307  1.00  0.00    -0.083 Cl
HETATM   26  C   UNL     1      44.265 -10.549  11.612  1.00  0.00     0.025 A 
HETATM   27  C   UNL     1      43.240 -10.114  12.452  1.00  0.00     0.002 A 
HETATM   28  C   UNL     1      41.993  -9.812  11.919  1.00  0.00     0.001 A 
HETATM   29  C   UNL     1      41.770  -9.956  10.548  1.00  0.00     0.019 A 
ENDBRANCH  20  23
ENDBRANCH  18  19
ENDBRANCH   2  18
TORSDOF 5
ENDMDL
MODEL 2
REMARK VINA RESULT:      -8.8      5.465      8.007
REMARK  5 active torsions:
REMARK  status: ('A' for Active; 'I' for Inactive)
REMARK    1  A    between atoms: C_7  and  C_8 
REMARK    2  A    between atoms: N_9  and  N_10 
REMARK       I    between atoms: N_10  and  C_11 
REMARK    3  A    between atoms: C_11  and  C_12 
REMARK    4  A    between atoms: C_12  and  N_13 
REMARK       I    between atoms: N_13  and  C_14 
REMARK    5  A    between atoms: C_14  and  C_15 
ROOT
HETATM    1  N   UNL     1      42.878 -15.139   2.417  1.00  0.00    -0.246 N 
HETATM    2  C   UNL     1      43.144 -13.861   2.885  1.00  0.00     0.255 C 
HETATM    3  O   UNL     1      44.038 -13.557   3.674  1.00  0.00    -0.270 OA
HETATM    4  H   UNL     1      42.113 -15.274   1.750  1.00  0.00     0.192 HD
ENDROOT
BRANCH   1   5
HETATM    5  N   UNL     1      43.619 -16.198   2.847  1.00  0.00    -0.184 NA
HETATM    6  C   UNL     1      42.974 -17.099   3.515  1.00  0.00     0.153 C 
BRANCH   6   7
HETATM    7  C   UNL     1      43.672 -18.260   4.037  1.00  0.00     0.018 A 
HETATM    8  C   UNL     1      44.308 -18.369   5.269  1.00  0.00     0.018 A 
HETATM    9  C   UNL     1      44.471 -17.389   6.377  1.00  0.00     0.069 C 
HETATM   10  N   UNL     1      44.828 -19.635   5.361  1.00  0.00    -0.358 N 
HETATM   11  H   UNL     1      45.342 -19.994   6.155  1.00  0.00     0.166 HD
HETATM   12  C   UNL     1      44.550 -20.359   4.228  1.00  0.00     0.043 A 
HETATM   13  C   UNL     1      43.829 -19.524   3.374  1.00  0.00     0.004 A 
HETATM   14  C   UNL     1      44.880 -21.680   3.901  1.00  0.00     0.030 A 
HETATM   15  C   UNL     1      43.416 -20.042   2.127  1.00  0.00     0.014 A 
HETATM   16  C   UNL     1      43.736 -21.363   1.785  1.00  0.00     0.001 A 
HETATM   17  C   UNL     1      44.458 -22.167   2.661  1.00  0.00     0.002 A 
ENDBRANCH   6   7
ENDBRANCH   1   5
BRANCH   2  18
HETATM   18  C   UNL     1      42.132 -12.826   2.390  1.00  0.00     0.227 C 
BRANCH  18  19
HETATM   19  N   UNL     1      41.430 -13.227   1.182  1.00  0.00    -0.348 N 
HETATM   20  C   UNL     1      41.833 -12.845  -0.072  1.00  0.00     0.253 C 
HETATM   21  O   UNL     1      42.762 -12.052  -0.224  1.00  0.00    -0.268 OA
HETATM   22  H   UNL     1      40.592 -13.787   1.294  1.00  0.00     0.163 HD
BRANCH  20  23
HETATM   23  C   UNL     1      41.130 -13.423  -1.259  1.00  0.00     0.053 A 
HETATM   24  C   UNL     1      40.939 -14.788  -1.521  1.00  0.00     0.049 A 
HETATM   25 CL   UNL     1      41.440 -16.061  -0.462  1.00  0.00    -0.083 Cl
HETATM   26  C   UNL     1      40.282 -15.194  -2.693  1.00  0.00     0.025 A 
HETATM   27  C   UNL     1      39.805 -14.252  -3.604  1.00  0.00     0.002 A 
HETATM   28  C   UNL     1      39.976 -12.897  -3.347  1.00  0.00     0.001 A 
HETATM   29  C   UNL     1      40.632 -12.486  -2.185  1.00  0.00     0.019 A 
ENDBRANCH  20  23
ENDBRANCH  18  19
ENDBRANCH   2  18
TORSDOF 5
ENDMDL
MODEL 3
REMARK VINA RESULT:      -8.7      5.773      7.621
REMARK  5 active torsions:
REMARK  status: ('A' for Active; 'I' for Inactive)
REMARK    1  A    between atoms: C_7  and  C_8 
REMARK    2  A    between atoms: N_9  and  N_10 
REMARK       I    between atoms: N_10  and  C_11 
REMARK    3  A    between atoms: C_11  and  C_12 
REMARK    4  A    between atoms: C_12  and  N_13 
REMARK       I    between atoms: N_13  and  C_14 
REMARK    5  A    between atoms: C_14  and  C_15 
ROOT
HETATM    1  N   UNL     1      41.444 -15.651   3.650  1.00  0.00    -0.246 N 
HETATM    2  C   UNL     1      40.400 -15.491   2.751  1.00  0.00     0.255 C 
HETATM    3  O   UNL     1      39.842 -16.396   2.131  1.00  0.00    -0.270 OA
HETATM    4  H   UNL     1      41.825 -14.825   4.120  1.00  0.00     0.192 HD
ENDROOT
BRANCH   1   5
HETATM    5  N   UNL     1      41.958 -16.888   3.896  1.00  0.00    -0.184 NA
HETATM    6  C   UNL     1      43.242 -16.942   4.044  1.00  0.00     0.153 C 
BRANCH   6   7
HETATM    7  C   UNL     1      43.896 -18.215   4.290  1.00  0.00     0.018 A 
HETATM    8  C   UNL     1      44.668 -18.559   5.394  1.00  0.00     0.018 A 
HETATM    9  C   UNL     1      45.054 -17.777   6.601  1.00  0.00     0.069 C 
HETATM   10  N   UNL     1      45.083 -19.856   5.227  1.00  0.00    -0.358 N 
HETATM   11  H   UNL     1      45.658 -20.368   5.881  1.00  0.00     0.166 HD
HETATM   12  C   UNL     1      44.603 -20.373   4.048  1.00  0.00     0.043 A 
HETATM   13  C   UNL     1      43.857 -19.367   3.434  1.00  0.00     0.004 A 
HETATM   14  C   UNL     1      44.772 -21.645   3.490  1.00  0.00     0.030 A 
HETATM   15  C   UNL     1      43.248 -19.654   2.192  1.00  0.00     0.014 A 
HETATM   16  C   UNL     1      43.406 -20.923   1.620  1.00  0.00     0.001 A 
HETATM   17  C   UNL     1      44.158 -21.902   2.261  1.00  0.00     0.002 A 
ENDBRANCH   6   7
ENDBRANCH   1   5
BRANCH   2  18
HETATM   18  C   UNL     1      40.044 -14.023   2.512  1.00  0.00     0.227 C 
BRANCH  18  19
HETATM   19  N   UNL     1      40.391 -13.546   1.183  1.00  0.00    -0.348 N 
HETATM   20  C   UNL     1      41.669 -13.193   0.832  1.00  0.00     0.253 C 
HETATM   21  O   UNL     1      42.571 -13.169   1.667  1.00  0.00    -0.268 OA
HETATM   22  H   UNL     1      39.637 -13.449   0.511  1.00  0.00     0.163 HD
BRANCH  20  23
HETATM   23  C   UNL     1      41.951 -12.851  -0.597  1.00  0.00     0.053 A 
HETATM   24  C   UNL     1      41.730 -13.682  -1.705  1.00  0.00     0.049 A 
HETATM   25 CL   UNL     1      41.018 -15.256  -1.612  1.00  0.00    -0.083 Cl
HETATM   26  C   UNL     1      42.067 -13.241  -2.994  1.00  0.00     0.025 A 
HETATM   27  C   UNL     1      42.617 -11.975  -3.192  1.00  0.00     0.002 A 
HETATM   28  C   UNL     1      42.827 -11.137  -2.103  1.00  0.00     0.001 A 
HETATM   29  C   UNL     1      42.496 -11.571  -0.818  1.00  0.00     0.019 A 
ENDBRANCH  20  23
ENDBRANCH  18  19
ENDBRANCH   2  18
TORSDOF 5
ENDMDL
MODEL 4
REMARK VINA RESULT:      -8.7      5.412      7.650
REMARK  5 active torsions:
REMARK  status: ('A' for Active; 'I' for Inactive)
REMARK    1  A    between atoms: C_7  and  C_8 
REMARK    2  A    between atoms: N_9  and  N_10 
REMARK       I    between atoms: N_10  and  C_11 
REMARK    3  A    between atoms: C_11  and  C_12 
REMARK    4  A    between atoms: C_12  and  N_13 
REMARK       I    between atoms: N_13  and  C_14 
REMARK    5  A    between atoms: C_14  and  C_15 
ROOT
HETATM    1  N   UNL     1      41.665 -15.634   3.078  1.00  0.00    -0.246 N 
HETATM    2  C   UNL     1      40.821 -14.830   3.829  1.00  0.00     0.255 C 
HETATM    3  O   UNL     1      40.405 -15.085   4.958  1.00  0.00    -0.270 OA
HETATM    4  H   UNL     1      41.959 -15.316   2.150  1.00  0.00     0.192 HD
ENDROOT
BRANCH   1   5
HETATM    5  N   UNL     1      42.089 -16.834   3.566  1.00  0.00    -0.184 NA
HETATM    6  C   UNL     1      43.372 -16.989   3.632  1.00  0.00     0.153 C 
BRANCH   6   7
HETATM    7  C   UNL     1      43.931 -18.238   4.119  1.00  0.00     0.018 A 
HETATM    8  C   UNL     1      44.519 -18.464   5.358  1.00  0.00     0.018 A 
HETATM    9  C   UNL     1      44.756 -17.552   6.511  1.00  0.00     0.069 C 
HETATM   10  N   UNL     1      44.902 -19.781   5.407  1.00  0.00    -0.358 N 
HETATM   11  H   UNL     1      45.354 -20.224   6.195  1.00  0.00     0.166 HD
HETATM   12  C   UNL     1      44.579 -20.425   4.237  1.00  0.00     0.043 A 
HETATM   13  C   UNL     1      43.971 -19.484   3.406  1.00  0.00     0.004 A 
HETATM   14  C   UNL     1      44.776 -21.759   3.862  1.00  0.00     0.030 A 
HETATM   15  C   UNL     1      43.538 -19.904   2.129  1.00  0.00     0.014 A 
HETATM   16  C   UNL     1      43.727 -21.236   1.737  1.00  0.00     0.001 A 
HETATM   17  C   UNL     1      44.337 -22.147   2.593  1.00  0.00     0.002 A 
ENDBRANCH   6   7
ENDBRANCH   1   5
BRANCH   2  18
HETATM   18  C   UNL     1      40.354 -13.588   3.068  1.00  0.00     0.227 C 
BRANCH  18  19
HETATM   19  N   UNL     1      40.436 -13.723   1.623  1.00  0.00    -0.348 N 
HETATM   20  C   UNL     1      41.563 -13.404   0.910  1.00  0.00     0.253 C 
HETATM   21  O   UNL     1      42.535 -12.888   1.460  1.00  0.00    -0.268 OA
HETATM   22  H   UNL     1      39.603 -14.039   1.137  1.00  0.00     0.163 HD
BRANCH  20  23
HETATM   23  C   UNL     1      41.597 -13.711  -0.553  1.00  0.00     0.053 A 
HETATM   24  C   UNL     1      42.160 -12.904  -1.554  1.00  0.00     0.049 A 
HETATM   25 CL   UNL     1      42.985 -11.414  -1.251  1.00  0.00    -0.083 Cl
HETATM   26  C   UNL     1      42.097 -13.302  -2.898  1.00  0.00     0.025 A 
HETATM   27  C   UNL     1      41.485 -14.503  -3.256  1.00  0.00     0.002 A 
HETATM   28  C   UNL     1      40.937 -15.318  -2.272  1.00  0.00     0.001 A 
HETATM   29  C   UNL     1      40.993 -14.925  -0.933  1.00  0.00     0.019 A 
ENDBRANCH  20  23
ENDBRANCH  18  19
ENDBRANCH   2  18
TORSDOF 5
ENDMDL
MODEL 5
REMARK VINA RESULT:      -8.7      2.134      2.949
REMARK  5 active torsions:
REMARK  status: ('A' for Active; 'I' for Inactive)
REMARK    1  A    between atoms: C_7  and  C_8 
REMARK    2  A    between atoms: N_9  and  N_10 
REMARK       I    between atoms: N_10  and  C_11 
REMARK    3  A    between atoms: C_11  and  C_12 
REMARK    4  A    between atoms: C_12  and  N_13 
REMARK       I    between atoms: N_13  and  C_14 
REMARK    5  A    between atoms: C_14  and  C_15 
ROOT
HETATM    1  N   UNL     1      43.908 -14.328   7.039  1.00  0.00    -0.246 N 
HETATM    2  C   UNL     1      45.079 -13.601   7.189  1.00  0.00     0.255 C 
HETATM    3  O   UNL     1      45.937 -13.435   6.322  1.00  0.00    -0.270 OA
HETATM    4  H   UNL     1      43.257 -14.390   7.826  1.00  0.00     0.192 HD
ENDROOT
BRANCH   1   5
HETATM    5  N   UNL     1      43.633 -14.956   5.861  1.00  0.00    -0.184 NA
HETATM    6  C   UNL     1      43.099 -16.130   5.964  1.00  0.00     0.153 C 
BRANCH   6   7
HETATM    7  C   UNL     1      42.785 -16.896   4.771  1.00  0.00     0.018 A 
HETATM    8  C   UNL     1      41.806 -16.608   3.827  1.00  0.00     0.018 A 
HETATM    9  C   UNL     1      40.822 -15.494   3.744  1.00  0.00     0.069 C 
HETATM   10  N   UNL     1      41.855 -17.582   2.861  1.00  0.00    -0.358 N 
HETATM   11  H   UNL     1      41.256 -17.622   2.048  1.00  0.00     0.166 HD
HETATM   12  C   UNL     1      42.839 -18.498   3.144  1.00  0.00     0.043 A 
HETATM   13  C   UNL     1      43.440 -18.098   4.339  1.00  0.00     0.004 A 
HETATM   14  C   UNL     1      43.238 -19.636   2.435  1.00  0.00     0.030 A 
HETATM   15  C   UNL     1      44.497 -18.884   4.848  1.00  0.00     0.014 A 
HETATM   16  C   UNL     1      44.910 -20.027   4.150  1.00  0.00     0.001 A 
HETATM   17  C   UNL     1      44.287 -20.395   2.961  1.00  0.00     0.002 A 
ENDBRANCH   6   7
ENDBRANCH   1   5
BRANCH   2  18
HETATM   18  C   UNL     1      45.272 -13.076   8.613  1.00  0.00     0.227 C 
BRANCH  18  19
HETATM   19  N   UNL     1      44.136 -12.322   9.117  1.00  0.00    -0.348 N 
HETATM   20  C   UNL     1      44.233 -11.015   9.521  1.00  0.00     0.253 C 
HETATM   21  O   UNL     1      45.324 -10.447   9.570  1.00  0.00    -0.268 OA
HETATM   22  H   UNL     1      43.250 -12.810   9.192  1.00  0.00     0.163 HD
BRANCH  20  23
HETATM   23  C   UNL     1      42.982 -10.283   9.890  1.00  0.00     0.053 A 
HETATM   24  C   UNL     1      42.643  -9.819  11.170  1.00  0.00     0.049 A 
HETATM   25 CL   UNL     1      43.665  -9.962  12.558  1.00  0.00    -0.083 Cl
HETATM   26  C   UNL     1      41.417  -9.169  11.380  1.00  0.00     0.025 A 
HETATM   27  C   UNL     1      40.528  -8.968  10.325  1.00  0.00     0.002 A 
HETATM   28  C   UNL     1      40.860  -9.410   9.050  1.00  0.00     0.001 A 
HETATM   29  C   UNL     1      42.076 -10.061   8.835  1.00  0.00     0.019 A 
ENDBRANCH  20  23
ENDBRANCH  18  19
ENDBRANCH   2  18
TORSDOF 5
ENDMDL
MODEL 6
REMARK VINA RESULT:      -8.6      5.531      7.799
REMARK  5 active torsions:
REMARK  status: ('A' for Active; 'I' for Inactive)
REMARK    1  A    between atoms: C_7  and  C_8 
REMARK    2  A    between atoms: N_9  and  N_10 
REMARK       I    between atoms: N_10  and  C_11 
REMARK    3  A    between atoms: C_11  and  C_12 
REMARK    4  A    between atoms: C_12  and  N_13 
REMARK       I    between atoms: N_13  and  C_14 
REMARK    5  A    between atoms: C_14  and  C_15 
ROOT
HETATM    1  N   UNL     1      42.686 -15.028   2.596  1.00  0.00    -0.246 N 
HETATM    2  C   UNL     1      43.013 -13.726   2.947  1.00  0.00     0.255 C 
HETATM    3  O   UNL     1      43.991 -13.385   3.611  1.00  0.00    -0.270 OA
HETATM    4  H   UNL     1      41.852 -15.195   2.028  1.00  0.00     0.192 HD
ENDROOT
BRANCH   1   5
HETATM    5  N   UNL     1      43.463 -16.068   3.011  1.00  0.00    -0.184 NA
HETATM    6  C   UNL     1      42.828 -17.060   3.546  1.00  0.00     0.153 C 
BRANCH   6   7
HETATM    7  C   UNL     1      43.561 -18.212   4.041  1.00  0.00     0.018 A 
HETATM    8  C   UNL     1      44.216 -18.325   5.263  1.00  0.00     0.018 A 
HETATM    9  C   UNL     1      44.371 -17.357   6.384  1.00  0.00     0.069 C 
HETATM   10  N   UNL     1      44.768 -19.580   5.329  1.00  0.00    -0.358 N 
HETATM   11  H   UNL     1      45.300 -19.938   6.110  1.00  0.00     0.166 HD
HETATM   12  C   UNL     1      44.491 -20.293   4.188  1.00  0.00     0.043 A 
HETATM   13  C   UNL     1      43.739 -19.462   3.357  1.00  0.00     0.004 A 
HETATM   14  C   UNL     1      44.847 -21.600   3.837  1.00  0.00     0.030 A 
HETATM   15  C   UNL     1      43.321 -19.972   2.108  1.00  0.00     0.014 A 
HETATM   16  C   UNL     1      43.668 -21.279   1.741  1.00  0.00     0.001 A 
HETATM   17  C   UNL     1      44.420 -22.078   2.596  1.00  0.00     0.002 A 
ENDBRANCH   6   7
ENDBRANCH   1   5
BRANCH   2  18
HETATM   18  C   UNL     1      41.960 -12.711   2.498  1.00  0.00     0.227 C 
BRANCH  18  19
HETATM   19  N   UNL     1      42.247 -12.101   1.210  1.00  0.00    -0.348 N 
HETATM   20  C   UNL     1      41.977 -12.724   0.018  1.00  0.00     0.253 C 
HETATM   21  O   UNL     1      41.567 -13.884  -0.012  1.00  0.00    -0.268 OA
HETATM   22  H   UNL     1      42.692 -11.190   1.214  1.00  0.00     0.163 HD
BRANCH  20  23
HETATM   23  C   UNL     1      42.176 -11.960  -1.252  1.00  0.00     0.053 A 
HETATM   24  C   UNL     1      42.085 -12.479  -2.552  1.00  0.00     0.049 A 
HETATM   25 CL   UNL     1      41.655 -14.114  -2.918  1.00  0.00    -0.083 Cl
HETATM   26  C   UNL     1      42.324 -11.650  -3.660  1.00  0.00     0.025 A 
HETATM   27  C   UNL     1      42.646 -10.305  -3.485  1.00  0.00     0.002 A 
HETATM   28  C   UNL     1      42.725  -9.776  -2.202  1.00  0.00     0.001 A 
HETATM   29  C   UNL     1      42.491 -10.596  -1.096  1.00  0.00     0.019 A 
ENDBRANCH  20  23
ENDBRANCH  18  19
ENDBRANCH   2  18
TORSDOF 5
ENDMDL
MODEL 7
REMARK VINA RESULT:      -8.5      6.136      9.964
REMARK  5 active torsions:
REMARK  status: ('A' for Active; 'I' for Inactive)
REMARK    1  A    between atoms: C_7  and  C_8 
REMARK    2  A    between atoms: N_9  and  N_10 
REMARK       I    between atoms: N_10  and  C_11 
REMARK    3  A    between atoms: C_11  and  C_12 
REMARK    4  A    between atoms: C_12  and  N_13 
REMARK       I    between atoms: N_13  and  C_14 
REMARK    5  A    between atoms: C_14  and  C_15 
ROOT
HETATM    1  N   UNL     1      41.603 -14.708   1.743  1.00  0.00    -0.246 N 
HETATM    2  C   UNL     1      40.590 -15.478   2.295  1.00  0.00     0.255 C 
HETATM    3  O   UNL     1      39.447 -15.584   1.853  1.00  0.00    -0.270 OA
HETATM    4  H   UNL     1      42.524 -14.703   2.191  1.00  0.00     0.192 HD
ENDROOT
BRANCH   1   5
HETATM    5  N   UNL     1      41.371 -13.963   0.626  1.00  0.00    -0.184 NA
HETATM    6  C   UNL     1      41.810 -14.466  -0.482  1.00  0.00     0.153 C 
BRANCH   6   7
HETATM    7  C   UNL     1      41.633 -13.744  -1.731  1.00  0.00     0.018 A 
HETATM    8  C   UNL     1      40.962 -14.187  -2.864  1.00  0.00     0.018 A 
HETATM    9  C   UNL     1      40.256 -15.468  -3.148  1.00  0.00     0.069 C 
HETATM   10  N   UNL     1      41.028 -13.192  -3.806  1.00  0.00    -0.358 N 
HETATM   11  H   UNL     1      40.620 -13.240  -4.730  1.00  0.00     0.166 HD
HETATM   12  C   UNL     1      41.720 -12.109  -3.322  1.00  0.00     0.043 A 
HETATM   13  C   UNL     1      42.118 -12.425  -2.023  1.00  0.00     0.004 A 
HETATM   14  C   UNL     1      42.017 -10.886  -3.933  1.00  0.00     0.030 A 
HETATM   15  C   UNL     1      42.853 -11.460  -1.298  1.00  0.00     0.014 A 
HETATM   16  C   UNL     1      43.158 -10.230  -1.895  1.00  0.00     0.001 A 
HETATM   17  C   UNL     1      42.745  -9.950  -3.193  1.00  0.00     0.002 A 
ENDBRANCH   6   7
ENDBRANCH   1   5
BRANCH   2  18
HETATM   18  C   UNL     1      41.001 -16.141   3.611  1.00  0.00     0.227 C 
BRANCH  18  19
HETATM   19  N   UNL     1      41.619 -17.446   3.440  1.00  0.00    -0.348 N 
HETATM   20  C   UNL     1      42.951 -17.605   3.154  1.00  0.00     0.253 C 
HETATM   21  O   UNL     1      43.670 -16.632   2.928  1.00  0.00    -0.268 OA
HETATM   22  H   UNL     1      41.017 -18.259   3.510  1.00  0.00     0.163 HD
BRANCH  20  23
HETATM   23  C   UNL     1      43.521 -18.987   3.138  1.00  0.00     0.053 A 
HETATM   24  C   UNL     1      44.356 -19.548   4.116  1.00  0.00     0.049 A 
HETATM   25 CL   UNL     1      44.828 -18.740   5.571  1.00  0.00    -0.083 Cl
HETATM   26  C   UNL     1      44.844 -20.855   3.960  1.00  0.00     0.025 A 
HETATM   27  C   UNL     1      44.501 -21.613   2.841  1.00  0.00     0.002 A 
HETATM   28  C   UNL     1      43.662 -21.073   1.873  1.00  0.00     0.001 A 
HETATM   29  C   UNL     1      43.177 -19.773   2.021  1.00  0.00     0.019 A 
ENDBRANCH  20  23
ENDBRANCH  18  19
ENDBRANCH   2  18
TORSDOF 5
ENDMDL
MODEL 8
REMARK VINA RESULT:      -8.5      6.257      9.245
REMARK  5 active torsions:
REMARK  status: ('A' for Active; 'I' for Inactive)
REMARK    1  A    between atoms: C_7  and  C_8 
REMARK    2  A    between atoms: N_9  and  N_10 
REMARK       I    between atoms: N_10  and  C_11 
REMARK    3  A    between atoms: C_11  and  C_12 
REMARK    4  A    between atoms: C_12  and  N_13 
REMARK       I    between atoms: N_13  and  C_14 
REMARK    5  A    between atoms: C_14  and  C_15 
ROOT
HETATM    1  N   UNL     1      41.414 -15.855   2.688  1.00  0.00    -0.246 N 
HETATM    2  C   UNL     1      41.129 -15.806   1.332  1.00  0.00     0.255 C 
HETATM    3  O   UNL     1      41.246 -16.740   0.539  1.00  0.00    -0.270 OA
HETATM    4  H   UNL     1      41.267 -15.017   3.257  1.00  0.00     0.192 HD
ENDROOT
BRANCH   1   5
HETATM    5  N   UNL     1      41.891 -17.001   3.251  1.00  0.00    -0.184 NA
HETATM    6  C   UNL     1      43.173 -17.050   3.418  1.00  0.00     0.153 C 
BRANCH   6   7
HETATM    7  C   UNL     1      43.789 -18.234   3.991  1.00  0.00     0.018 A 
HETATM    8  C   UNL     1      44.362 -18.351   5.253  1.00  0.00     0.018 A 
HETATM    9  C   UNL     1      44.524 -17.359   6.351  1.00  0.00     0.069 C 
HETATM   10  N   UNL     1      44.814 -19.639   5.389  1.00  0.00    -0.358 N 
HETATM   11  H   UNL     1      45.273 -20.008   6.211  1.00  0.00     0.166 HD
HETATM   12  C   UNL     1      44.552 -20.370   4.256  1.00  0.00     0.043 A 
HETATM   13  C   UNL     1      43.912 -19.516   3.357  1.00  0.00     0.004 A 
HETATM   14  C   UNL     1      44.829 -21.711   3.967  1.00  0.00     0.030 A 
HETATM   15  C   UNL     1      43.530 -20.037   2.101  1.00  0.00     0.014 A 
HETATM   16  C   UNL     1      43.799 -21.378   1.796  1.00  0.00     0.001 A 
HETATM   17  C   UNL     1      44.440 -22.200   2.717  1.00  0.00     0.002 A 
ENDBRANCH   6   7
ENDBRANCH   1   5
BRANCH   2  18
HETATM   18  C   UNL     1      40.726 -14.407   0.861  1.00  0.00     0.227 C 
BRANCH  18  19
HETATM   19  N   UNL     1      39.705 -14.410  -0.174  1.00  0.00    -0.348 N 
HETATM   20  C   UNL     1      39.923 -13.910  -1.432  1.00  0.00     0.253 C 
HETATM   21  O   UNL     1      40.976 -13.339  -1.713  1.00  0.00    -0.268 OA
HETATM   22  H   UNL     1      38.791 -14.773   0.074  1.00  0.00     0.163 HD
BRANCH  20  23
HETATM   23  C   UNL     1      38.859 -14.087  -2.468  1.00  0.00     0.053 A 
HETATM   24  C   UNL     1      38.749 -15.160  -3.365  1.00  0.00     0.049 A 
HETATM   25 CL   UNL     1      39.812 -16.524  -3.384  1.00  0.00    -0.083 Cl
HETATM   26  C   UNL     1      37.709 -15.185  -4.308  1.00  0.00     0.025 A 
HETATM   27  C   UNL     1      36.773 -14.154  -4.362  1.00  0.00     0.002 A 
HETATM   28  C   UNL     1      36.863 -13.092  -3.469  1.00  0.00     0.001 A 
HETATM   29  C   UNL     1      37.897 -13.060  -2.530  1.00  0.00     0.019 A 
ENDBRANCH  20  23
ENDBRANCH  18  19
ENDBRANCH   2  18
TORSDOF 5
ENDMDL
MODEL 9
REMARK VINA RESULT:      -8.3      4.594      6.283
REMARK  5 active torsions:
REMARK  status: ('A' for Active; 'I' for Inactive)
REMARK    1  A    between atoms: C_7  and  C_8 
REMARK    2  A    between atoms: N_9  and  N_10 
REMARK       I    between atoms: N_10  and  C_11 
REMARK    3  A    between atoms: C_11  and  C_12 
REMARK    4  A    between atoms: C_12  and  N_13 
REMARK       I    between atoms: N_13  and  C_14 
REMARK    5  A    between atoms: C_14  and  C_15 
ROOT
HETATM    1  N   UNL     1      42.757 -14.867   3.716  1.00  0.00    -0.246 N 
HETATM    2  C   UNL     1      43.300 -13.715   4.266  1.00  0.00     0.255 C 
HETATM    3  O   UNL     1      44.434 -13.607   4.729  1.00  0.00    -0.270 OA
HETATM    4  H   UNL     1      41.803 -14.840   3.348  1.00  0.00     0.192 HD
ENDROOT
BRANCH   1   5
HETATM    5  N   UNL     1      43.484 -16.019   3.675  1.00  0.00    -0.184 NA
HETATM    6  C   UNL     1      43.074 -16.967   4.453  1.00  0.00     0.153 C 
BRANCH   6   7
HETATM    7  C   UNL     1      43.789 -18.231   4.503  1.00  0.00     0.018 A 
HETATM    8  C   UNL     1      44.652 -18.665   5.503  1.00  0.00     0.018 A 
HETATM    9  C   UNL     1      45.098 -18.010   6.763  1.00  0.00     0.069 C 
HETATM   10  N   UNL     1      45.099 -19.915   5.157  1.00  0.00    -0.358 N 
HETATM   11  H   UNL     1      45.738 -20.474   5.706  1.00  0.00     0.166 HD
HETATM   12  C   UNL     1      44.552 -20.314   3.962  1.00  0.00     0.043 A 
HETATM   13  C   UNL     1      43.728 -19.278   3.522  1.00  0.00     0.004 A 
HETATM   14  C   UNL     1      44.724 -21.506   3.248  1.00  0.00     0.030 A 
HETATM   15  C   UNL     1      43.039 -19.448   2.301  1.00  0.00     0.014 A 
HETATM   16  C   UNL     1      43.199 -20.635   1.574  1.00  0.00     0.001 A 
HETATM   17  C   UNL     1      44.031 -21.647   2.043  1.00  0.00     0.002 A 
ENDBRANCH   6   7
ENDBRANCH   1   5
BRANCH   2  18
HETATM   18  C   UNL     1      42.295 -12.564   4.339  1.00  0.00     0.227 C 
BRANCH  18  19
HETATM   19  N   UNL     1      41.256 -12.630   3.323  1.00  0.00    -0.348 N 
HETATM   20  C   UNL     1      40.022 -13.179   3.559  1.00  0.00     0.253 C 
HETATM   21  O   UNL     1      39.772 -13.739   4.626  1.00  0.00    -0.268 OA
HETATM   22  H   UNL     1      41.484 -12.276   2.401  1.00  0.00     0.163 HD
BRANCH  20  23
HETATM   23  C   UNL     1      38.975 -13.072   2.497  1.00  0.00     0.053 A 
HETATM   24  C   UNL     1      38.560 -14.102   1.639  1.00  0.00     0.049 A 
HETATM   25 CL   UNL     1      39.157 -15.724   1.707  1.00  0.00    -0.083 Cl
HETATM   26  C   UNL     1      37.581 -13.854   0.664  1.00  0.00     0.025 A 
HETATM   27  C   UNL     1      37.004 -12.590   0.540  1.00  0.00     0.002 A 
HETATM   28  C   UNL     1      37.397 -11.566   1.394  1.00  0.00     0.001 A 
HETATM   29  C   UNL     1      38.373 -11.806   2.364  1.00  0.00     0.019 A 
ENDBRANCH  20  23
ENDBRANCH  18  19
ENDBRANCH   2  18
TORSDOF 5
ENDMDL
MODEL 10
REMARK VINA RESULT:      -8.2      1.514      2.633
REMARK  5 active torsions:
REMARK  status: ('A' for Active; 'I' for Inactive)
REMARK    1  A    between atoms: C_7  and  C_8 
REMARK    2  A    between atoms: N_9  and  N_10 
REMARK       I    between atoms: N_10  and  C_11 
REMARK    3  A    between atoms: C_11  and  C_12 
REMARK    4  A    between atoms: C_12  and  N_13 
REMARK       I    between atoms: N_13  and  C_14 
REMARK    5  A    between atoms: C_14  and  C_15 
ROOT
HETATM    1  N   UNL     1      42.609 -14.092   5.972  1.00  0.00    -0.246 N 
HETATM    2  C   UNL     1      42.001 -13.088   5.234  1.00  0.00     0.255 C 
HETATM    3  O   UNL     1      41.995 -13.003   4.006  1.00  0.00    -0.270 OA
HETATM    4  H   UNL     1      42.540 -14.069   6.993  1.00  0.00     0.192 HD
ENDROOT
BRANCH   1   5
HETATM    5  N   UNL     1      43.295 -15.089   5.345  1.00  0.00    -0.184 NA
HETATM    6  C   UNL     1      42.596 -16.126   5.013  1.00  0.00     0.153 C 
BRANCH   6   7
HETATM    7  C   UNL     1      43.232 -17.255   4.358  1.00  0.00     0.018 A 
HETATM    8  C   UNL     1      43.627 -17.335   3.027  1.00  0.00     0.018 A 
HETATM    9  C   UNL     1      43.525 -16.352   1.914  1.00  0.00     0.069 C 
HETATM   10  N   UNL     1      44.191 -18.571   2.832  1.00  0.00    -0.358 N 
HETATM   11  H   UNL     1      44.571 -18.902   1.956  1.00  0.00     0.166 HD
HETATM   12  C   UNL     1      44.180 -19.300   3.996  1.00  0.00     0.043 A 
HETATM   13  C   UNL     1      43.581 -18.505   4.972  1.00  0.00     0.004 A 
HETATM   14  C   UNL     1      44.655 -20.592   4.251  1.00  0.00     0.030 A 
HETATM   15  C   UNL     1      43.452 -19.034   6.275  1.00  0.00     0.014 A 
HETATM   16  C   UNL     1      43.923 -20.325   6.549  1.00  0.00     0.001 A 
HETATM   17  C   UNL     1      44.515 -21.090   5.549  1.00  0.00     0.002 A 
ENDBRANCH   6   7
ENDBRANCH   1   5
BRANCH   2  18
HETATM   18  C   UNL     1      41.390 -11.995   6.112  1.00  0.00     0.227 C 
BRANCH  18  19
HETATM   19  N   UNL     1      42.062 -11.827   7.390  1.00  0.00    -0.348 N 
HETATM   20  C   UNL     1      42.267 -10.599   7.966  1.00  0.00     0.253 C 
HETATM   21  O   UNL     1      41.976  -9.564   7.368  1.00  0.00    -0.268 OA
HETATM   22  H   UNL     1      42.412 -12.664   7.845  1.00  0.00     0.163 HD
BRANCH  20  23
HETATM   23  C   UNL     1      42.839 -10.541   9.346  1.00  0.00     0.053 A 
HETATM   24  C   UNL     1      42.262  -9.902  10.454  1.00  0.00     0.049 A 
HETATM   25 CL   UNL     1      40.725  -9.109  10.426  1.00  0.00    -0.083 Cl
HETATM   26  C   UNL     1      42.925  -9.903  11.691  1.00  0.00     0.025 A 
HETATM   27  C   UNL     1      44.156 -10.541  11.838  1.00  0.00     0.002 A 
HETATM   28  C   UNL     1      44.731 -11.190  10.752  1.00  0.00     0.001 A 
HETATM   29  C   UNL     1      44.078 -11.190   9.517  1.00  0.00     0.019 A 
ENDBRANCH  20  23
ENDBRANCH  18  19
ENDBRANCH   2  18
TORSDOF 5
ENDMDL
