MODEL 1
REMARK VINA RESULT:      -8.4      0.000      0.000
REMARK  5 active torsions:
REMARK  status: ('A' for Active; 'I' for Inactive)
REMARK    1  A    between atoms: C_2  and  C_3 
REMARK    2  A    between atoms: C_5  and  C_6 
REMARK    3  A    between atoms: C_6  and  C_7 
REMARK       I    between atoms: C_7  and  N_8 
REMARK    4  A    between atoms: N_8  and  C_9 
REMARK    5  A    between atoms: C_16  and  C_17 
REMARK       I    between atoms: C_17  and  N_18 
ROOT
HETATM    1  C   UNL     1      41.429 -16.809   1.104  1.00  0.00     0.035 A 
HETATM    2  C   UNL     1      41.551 -16.236  -0.173  1.00  0.00     0.046 A 
HETATM    3  C   UNL     1      40.796 -15.091  -0.500  1.00  0.00     0.030 A 
HETATM    4  C   UNL     1      39.935 -14.565   0.452  1.00  0.00     0.063 A 
HETATM    5  N   UNL     1      39.335 -13.495  -0.154  1.00  0.00    -0.277 N 
HETATM    6  H   UNL     1      38.635 -12.879   0.244  1.00  0.00     0.189 HD
HETATM    7  N   UNL     1      39.747 -13.267  -1.413  1.00  0.00    -0.168 NA
HETATM    8  C   UNL     1      40.653 -14.245  -1.639  1.00  0.00     0.156 A 
HETATM    9  C   UNL     1      39.792 -15.106   1.730  1.00  0.00     0.034 A 
HETATM   10  C   UNL     1      40.562 -16.237   2.038  1.00  0.00     0.032 A 
ENDROOT
BRANCH   1  11
HETATM   11  N   UNL     1      42.164 -17.987   1.341  1.00  0.00    -0.327 N 
HETATM   12  C   UNL     1      43.523 -18.094   1.592  1.00  0.00     0.226 C 
HETATM   13  O   UNL     1      44.365 -17.215   1.438  1.00  0.00    -0.273 OA
HETATM   14  H   UNL     1      41.623 -18.841   1.407  1.00  0.00     0.169 HD
BRANCH  12  15
HETATM   15  C   UNL     1      43.914 -19.470   2.119  1.00  0.00     0.141 C 
BRANCH  15  16
HETATM   16  C   UNL     1      43.905 -19.532   3.630  1.00  0.00    -0.049 A 
HETATM   17  C   UNL     1      43.265 -18.532   4.380  1.00  0.00     0.014 A 
HETATM   18  C   UNL     1      43.218 -18.592   5.778  1.00  0.00    -0.058 A 
HETATM   19  C   UNL     1      43.840 -19.663   6.431  1.00  0.00     0.007 A 
HETATM   20  C   UNL     1      44.503 -20.647   5.698  1.00  0.00     0.001 A 
HETATM   21  C   UNL     1      44.539 -20.583   4.305  1.00  0.00     0.007 A 
BRANCH  18  22
HETATM   22  C   UNL     1      42.473 -17.541   6.561  1.00  0.00     0.034 C 
HETATM   23  C   UNL     1      43.181 -17.198   7.864  1.00  0.00     0.010 C 
ENDBRANCH  18  22
ENDBRANCH  15  16
ENDBRANCH  12  15
ENDBRANCH   1  11
BRANCH   8  24
HETATM   24  C   UNL     1      41.364 -14.353  -2.919  1.00  0.00     0.270 C 
HETATM   25  N   UNL     1      42.606 -13.782  -2.919  1.00  0.00    -0.365 N 
HETATM   26  H   UNL     1      42.942 -13.352  -2.066  1.00  0.00     0.159 HD
HETATM   27  H   UNL     1      43.179 -13.824  -3.748  1.00  0.00     0.159 HD
HETATM   28  O   UNL     1      40.913 -14.905  -3.919  1.00  0.00    -0.266 OA
ENDBRANCH   8  24
TORSDOF 5
ENDMDL
MODEL 2
REMARK VINA RESULT:      -8.3      2.214      3.841
REMARK  5 active torsions:
REMARK  status: ('A' for Active; 'I' for Inactive)
REMARK    1  A    between atoms: C_2  and  C_3 
REMARK    2  A    between atoms: C_5  and  C_6 
REMARK    3  A    between atoms: C_6  and  C_7 
REMARK       I    between atoms: C_7  and  N_8 
REMARK    4  A    between atoms: N_8  and  C_9 
REMARK    5  A    between atoms: C_16  and  C_17 
REMARK       I    between atoms: C_17  and  N_18 
ROOT
HETATM    1  C   UNL     1      41.153 -15.367  -0.891  1.00  0.00     0.035 A 
HETATM    2  C   UNL     1      41.660 -14.076  -0.671  1.00  0.00     0.046 A 
HETATM    3  C   UNL     1      41.905 -13.225  -1.769  1.00  0.00     0.030 A 
HETATM    4  C   UNL     1      41.646 -13.695  -3.048  1.00  0.00     0.063 A 
HETATM    5  N   UNL     1      41.997 -12.673  -3.887  1.00  0.00    -0.277 N 
HETATM    6  H   UNL     1      41.953 -12.669  -4.899  1.00  0.00     0.189 HD
HETATM    7  N   UNL     1      42.443 -11.569  -3.261  1.00  0.00    -0.168 NA
HETATM    8  C   UNL     1      42.388 -11.896  -1.951  1.00  0.00     0.156 A 
HETATM    9  C   UNL     1      41.137 -14.969  -3.302  1.00  0.00     0.034 A 
HETATM   10  C   UNL     1      40.891 -15.794  -2.195  1.00  0.00     0.032 A 
ENDROOT
BRANCH   1  11
HETATM   11  N   UNL     1      40.992 -16.185   0.244  1.00  0.00    -0.327 N 
HETATM   12  C   UNL     1      41.984 -16.842   0.956  1.00  0.00     0.226 C 
HETATM   13  O   UNL     1      43.148 -17.007   0.602  1.00  0.00    -0.273 OA
HETATM   14  H   UNL     1      40.054 -16.239   0.622  1.00  0.00     0.169 HD
BRANCH  12  15
HETATM   15  C   UNL     1      41.492 -17.363   2.301  1.00  0.00     0.141 C 
BRANCH  15  16
HETATM   16  C   UNL     1      42.574 -18.086   3.071  1.00  0.00    -0.049 A 
HETATM   17  C   UNL     1      43.082 -19.310   2.604  1.00  0.00     0.014 A 
HETATM   18  C   UNL     1      44.107 -19.976   3.288  1.00  0.00    -0.058 A 
HETATM   19  C   UNL     1      44.614 -19.414   4.465  1.00  0.00     0.007 A 
HETATM   20  C   UNL     1      44.097 -18.214   4.952  1.00  0.00     0.001 A 
HETATM   21  C   UNL     1      43.081 -17.552   4.262  1.00  0.00     0.007 A 
BRANCH  18  22
HETATM   22  C   UNL     1      44.682 -21.257   2.737  1.00  0.00     0.034 C 
HETATM   23  C   UNL     1      43.827 -21.822   1.611  1.00  0.00     0.010 C 
ENDBRANCH  18  22
ENDBRANCH  15  16
ENDBRANCH  12  15
ENDBRANCH   1  11
BRANCH   8  24
HETATM   24  C   UNL     1      42.787 -10.945  -0.905  1.00  0.00     0.270 C 
HETATM   25  N   UNL     1      41.766 -10.555  -0.084  1.00  0.00    -0.365 N 
HETATM   26  H   UNL     1      40.843 -10.944  -0.240  1.00  0.00     0.159 HD
HETATM   27  H   UNL     1      41.947  -9.920   0.678  1.00  0.00     0.159 HD
HETATM   28  O   UNL     1      43.929 -10.522  -0.751  1.00  0.00    -0.266 OA
ENDBRANCH   8  24
TORSDOF 5
ENDMDL
MODEL 3
REMARK VINA RESULT:      -8.3      1.762      2.932
REMARK  5 active torsions:
REMARK  status: ('A' for Active; 'I' for Inactive)
REMARK    1  A    between atoms: C_2  and  C_3 
REMARK    2  A    between atoms: C_5  and  C_6 
REMARK    3  A    between atoms: C_6  and  C_7 
REMARK       I    between atoms: C_7  and  N_8 
REMARK    4  A    between atoms: N_8  and  C_9 
REMARK    5  A    between atoms: C_16  and  C_17 
REMARK       I    between atoms: C_17  and  N_18 
ROOT
HETATM    1  C   UNL     1      40.781 -14.668   2.017  1.00  0.00     0.035 A 
HETATM    2  C   UNL     1      41.143 -14.709   0.661  1.00  0.00     0.046 A 
HETATM    3  C   UNL     1      40.167 -14.482  -0.331  1.00  0.00     0.030 A 
HETATM    4  C   UNL     1      38.860 -14.233   0.064  1.00  0.00     0.063 A 
HETATM    5  N   UNL     1      38.154 -14.079  -1.097  1.00  0.00    -0.277 N 
HETATM    6  H   UNL     1      37.162 -13.897  -1.191  1.00  0.00     0.189 HD
HETATM    7  N   UNL     1      38.894 -14.187  -2.215  1.00  0.00    -0.168 NA
HETATM    8  C   UNL     1      40.141 -14.432  -1.755  1.00  0.00     0.156 A 
HETATM    9  C   UNL     1      38.467 -14.180   1.402  1.00  0.00     0.034 A 
HETATM   10  C   UNL     1      39.457 -14.397   2.371  1.00  0.00     0.032 A 
ENDROOT
BRANCH   1  11
HETATM   11  N   UNL     1      41.792 -14.966   2.952  1.00  0.00    -0.327 N 
HETATM   12  C   UNL     1      41.826 -16.025   3.846  1.00  0.00     0.226 C 
HETATM   13  O   UNL     1      40.890 -16.763   4.138  1.00  0.00    -0.273 OA
HETATM   14  H   UNL     1      42.618 -14.381   2.912  1.00  0.00     0.169 HD
BRANCH  12  15
HETATM   15  C   UNL     1      43.203 -16.221   4.468  1.00  0.00     0.141 C 
BRANCH  15  16
HETATM   16  C   UNL     1      43.689 -17.649   4.354  1.00  0.00    -0.049 A 
HETATM   17  C   UNL     1      43.477 -18.381   3.175  1.00  0.00     0.014 A 
HETATM   18  C   UNL     1      43.949 -19.693   3.041  1.00  0.00    -0.058 A 
HETATM   19  C   UNL     1      44.628 -20.282   4.115  1.00  0.00     0.007 A 
HETATM   20  C   UNL     1      44.819 -19.574   5.301  1.00  0.00     0.001 A 
HETATM   21  C   UNL     1      44.351 -18.265   5.424  1.00  0.00     0.007 A 
BRANCH  18  22
HETATM   22  C   UNL     1      43.765 -20.440   1.744  1.00  0.00     0.034 C 
HETATM   23  C   UNL     1      44.021 -21.931   1.909  1.00  0.00     0.010 C 
ENDBRANCH  18  22
ENDBRANCH  15  16
ENDBRANCH  12  15
ENDBRANCH   1  11
BRANCH   8  24
HETATM   24  C   UNL     1      41.276 -14.608  -2.671  1.00  0.00     0.270 C 
HETATM   25  N   UNL     1      42.274 -13.688  -2.508  1.00  0.00    -0.365 N 
HETATM   26  H   UNL     1      42.171 -12.983  -1.787  1.00  0.00     0.159 HD
HETATM   27  H   UNL     1      43.105 -13.740  -3.077  1.00  0.00     0.159 HD
HETATM   28  O   UNL     1      41.356 -15.495  -3.515  1.00  0.00    -0.266 OA
ENDBRANCH   8  24
TORSDOF 5
ENDMDL
MODEL 4
REMARK VINA RESULT:      -8.2      2.920      4.534
REMARK  5 active torsions:
REMARK  status: ('A' for Active; 'I' for Inactive)
REMARK    1  A    between atoms: C_2  and  C_3 
REMARK    2  A    between atoms: C_5  and  C_6 
REMARK    3  A    between atoms: C_6  and  C_7 
REMARK       I    between atoms: C_7  and  N_8 
REMARK    4  A    between atoms: N_8  and  C_9 
REMARK    5  A    between atoms: C_16  and  C_17 
REMARK       I    between atoms: C_17  and  N_18 
ROOT
HETATM    1  C   UNL     1      43.105 -15.254   5.367  1.00  0.00     0.035 A 
HETATM    2  C   UNL     1      42.268 -15.442   4.255  1.00  0.00     0.046 A 
HETATM    3  C   UNL     1      41.403 -14.406   3.847  1.00  0.00     0.030 A 
HETATM    4  C   UNL     1      41.393 -13.222   4.570  1.00  0.00     0.063 A 
HETATM    5  N   UNL     1      40.455 -12.434   3.961  1.00  0.00    -0.277 N 
HETATM    6  H   UNL     1      40.173 -11.500   4.230  1.00  0.00     0.189 HD
HETATM    7  N   UNL     1      39.867 -12.998   2.890  1.00  0.00    -0.168 NA
HETATM    8  C   UNL     1      40.447 -14.216   2.807  1.00  0.00     0.156 A 
HETATM    9  C   UNL     1      42.215 -12.999   5.676  1.00  0.00     0.034 A 
HETATM   10  C   UNL     1      43.075 -14.039   6.056  1.00  0.00     0.032 A 
ENDROOT
BRANCH   1  11
HETATM   11  N   UNL     1      43.897 -16.352   5.757  1.00  0.00    -0.327 N 
HETATM   12  C   UNL     1      43.499 -17.459   6.490  1.00  0.00     0.226 C 
HETATM   13  O   UNL     1      42.450 -17.580   7.115  1.00  0.00    -0.273 OA
HETATM   14  H   UNL     1      44.844 -16.364   5.397  1.00  0.00     0.169 HD
BRANCH  12  15
HETATM   15  C   UNL     1      44.521 -18.588   6.446  1.00  0.00     0.141 C 
BRANCH  15  16
HETATM   16  C   UNL     1      44.450 -19.381   5.160  1.00  0.00    -0.049 A 
HETATM   17  C   UNL     1      44.020 -18.770   3.970  1.00  0.00     0.014 A 
HETATM   18  C   UNL     1      43.980 -19.481   2.765  1.00  0.00    -0.058 A 
HETATM   19  C   UNL     1      44.359 -20.829   2.759  1.00  0.00     0.007 A 
HETATM   20  C   UNL     1      44.760 -21.453   3.940  1.00  0.00     0.001 A 
HETATM   21  C   UNL     1      44.804 -20.736   5.136  1.00  0.00     0.007 A 
BRANCH  18  22
HETATM   22  C   UNL     1      43.575 -18.790   1.487  1.00  0.00     0.034 C 
HETATM   23  C   UNL     1      44.127 -17.374   1.410  1.00  0.00     0.010 C 
ENDBRANCH  18  22
ENDBRANCH  15  16
ENDBRANCH  12  15
ENDBRANCH   1  11
BRANCH   8  24
HETATM   24  C   UNL     1      40.088 -15.166   1.746  1.00  0.00     0.270 C 
HETATM   25  N   UNL     1      39.045 -15.990   2.062  1.00  0.00    -0.365 N 
HETATM   26  H   UNL     1      38.602 -15.885   2.968  1.00  0.00     0.159 HD
HETATM   27  H   UNL     1      38.712 -16.662   1.389  1.00  0.00     0.159 HD
HETATM   28  O   UNL     1      40.651 -15.235   0.657  1.00  0.00    -0.266 OA
ENDBRANCH   8  24
TORSDOF 5
ENDMDL
MODEL 5
REMARK VINA RESULT:      -8.2      3.433      4.483
REMARK  5 active torsions:
REMARK  status: ('A' for Active; 'I' for Inactive)
REMARK    1  A    between atoms: C_2  and  C_3 
REMARK    2  A    between atoms: C_5  and  C_6 
REMARK    3  A    between atoms: C_6  and  C_7 
REMARK       I    between atoms: C_7  and  N_8 
REMARK    4  A    between atoms: N_8  and  C_9 
REMARK    5  A    between atoms: C_16  and  C_17 
REMARK       I    between atoms: C_17  and  N_18 
ROOT
HETATM    1  C   UNL     1      41.422 -16.665   3.893  1.00  0.00     0.035 A 
HETATM    2  C   UNL     1      40.934 -15.395   3.543  1.00  0.00     0.046 A 
HETATM    3  C   UNL     1      40.387 -14.557   4.537  1.00  0.00     0.030 A 
HETATM    4  C   UNL     1      40.334 -15.019   5.844  1.00  0.00     0.063 A 
HETATM    5  N   UNL     1      39.742 -14.015   6.559  1.00  0.00    -0.277 N 
HETATM    6  H   UNL     1      39.529 -14.012   7.550  1.00  0.00     0.189 HD
HETATM    7  N   UNL     1      39.423 -12.930   5.833  1.00  0.00    -0.168 NA
HETATM    8  C   UNL     1      39.820 -13.250   4.581  1.00  0.00     0.156 A 
HETATM    9  C   UNL     1      40.814 -16.272   6.227  1.00  0.00     0.034 A 
HETATM   10  C   UNL     1      41.365 -17.083   5.225  1.00  0.00     0.032 A 
ENDROOT
BRANCH   1  11
HETATM   11  N   UNL     1      41.896 -17.472   2.842  1.00  0.00    -0.327 N 
HETATM   12  C   UNL     1      43.152 -17.439   2.255  1.00  0.00     0.226 C 
HETATM   13  O   UNL     1      43.999 -16.562   2.394  1.00  0.00    -0.273 OA
HETATM   14  H   UNL     1      41.271 -18.207   2.531  1.00  0.00     0.169 HD
BRANCH  12  15
HETATM   15  C   UNL     1      43.421 -18.657   1.380  1.00  0.00     0.141 C 
BRANCH  15  16
HETATM   16  C   UNL     1      43.842 -19.866   2.188  1.00  0.00    -0.049 A 
HETATM   17  C   UNL     1      44.095 -19.749   3.564  1.00  0.00     0.014 A 
HETATM   18  C   UNL     1      44.453 -20.864   4.332  1.00  0.00    -0.058 A 
HETATM   19  C   UNL     1      44.576 -22.108   3.704  1.00  0.00     0.007 A 
HETATM   20  C   UNL     1      44.355 -22.231   2.332  1.00  0.00     0.001 A 
HETATM   21  C   UNL     1      43.992 -21.116   1.575  1.00  0.00     0.007 A 
BRANCH  18  22
HETATM   22  C   UNL     1      44.660 -20.728   5.820  1.00  0.00     0.034 C 
HETATM   23  C   UNL     1      43.714 -19.704   6.431  1.00  0.00     0.010 C 
ENDBRANCH  18  22
ENDBRANCH  15  16
ENDBRANCH  12  15
ENDBRANCH   1  11
BRANCH   8  24
HETATM   24  C   UNL     1      39.659 -12.314   3.461  1.00  0.00     0.270 C 
HETATM   25  N   UNL     1      40.715 -11.464   3.286  1.00  0.00    -0.365 N 
HETATM   26  H   UNL     1      41.509 -11.543   3.910  1.00  0.00     0.159 HD
HETATM   27  H   UNL     1      40.705 -10.798   2.529  1.00  0.00     0.159 HD
HETATM   28  O   UNL     1      38.678 -12.276   2.724  1.00  0.00    -0.266 OA
ENDBRANCH   8  24
TORSDOF 5
ENDMDL
MODEL 6
REMARK VINA RESULT:      -8.1      5.913      8.666
REMARK  5 active torsions:
REMARK  status: ('A' for Active; 'I' for Inactive)
REMARK    1  A    between atoms: C_2  and  C_3 
REMARK    2  A    between atoms: C_5  and  C_6 
REMARK    3  A    between atoms: C_6  and  C_7 
REMARK       I    between atoms: C_7  and  N_8 
REMARK    4  A    between atoms: N_8  and  C_9 
REMARK    5  A    between atoms: C_16  and  C_17 
REMARK       I    between atoms: C_17  and  N_18 
ROOT
HETATM    1  C   UNL     1      44.544 -13.832   6.774  1.00  0.00     0.035 A 
HETATM    2  C   UNL     1      43.794 -13.106   7.714  1.00  0.00     0.046 A 
HETATM    3  C   UNL     1      44.439 -12.173   8.553  1.00  0.00     0.030 A 
HETATM    4  C   UNL     1      45.811 -12.006   8.434  1.00  0.00     0.063 A 
HETATM    5  N   UNL     1      46.145 -11.073   9.376  1.00  0.00    -0.277 N 
HETATM    6  H   UNL     1      47.070 -10.714   9.582  1.00  0.00     0.189 HD
HETATM    7  N   UNL     1      45.103 -10.603  10.086  1.00  0.00    -0.168 NA
HETATM    8  C   UNL     1      44.042 -11.272   9.584  1.00  0.00     0.156 A 
HETATM    9  C   UNL     1      46.585 -12.707   7.508  1.00  0.00     0.034 A 
HETATM   10  C   UNL     1      45.921 -13.620   6.677  1.00  0.00     0.032 A 
ENDROOT
BRANCH   1  11
HETATM   11  N   UNL     1      43.847 -14.791   6.013  1.00  0.00    -0.327 N 
HETATM   12  C   UNL     1      43.769 -16.155   6.245  1.00  0.00     0.226 C 
HETATM   13  O   UNL     1      44.464 -16.804   7.021  1.00  0.00    -0.273 OA
HETATM   14  H   UNL     1      43.282 -14.428   5.255  1.00  0.00     0.169 HD
BRANCH  12  15
HETATM   15  C   UNL     1      42.677 -16.827   5.422  1.00  0.00     0.141 C 
BRANCH  15  16
HETATM   16  C   UNL     1      43.217 -17.478   4.168  1.00  0.00    -0.049 A 
HETATM   17  C   UNL     1      43.627 -18.821   4.183  1.00  0.00     0.014 A 
HETATM   18  C   UNL     1      44.098 -19.448   3.022  1.00  0.00    -0.058 A 
HETATM   19  C   UNL     1      44.176 -18.708   1.837  1.00  0.00     0.007 A 
HETATM   20  C   UNL     1      43.799 -17.365   1.817  1.00  0.00     0.001 A 
HETATM   21  C   UNL     1      43.324 -16.750   2.976  1.00  0.00     0.007 A 
BRANCH  18  22
HETATM   22  C   UNL     1      44.474 -20.908   3.045  1.00  0.00     0.034 C 
HETATM   23  C   UNL     1      43.987 -21.637   1.801  1.00  0.00     0.010 C 
ENDBRANCH  18  22
ENDBRANCH  15  16
ENDBRANCH  12  15
ENDBRANCH   1  11
BRANCH   8  24
HETATM   24  C   UNL     1      42.681 -11.042  10.086  1.00  0.00     0.270 C 
HETATM   25  N   UNL     1      42.417 -11.645  11.284  1.00  0.00    -0.365 N 
HETATM   26  H   UNL     1      43.154 -12.179  11.730  1.00  0.00     0.159 HD
HETATM   27  H   UNL     1      41.516 -11.526  11.719  1.00  0.00     0.159 HD
HETATM   28  O   UNL     1      41.833 -10.367   9.508  1.00  0.00    -0.266 OA
ENDBRANCH   8  24
TORSDOF 5
ENDMDL
MODEL 7
REMARK VINA RESULT:      -8.0      3.588      5.483
REMARK  5 active torsions:
REMARK  status: ('A' for Active; 'I' for Inactive)
REMARK    1  A    between atoms: C_2  and  C_3 
REMARK    2  A    between atoms: C_5  and  C_6 
REMARK    3  A    between atoms: C_6  and  C_7 
REMARK       I    between atoms: C_7  and  N_8 
REMARK    4  A    between atoms: N_8  and  C_9 
REMARK    5  A    between atoms: C_16  and  C_17 
REMARK       I    between atoms: C_17  and  N_18 
ROOT
HETATM    1  C   UNL     1      39.219 -14.344   1.936  1.00  0.00     0.035 A 
HETATM    2  C   UNL     1      39.469 -13.988   3.272  1.00  0.00     0.046 A 
HETATM    3  C   UNL     1      39.071 -12.720   3.744  1.00  0.00     0.030 A 
HETATM    4  C   UNL     1      38.449 -11.846   2.865  1.00  0.00     0.063 A 
HETATM    5  N   UNL     1      38.208 -10.713   3.591  1.00  0.00    -0.277 N 
HETATM    6  H   UNL     1      37.775  -9.857   3.265  1.00  0.00     0.189 HD
HETATM    7  N   UNL     1      38.603 -10.781   4.875  1.00  0.00    -0.168 NA
HETATM    8  C   UNL     1      39.135 -12.019   4.983  1.00  0.00     0.156 A 
HETATM    9  C   UNL     1      38.181 -12.169   1.534  1.00  0.00     0.034 A 
HETATM   10  C   UNL     1      38.574 -13.439   1.089  1.00  0.00     0.032 A 
ENDROOT
BRANCH   1  11
HETATM   11  N   UNL     1      39.700 -15.600   1.515  1.00  0.00    -0.327 N 
HETATM   12  C   UNL     1      41.009 -15.943   1.218  1.00  0.00     0.226 C 
HETATM   13  O   UNL     1      41.948 -15.169   1.057  1.00  0.00    -0.273 OA
HETATM   14  H   UNL     1      39.020 -16.350   1.499  1.00  0.00     0.169 HD
BRANCH  12  15
HETATM   15  C   UNL     1      41.209 -17.450   1.114  1.00  0.00     0.141 C 
BRANCH  15  16
HETATM   16  C   UNL     1      42.076 -17.996   2.226  1.00  0.00    -0.049 A 
HETATM   17  C   UNL     1      42.953 -19.066   1.985  1.00  0.00     0.014 A 
HETATM   18  C   UNL     1      43.787 -19.561   2.995  1.00  0.00    -0.058 A 
HETATM   19  C   UNL     1      43.723 -18.986   4.270  1.00  0.00     0.007 A 
HETATM   20  C   UNL     1      42.835 -17.942   4.528  1.00  0.00     0.001 A 
HETATM   21  C   UNL     1      42.013 -17.449   3.514  1.00  0.00     0.007 A 
BRANCH  18  22
HETATM   22  C   UNL     1      44.766 -20.669   2.699  1.00  0.00     0.034 C 
HETATM   23  C   UNL     1      44.146 -21.756   1.832  1.00  0.00     0.010 C 
ENDBRANCH  18  22
ENDBRANCH  15  16
ENDBRANCH  12  15
ENDBRANCH   1  11
BRANCH   8  24
HETATM   24  C   UNL     1      39.684 -12.510   6.254  1.00  0.00     0.270 C 
HETATM   25  N   UNL     1      40.978 -12.943   6.174  1.00  0.00    -0.365 N 
HETATM   26  H   UNL     1      41.454 -12.887   5.280  1.00  0.00     0.159 HD
HETATM   27  H   UNL     1      41.449 -13.278   7.000  1.00  0.00     0.159 HD
HETATM   28  O   UNL     1      39.065 -12.536   7.314  1.00  0.00    -0.266 OA
ENDBRANCH   8  24
TORSDOF 5
ENDMDL
MODEL 8
REMARK VINA RESULT:      -7.9      2.281      3.780
REMARK  5 active torsions:
REMARK  status: ('A' for Active; 'I' for Inactive)
REMARK    1  A    between atoms: C_2  and  C_3 
REMARK    2  A    between atoms: C_5  and  C_6 
REMARK    3  A    between atoms: C_6  and  C_7 
REMARK       I    between atoms: C_7  and  N_8 
REMARK    4  A    between atoms: N_8  and  C_9 
REMARK    5  A    between atoms: C_16  and  C_17 
REMARK       I    between atoms: C_17  and  N_18 
ROOT
HETATM    1  C   UNL     1      41.565 -16.793   1.555  1.00  0.00     0.035 A 
HETATM    2  C   UNL     1      41.340 -16.149   2.782  1.00  0.00     0.046 A 
HETATM    3  C   UNL     1      40.668 -14.909   2.808  1.00  0.00     0.030 A 
HETATM    4  C   UNL     1      40.255 -14.349   1.608  1.00  0.00     0.063 A 
HETATM    5  N   UNL     1      39.667 -13.161   1.946  1.00  0.00    -0.277 N 
HETATM    6  H   UNL     1      39.261 -12.478   1.318  1.00  0.00     0.189 HD
HETATM    7  N   UNL     1      39.645 -12.909   3.267  1.00  0.00    -0.168 NA
HETATM    8  C   UNL     1      40.258 -13.984   3.812  1.00  0.00     0.156 A 
HETATM    9  C   UNL     1      40.457 -14.965   0.372  1.00  0.00     0.034 A 
HETATM   10  C   UNL     1      41.116 -16.202   0.371  1.00  0.00     0.032 A 
ENDROOT
BRANCH   1  11
HETATM   11  N   UNL     1      42.297 -17.996   1.597  1.00  0.00    -0.327 N 
HETATM   12  C   UNL     1      43.675 -18.142   1.635  1.00  0.00     0.226 C 
HETATM   13  O   UNL     1      44.507 -17.266   1.421  1.00  0.00    -0.273 OA
HETATM   14  H   UNL     1      41.750 -18.844   1.681  1.00  0.00     0.169 HD
BRANCH  12  15
HETATM   15  C   UNL     1      44.103 -19.558   2.000  1.00  0.00     0.141 C 
BRANCH  15  16
HETATM   16  C   UNL     1      44.122 -19.789   3.494  1.00  0.00    -0.049 A 
HETATM   17  C   UNL     1      43.581 -18.832   4.368  1.00  0.00     0.014 A 
HETATM   18  C   UNL     1      43.560 -19.044   5.752  1.00  0.00    -0.058 A 
HETATM   19  C   UNL     1      44.108 -20.226   6.265  1.00  0.00     0.007 A 
HETATM   20  C   UNL     1      44.674 -21.170   5.408  1.00  0.00     0.001 A 
HETATM   21  C   UNL     1      44.685 -20.954   4.030  1.00  0.00     0.007 A 
BRANCH  18  22
HETATM   22  C   UNL     1      42.919 -18.033   6.668  1.00  0.00     0.034 C 
HETATM   23  C   UNL     1      43.236 -16.605   6.245  1.00  0.00     0.010 C 
ENDBRANCH  18  22
ENDBRANCH  15  16
ENDBRANCH  12  15
ENDBRANCH   1  11
BRANCH   8  24
HETATM   24  C   UNL     1      40.435 -14.112   5.264  1.00  0.00     0.270 C 
HETATM   25  N   UNL     1      39.718 -15.130   5.828  1.00  0.00    -0.365 N 
HETATM   26  H   UNL     1      39.145 -15.710   5.226  1.00  0.00     0.159 HD
HETATM   27  H   UNL     1      39.791 -15.310   6.817  1.00  0.00     0.159 HD
HETATM   28  O   UNL     1      41.161 -13.390   5.941  1.00  0.00    -0.266 OA
ENDBRANCH   8  24
TORSDOF 5
ENDMDL
MODEL 9
REMARK VINA RESULT:      -7.9      5.820      8.649
REMARK  5 active torsions:
REMARK  status: ('A' for Active; 'I' for Inactive)
REMARK    1  A    between atoms: C_2  and  C_3 
REMARK    2  A    between atoms: C_5  and  C_6 
REMARK    3  A    between atoms: C_6  and  C_7 
REMARK       I    between atoms: C_7  and  N_8 
REMARK    4  A    between atoms: N_8  and  C_9 
REMARK    5  A    between atoms: C_16  and  C_17 
REMARK       I    between atoms: C_17  and  N_18 
ROOT
HETATM    1  C   UNL     1      44.290 -14.429   7.290  1.00  0.00     0.035 A 
HETATM    2  C   UNL     1      44.047 -13.552   8.360  1.00  0.00     0.046 A 
HETATM    3  C   UNL     1      44.965 -12.520   8.640  1.00  0.00     0.030 A 
HETATM    4  C   UNL     1      46.101 -12.404   7.852  1.00  0.00     0.063 A 
HETATM    5  N   UNL     1      46.796 -11.347   8.371  1.00  0.00    -0.277 N 
HETATM    6  H   UNL     1      47.686 -10.984   8.052  1.00  0.00     0.189 HD
HETATM    7  N   UNL     1      46.200 -10.752   9.420  1.00  0.00    -0.168 NA
HETATM    8  C   UNL     1      45.065 -11.465   9.594  1.00  0.00     0.156 A 
HETATM    9  C   UNL     1      46.371 -13.255   6.779  1.00  0.00     0.034 A 
HETATM   10  C   UNL     1      45.438 -14.266   6.511  1.00  0.00     0.032 A 
ENDROOT
BRANCH   1  11
HETATM   11  N   UNL     1      43.365 -15.475   7.106  1.00  0.00    -0.327 N 
HETATM   12  C   UNL     1      42.446 -15.615   6.078  1.00  0.00     0.226 C 
HETATM   13  O   UNL     1      42.123 -14.753   5.266  1.00  0.00    -0.273 OA
HETATM   14  H   UNL     1      43.431 -16.245   7.761  1.00  0.00     0.169 HD
BRANCH  12  15
HETATM   15  C   UNL     1      41.841 -17.013   6.020  1.00  0.00     0.141 C 
BRANCH  15  16
HETATM   16  C   UNL     1      42.738 -18.001   5.308  1.00  0.00    -0.049 A 
HETATM   17  C   UNL     1      42.828 -17.999   3.907  1.00  0.00     0.014 A 
HETATM   18  C   UNL     1      43.678 -18.885   3.234  1.00  0.00    -0.058 A 
HETATM   19  C   UNL     1      44.434 -19.797   3.980  1.00  0.00     0.007 A 
HETATM   20  C   UNL     1      44.331 -19.827   5.370  1.00  0.00     0.001 A 
HETATM   21  C   UNL     1      43.486 -18.937   6.034  1.00  0.00     0.007 A 
BRANCH  18  22
HETATM   22  C   UNL     1      43.807 -18.824   1.733  1.00  0.00     0.034 C 
HETATM   23  C   UNL     1      43.530 -17.427   1.197  1.00  0.00     0.010 C 
ENDBRANCH  18  22
ENDBRANCH  15  16
ENDBRANCH  12  15
ENDBRANCH   1  11
BRANCH   8  24
HETATM   24  C   UNL     1      44.102 -11.129  10.651  1.00  0.00     0.270 C 
HETATM   25  N   UNL     1      43.804 -12.169  11.486  1.00  0.00    -0.365 N 
HETATM   26  H   UNL     1      44.259 -13.061  11.331  1.00  0.00     0.159 HD
HETATM   27  H   UNL     1      43.169 -12.030  12.257  1.00  0.00     0.159 HD
HETATM   28  O   UNL     1      43.596 -10.021  10.803  1.00  0.00    -0.266 OA
ENDBRANCH   8  24
TORSDOF 5
ENDMDL
MODEL 10
REMARK VINA RESULT:      -7.9      3.002      8.330
REMARK  5 active torsions:
REMARK  status: ('A' for Active; 'I' for Inactive)
REMARK    1  A    between atoms: C_2  and  C_3 
REMARK    2  A    between atoms: C_5  and  C_6 
REMARK    3  A    between atoms: C_6  and  C_7 
REMARK       I    between atoms: C_7  and  N_8 
REMARK    4  A    between atoms: N_8  and  C_9 
REMARK    5  A    between atoms: C_16  and  C_17 
REMARK       I    between atoms: C_17  and  N_18 
ROOT
HETATM    1  C   UNL     1      41.858 -17.582   3.010  1.00  0.00     0.035 A 
HETATM    2  C   UNL     1      42.406 -18.017   4.229  1.00  0.00     0.046 A 
HETATM    3  C   UNL     1      43.433 -18.983   4.228  1.00  0.00     0.030 A 
HETATM    4  C   UNL     1      43.870 -19.491   3.013  1.00  0.00     0.063 A 
HETATM    5  N   UNL     1      44.836 -20.406   3.330  1.00  0.00    -0.277 N 
HETATM    6  H   UNL     1      45.367 -20.983   2.689  1.00  0.00     0.189 HD
HETATM    7  N   UNL     1      45.078 -20.524   4.648  1.00  0.00    -0.168 NA
HETATM    8  C   UNL     1      44.220 -19.646   5.214  1.00  0.00     0.156 A 
HETATM    9  C   UNL     1      43.352 -19.077   1.785  1.00  0.00     0.034 A 
HETATM   10  C   UNL     1      42.340 -18.107   1.809  1.00  0.00     0.032 A 
ENDROOT
BRANCH   1  11
HETATM   11  N   UNL     1      40.793 -16.663   3.088  1.00  0.00    -0.327 N 
HETATM   12  C   UNL     1      40.877 -15.281   3.158  1.00  0.00     0.226 C 
HETATM   13  O   UNL     1      41.887 -14.622   3.384  1.00  0.00    -0.273 OA
HETATM   14  H   UNL     1      39.863 -17.057   3.010  1.00  0.00     0.169 HD
BRANCH  12  15
HETATM   15  C   UNL     1      39.537 -14.600   2.904  1.00  0.00     0.141 C 
BRANCH  15  16
HETATM   16  C   UNL     1      39.279 -14.368   1.432  1.00  0.00    -0.049 A 
HETATM   17  C   UNL     1      40.319 -14.500   0.497  1.00  0.00     0.014 A 
HETATM   18  C   UNL     1      40.089 -14.320  -0.873  1.00  0.00    -0.058 A 
HETATM   19  C   UNL     1      38.801 -13.985  -1.306  1.00  0.00     0.007 A 
HETATM   20  C   UNL     1      37.767 -13.823  -0.383  1.00  0.00     0.001 A 
HETATM   21  C   UNL     1      38.002 -14.010   0.979  1.00  0.00     0.007 A 
BRANCH  18  22
HETATM   22  C   UNL     1      41.205 -14.528  -1.865  1.00  0.00     0.034 C 
HETATM   23  C   UNL     1      40.848 -15.579  -2.907  1.00  0.00     0.010 C 
ENDBRANCH  18  22
ENDBRANCH  15  16
ENDBRANCH  12  15
ENDBRANCH   1  11
BRANCH   8  24
HETATM   24  C   UNL     1      44.169 -19.453   6.669  1.00  0.00     0.270 C 
HETATM   25  N   UNL     1      44.735 -18.285   7.098  1.00  0.00    -0.365 N 
HETATM   26  H   UNL     1      45.125 -17.653   6.409  1.00  0.00     0.159 HD
HETATM   27  H   UNL     1      44.729 -18.054   8.080  1.00  0.00     0.159 HD
HETATM   28  O   UNL     1      43.664 -20.247   7.457  1.00  0.00    -0.266 OA
ENDBRANCH   8  24
TORSDOF 5
ENDMDL
