MODEL 1
REMARK VINA RESULT:      -8.4      0.000      0.000
REMARK  6 active torsions:
REMARK  status: ('A' for Active; 'I' for Inactive)
REMARK    1  A    between atoms: C_2  and  C_3 
REMARK       I    between atoms: C_3  and  N_4 
REMARK    2  A    between atoms: N_4  and  C_5 
REMARK    3  A    between atoms: C_7  and  N_8 
REMARK       I    between atoms: N_8  and  C_9 
REMARK    4  A    between atoms: C_9  and  C_10 
REMARK    5  A    between atoms: C_12  and  O_13 
REMARK    6  A    between atoms: O_13  and  C_14 
ROOT
HETATM    1  N   UNL     1      43.834 -15.012   7.650  1.00  0.00    -0.322 N 
HETATM    2  C   UNL     1      44.783 -14.116   7.186  1.00  0.00     0.256 C 
HETATM    3  O   UNL     1      45.415 -14.236   6.140  1.00  0.00    -0.267 OA
HETATM    4  H   UNL     1      43.558 -14.963   8.617  1.00  0.00     0.169 HD
ENDROOT
BRANCH   1   5
HETATM    5  C   UNL     1      43.225 -16.043   6.887  1.00  0.00     0.043 A 
HETATM    6  C   UNL     1      43.688 -17.370   6.949  1.00  0.00     0.059 A 
HETATM    7  C   UNL     1      43.142 -18.373   6.144  1.00  0.00     0.036 A 
HETATM    8  C   UNL     1      42.094 -18.046   5.283  1.00  0.00     0.030 A 
HETATM    9  C   UNL     1      41.625 -16.734   5.204  1.00  0.00     0.011 A 
HETATM   10  C   UNL     1      42.182 -15.719   5.997  1.00  0.00    -0.035 A 
HETATM   11  C   UNL     1      41.639 -14.324   5.854  1.00  0.00     0.050 C 
BRANCH   7  12
HETATM   12  N   UNL     1      43.589 -19.713   6.138  1.00  0.00    -0.327 N 
HETATM   13  C   UNL     1      44.416 -20.322   5.211  1.00  0.00     0.221 C 
HETATM   14  O   UNL     1      44.844 -19.830   4.172  1.00  0.00    -0.273 OA
HETATM   15  H   UNL     1      43.209 -20.307   6.863  1.00  0.00     0.169 HD
BRANCH  13  16
HETATM   16  C   UNL     1      44.729 -21.769   5.554  1.00  0.00     0.098 C 
HETATM   17  C   UNL     1      44.696 -22.681   4.342  1.00  0.00     0.014 C 
ENDBRANCH  13  16
ENDBRANCH   7  12
ENDBRANCH   1   5
BRANCH   2  18
HETATM   18  C   UNL     1      45.073 -12.917   8.027  1.00  0.00     0.037 A 
HETATM   19  C   UNL     1      44.122 -12.247   8.796  1.00  0.00     0.075 A 
HETATM   20  C   UNL     1      44.535 -11.126   9.496  1.00  0.00     0.165 A 
HETATM   21  N   UNL     1      45.793 -10.644   9.489  1.00  0.00    -0.237 NA
HETATM   22  C   UNL     1      46.697 -11.314   8.751  1.00  0.00     0.120 A 
HETATM   23  C   UNL     1      46.389 -12.440   8.013  1.00  0.00     0.036 A 
BRANCH  20  24
HETATM   24  O   UNL     1      43.574 -10.474  10.248  1.00  0.00    -0.329 OA
BRANCH  24  25
HETATM   25  C   UNL     1      43.835 -10.397  11.668  1.00  0.00     0.130 C 
HETATM   26  C   UNL     1      43.044 -11.366  12.588  1.00  0.00     0.032 C 
HETATM   27  C   UNL     1      42.925 -10.211  13.597  1.00  0.00     0.005 C 
HETATM   28  C   UNL     1      43.099  -9.248  12.407  1.00  0.00     0.032 C 
ENDBRANCH  24  25
ENDBRANCH  20  24
ENDBRANCH   2  18
TORSDOF 6
ENDMDL
MODEL 2
REMARK VINA RESULT:      -8.2      5.258      8.765
REMARK  6 active torsions:
REMARK  status: ('A' for Active; 'I' for Inactive)
REMARK    1  A    between atoms: C_2  and  C_3 
REMARK       I    between atoms: C_3  and  N_4 
REMARK    2  A    between atoms: N_4  and  C_5 
REMARK    3  A    between atoms: C_7  and  N_8 
REMARK       I    between atoms: N_8  and  C_9 
REMARK    4  A    between atoms: C_9  and  C_10 
REMARK    5  A    between atoms: C_12  and  O_13 
REMARK    6  A    between atoms: O_13  and  C_14 
ROOT
HETATM    1  N   UNL     1      42.261 -16.928   2.064  1.00  0.00    -0.322 N 
HETATM    2  C   UNL     1      43.265 -17.794   1.663  1.00  0.00     0.256 C 
HETATM    3  O   UNL     1      43.728 -17.860   0.529  1.00  0.00    -0.267 OA
HETATM    4  H   UNL     1      41.780 -17.116   2.928  1.00  0.00     0.169 HD
ENDROOT
BRANCH   1   5
HETATM    5  C   UNL     1      41.806 -15.795   1.339  1.00  0.00     0.043 A 
HETATM    6  C   UNL     1      40.991 -15.934   0.200  1.00  0.00     0.059 A 
HETATM    7  C   UNL     1      40.603 -14.829  -0.560  1.00  0.00     0.036 A 
HETATM    8  C   UNL     1      41.014 -13.558  -0.156  1.00  0.00     0.030 A 
HETATM    9  C   UNL     1      41.826 -13.401   0.969  1.00  0.00     0.011 A 
HETATM   10  C   UNL     1      42.234 -14.510   1.726  1.00  0.00    -0.035 A 
HETATM   11  C   UNL     1      43.119 -14.273   2.918  1.00  0.00     0.050 C 
BRANCH   7  12
HETATM   12  N   UNL     1      39.817 -14.910  -1.731  1.00  0.00    -0.327 N 
HETATM   13  C   UNL     1      40.227 -15.287  -2.998  1.00  0.00     0.221 C 
HETATM   14  O   UNL     1      41.374 -15.535  -3.356  1.00  0.00    -0.273 OA
HETATM   15  H   UNL     1      38.859 -14.599  -1.640  1.00  0.00     0.169 HD
BRANCH  13  16
HETATM   16  C   UNL     1      39.091 -15.309  -4.007  1.00  0.00     0.098 C 
HETATM   17  C   UNL     1      37.730 -15.106  -3.366  1.00  0.00     0.014 C 
ENDBRANCH  13  16
ENDBRANCH   7  12
ENDBRANCH   1   5
BRANCH   2  18
HETATM   18  C   UNL     1      43.820 -18.730   2.685  1.00  0.00     0.037 A 
HETATM   19  C   UNL     1      44.124 -18.373   3.998  1.00  0.00     0.075 A 
HETATM   20  C   UNL     1      44.667 -19.345   4.820  1.00  0.00     0.165 A 
HETATM   21  N   UNL     1      44.916 -20.614   4.439  1.00  0.00    -0.237 NA
HETATM   22  C   UNL     1      44.604 -20.940   3.171  1.00  0.00     0.120 A 
HETATM   23  C   UNL     1      44.060 -20.046   2.270  1.00  0.00     0.036 A 
BRANCH  20  24
HETATM   24  O   UNL     1      44.965 -18.968   6.117  1.00  0.00    -0.329 OA
BRANCH  24  25
HETATM   25  C   UNL     1      43.891 -18.335   6.849  1.00  0.00     0.130 C 
HETATM   26  C   UNL     1      44.000 -16.803   7.084  1.00  0.00     0.032 C 
HETATM   27  C   UNL     1      43.431 -17.044   8.493  1.00  0.00     0.005 C 
HETATM   28  C   UNL     1      43.976 -18.480   8.392  1.00  0.00     0.032 C 
ENDBRANCH  24  25
ENDBRANCH  20  24
ENDBRANCH   2  18
TORSDOF 6
ENDMDL
MODEL 3
REMARK VINA RESULT:      -7.6      4.437      7.034
REMARK  6 active torsions:
REMARK  status: ('A' for Active; 'I' for Inactive)
REMARK    1  A    between atoms: C_2  and  C_3 
REMARK       I    between atoms: C_3  and  N_4 
REMARK    2  A    between atoms: N_4  and  C_5 
REMARK    3  A    between atoms: C_7  and  N_8 
REMARK       I    between atoms: N_8  and  C_9 
REMARK    4  A    between atoms: C_9  and  C_10 
REMARK    5  A    between atoms: C_12  and  O_13 
REMARK    6  A    between atoms: O_13  and  C_14 
ROOT
HETATM    1  N   UNL     1      42.254 -15.674   4.692  1.00  0.00    -0.322 N 
HETATM    2  C   UNL     1      41.008 -15.530   5.280  1.00  0.00     0.256 C 
HETATM    3  O   UNL     1      40.459 -16.373   5.983  1.00  0.00    -0.267 OA
HETATM    4  H   UNL     1      42.508 -15.052   3.943  1.00  0.00     0.169 HD
ENDROOT
BRANCH   1   5
HETATM    5  C   UNL     1      43.218 -16.663   5.025  1.00  0.00     0.043 A 
HETATM    6  C   UNL     1      43.320 -17.860   4.293  1.00  0.00     0.059 A 
HETATM    7  C   UNL     1      44.214 -18.868   4.662  1.00  0.00     0.036 A 
HETATM    8  C   UNL     1      45.041 -18.660   5.766  1.00  0.00     0.030 A 
HETATM    9  C   UNL     1      44.951 -17.481   6.507  1.00  0.00     0.011 A 
HETATM   10  C   UNL     1      44.041 -16.472   6.151  1.00  0.00    -0.035 A 
HETATM   11  C   UNL     1      43.986 -15.232   7.000  1.00  0.00     0.050 C 
BRANCH   7  12
HETATM   12  N   UNL     1      44.335 -20.103   3.988  1.00  0.00    -0.327 N 
HETATM   13  C   UNL     1      44.153 -20.350   2.638  1.00  0.00     0.221 C 
HETATM   14  O   UNL     1      43.763 -19.552   1.791  1.00  0.00    -0.273 OA
HETATM   15  H   UNL     1      44.518 -20.908   4.573  1.00  0.00     0.169 HD
BRANCH  13  16
HETATM   16  C   UNL     1      44.420 -21.796   2.257  1.00  0.00     0.098 C 
HETATM   17  C   UNL     1      44.624 -22.694   3.464  1.00  0.00     0.014 C 
ENDBRANCH  13  16
ENDBRANCH   7  12
ENDBRANCH   1   5
BRANCH   2  18
HETATM   18  C   UNL     1      40.268 -14.259   5.029  1.00  0.00     0.037 A 
HETATM   19  C   UNL     1      39.796 -13.856   3.780  1.00  0.00     0.075 A 
HETATM   20  C   UNL     1      39.157 -12.630   3.699  1.00  0.00     0.165 A 
HETATM   21  N   UNL     1      38.956 -11.804   4.744  1.00  0.00    -0.237 NA
HETATM   22  C   UNL     1      39.408 -12.219   5.942  1.00  0.00     0.120 A 
HETATM   23  C   UNL     1      40.060 -13.421   6.132  1.00  0.00     0.036 A 
BRANCH  20  24
HETATM   24  O   UNL     1      38.702 -12.248   2.450  1.00  0.00    -0.329 OA
BRANCH  24  25
HETATM   25  C   UNL     1      38.849 -13.231   1.400  1.00  0.00     0.130 C 
HETATM   26  C   UNL     1      39.125 -12.701  -0.034  1.00  0.00     0.032 C 
HETATM   27  C   UNL     1      38.186 -13.805  -0.553  1.00  0.00     0.005 C 
HETATM   28  C   UNL     1      37.516 -13.789   0.834  1.00  0.00     0.032 C 
ENDBRANCH  24  25
ENDBRANCH  20  24
ENDBRANCH   2  18
TORSDOF 6
ENDMDL
MODEL 4
REMARK VINA RESULT:      -7.5      5.515      9.919
REMARK  6 active torsions:
REMARK  status: ('A' for Active; 'I' for Inactive)
REMARK    1  A    between atoms: C_2  and  C_3 
REMARK       I    between atoms: C_3  and  N_4 
REMARK    2  A    between atoms: N_4  and  C_5 
REMARK    3  A    between atoms: C_7  and  N_8 
REMARK       I    between atoms: N_8  and  C_9 
REMARK    4  A    between atoms: C_9  and  C_10 
REMARK    5  A    between atoms: C_12  and  O_13 
REMARK    6  A    between atoms: O_13  and  C_14 
ROOT
HETATM    1  N   UNL     1      42.649 -15.331   2.904  1.00  0.00    -0.322 N 
HETATM    2  C   UNL     1      41.326 -15.155   2.534  1.00  0.00     0.256 C 
HETATM    3  O   UNL     1      40.356 -15.570   3.161  1.00  0.00    -0.267 OA
HETATM    4  H   UNL     1      43.366 -15.181   2.215  1.00  0.00     0.169 HD
ENDROOT
BRANCH   1   5
HETATM    5  C   UNL     1      43.102 -15.750   4.183  1.00  0.00     0.043 A 
HETATM    6  C   UNL     1      43.254 -14.834   5.241  1.00  0.00     0.059 A 
HETATM    7  C   UNL     1      43.771 -15.227   6.478  1.00  0.00     0.036 A 
HETATM    8  C   UNL     1      44.113 -16.566   6.669  1.00  0.00     0.030 A 
HETATM    9  C   UNL     1      43.972 -17.488   5.630  1.00  0.00     0.011 A 
HETATM   10  C   UNL     1      43.471 -17.095   4.379  1.00  0.00    -0.035 A 
HETATM   11  C   UNL     1      43.357 -18.135   3.298  1.00  0.00     0.050 C 
BRANCH   7  12
HETATM   12  N   UNL     1      43.980 -14.347   7.563  1.00  0.00    -0.327 N 
HETATM   13  C   UNL     1      45.010 -13.439   7.727  1.00  0.00     0.221 C 
HETATM   14  O   UNL     1      45.985 -13.293   6.996  1.00  0.00    -0.273 OA
HETATM   15  H   UNL     1      43.331 -14.438   8.335  1.00  0.00     0.169 HD
BRANCH  13  16
HETATM   16  C   UNL     1      44.883 -12.619   9.000  1.00  0.00     0.098 C 
HETATM   17  C   UNL     1      45.889 -11.484   9.071  1.00  0.00     0.014 C 
ENDBRANCH  13  16
ENDBRANCH   7  12
ENDBRANCH   1   5
BRANCH   2  18
HETATM   18  C   UNL     1      41.056 -14.415   1.266  1.00  0.00     0.037 A 
HETATM   19  C   UNL     1      39.955 -14.644   0.440  1.00  0.00     0.075 A 
HETATM   20  C   UNL     1      39.859 -13.901  -0.725  1.00  0.00     0.165 A 
HETATM   21  N   UNL     1      40.753 -12.969  -1.110  1.00  0.00    -0.237 NA
HETATM   22  C   UNL     1      41.800 -12.755  -0.292  1.00  0.00     0.120 A 
HETATM   23  C   UNL     1      41.991 -13.443   0.890  1.00  0.00     0.036 A 
BRANCH  20  24
HETATM   24  O   UNL     1      38.763 -14.148  -1.532  1.00  0.00    -0.329 OA
BRANCH  24  25
HETATM   25  C   UNL     1      39.060 -14.508  -2.900  1.00  0.00     0.130 C 
HETATM   26  C   UNL     1      37.959 -15.268  -3.688  1.00  0.00     0.032 C 
HETATM   27  C   UNL     1      39.081 -16.118  -4.311  1.00  0.00     0.005 C 
HETATM   28  C   UNL     1      39.927 -15.784  -3.068  1.00  0.00     0.032 C 
ENDBRANCH  24  25
ENDBRANCH  20  24
ENDBRANCH   2  18
TORSDOF 6
ENDMDL
MODEL 5
REMARK VINA RESULT:      -7.5      5.315      9.112
REMARK  6 active torsions:
REMARK  status: ('A' for Active; 'I' for Inactive)
REMARK    1  A    between atoms: C_2  and  C_3 
REMARK       I    between atoms: C_3  and  N_4 
REMARK    2  A    between atoms: N_4  and  C_5 
REMARK    3  A    between atoms: C_7  and  N_8 
REMARK       I    between atoms: N_8  and  C_9 
REMARK    4  A    between atoms: C_9  and  C_10 
REMARK    5  A    between atoms: C_12  and  O_13 
REMARK    6  A    between atoms: O_13  and  C_14 
ROOT
HETATM    1  N   UNL     1      41.993 -15.525   3.675  1.00  0.00    -0.322 N 
HETATM    2  C   UNL     1      41.817 -16.728   4.339  1.00  0.00     0.256 C 
HETATM    3  O   UNL     1      40.743 -17.304   4.483  1.00  0.00    -0.267 OA
HETATM    4  H   UNL     1      42.847 -15.014   3.823  1.00  0.00     0.169 HD
ENDROOT
BRANCH   1   5
HETATM    5  C   UNL     1      41.047 -14.908   2.814  1.00  0.00     0.043 A 
HETATM    6  C   UNL     1      41.033 -15.175   1.433  1.00  0.00     0.059 A 
HETATM    7  C   UNL     1      40.155 -14.515   0.570  1.00  0.00     0.036 A 
HETATM    8  C   UNL     1      39.255 -13.592   1.105  1.00  0.00     0.030 A 
HETATM    9  C   UNL     1      39.258 -13.311   2.472  1.00  0.00     0.011 A 
HETATM   10  C   UNL     1      40.151 -13.958   3.341  1.00  0.00    -0.035 A 
HETATM   11  C   UNL     1      40.110 -13.600   4.801  1.00  0.00     0.050 C 
BRANCH   7  12
HETATM   12  N   UNL     1      40.118 -14.716  -0.828  1.00  0.00    -0.327 N 
HETATM   13  C   UNL     1      41.038 -14.282  -1.767  1.00  0.00     0.221 C 
HETATM   14  O   UNL     1      42.013 -13.565  -1.564  1.00  0.00    -0.273 OA
HETATM   15  H   UNL     1      39.292 -15.178  -1.185  1.00  0.00     0.169 HD
BRANCH  13  16
HETATM   16  C   UNL     1      40.701 -14.729  -3.179  1.00  0.00     0.098 C 
HETATM   17  C   UNL     1      40.174 -16.152  -3.236  1.00  0.00     0.014 C 
ENDBRANCH  13  16
ENDBRANCH   7  12
ENDBRANCH   1   5
BRANCH   2  18
HETATM   18  C   UNL     1      43.024 -17.369   4.940  1.00  0.00     0.037 A 
HETATM   19  C   UNL     1      43.571 -18.577   4.507  1.00  0.00     0.075 A 
HETATM   20  C   UNL     1      44.673 -19.065   5.188  1.00  0.00     0.165 A 
HETATM   21  N   UNL     1      45.255 -18.449   6.236  1.00  0.00    -0.237 NA
HETATM   22  C   UNL     1      44.718 -17.279   6.629  1.00  0.00     0.120 A 
HETATM   23  C   UNL     1      43.619 -16.707   6.020  1.00  0.00     0.036 A 
BRANCH  20  24
HETATM   24  O   UNL     1      45.196 -20.266   4.746  1.00  0.00    -0.329 OA
BRANCH  24  25
HETATM   25  C   UNL     1      44.378 -20.998   3.805  1.00  0.00     0.130 C 
HETATM   26  C   UNL     1      44.740 -22.489   3.561  1.00  0.00     0.032 C 
HETATM   27  C   UNL     1      44.419 -22.257   2.075  1.00  0.00     0.005 C 
HETATM   28  C   UNL     1      44.731 -20.768   2.312  1.00  0.00     0.032 C 
ENDBRANCH  24  25
ENDBRANCH  20  24
ENDBRANCH   2  18
TORSDOF 6
ENDMDL
MODEL 6
REMARK VINA RESULT:      -7.5      2.883      3.793
REMARK  6 active torsions:
REMARK  status: ('A' for Active; 'I' for Inactive)
REMARK    1  A    between atoms: C_2  and  C_3 
REMARK       I    between atoms: C_3  and  N_4 
REMARK    2  A    between atoms: N_4  and  C_5 
REMARK    3  A    between atoms: C_7  and  N_8 
REMARK       I    between atoms: N_8  and  C_9 
REMARK    4  A    between atoms: C_9  and  C_10 
REMARK    5  A    between atoms: C_12  and  O_13 
REMARK    6  A    between atoms: O_13  and  C_14 
ROOT
HETATM    1  N   UNL     1      41.074 -14.358   5.057  1.00  0.00    -0.322 N 
HETATM    2  C   UNL     1      41.934 -13.273   5.101  1.00  0.00     0.256 C 
HETATM    3  O   UNL     1      42.934 -13.136   4.402  1.00  0.00    -0.267 OA
HETATM    4  H   UNL     1      40.439 -14.500   5.824  1.00  0.00     0.169 HD
ENDROOT
BRANCH   1   5
HETATM    5  C   UNL     1      41.025 -15.334   4.027  1.00  0.00     0.043 A 
HETATM    6  C   UNL     1      41.803 -16.505   4.092  1.00  0.00     0.059 A 
HETATM    7  C   UNL     1      41.815 -17.432   3.047  1.00  0.00     0.036 A 
HETATM    8  C   UNL     1      41.012 -17.198   1.931  1.00  0.00     0.030 A 
HETATM    9  C   UNL     1      40.237 -16.040   1.847  1.00  0.00     0.011 A 
HETATM   10  C   UNL     1      40.234 -15.095   2.886  1.00  0.00    -0.035 A 
HETATM   11  C   UNL     1      39.387 -13.863   2.727  1.00  0.00     0.050 C 
BRANCH   7  12
HETATM   12  N   UNL     1      42.602 -18.606   3.041  1.00  0.00    -0.327 N 
HETATM   13  C   UNL     1      43.794 -18.819   2.371  1.00  0.00     0.221 C 
HETATM   14  O   UNL     1      44.343 -18.052   1.585  1.00  0.00    -0.273 OA
HETATM   15  H   UNL     1      42.214 -19.398   3.536  1.00  0.00     0.169 HD
BRANCH  13  16
HETATM   16  C   UNL     1      44.389 -20.191   2.638  1.00  0.00     0.098 C 
HETATM   17  C   UNL     1      43.746 -21.283   1.802  1.00  0.00     0.014 C 
ENDBRANCH  13  16
ENDBRANCH   7  12
ENDBRANCH   1   5
BRANCH   2  18
HETATM   18  C   UNL     1      41.633 -12.190   6.083  1.00  0.00     0.037 A 
HETATM   19  C   UNL     1      42.522 -11.744   7.060  1.00  0.00     0.075 A 
HETATM   20  C   UNL     1      42.085 -10.754   7.924  1.00  0.00     0.165 A 
HETATM   21  N   UNL     1      40.861 -10.191   7.881  1.00  0.00    -0.237 NA
HETATM   22  C   UNL     1      40.024 -10.628   6.923  1.00  0.00     0.120 A 
HETATM   23  C   UNL     1      40.359 -11.611   6.013  1.00  0.00     0.036 A 
BRANCH  20  24
HETATM   24  O   UNL     1      42.981 -10.329   8.888  1.00  0.00    -0.329 OA
BRANCH  24  25
HETATM   25  C   UNL     1      43.934 -11.319   9.338  1.00  0.00     0.130 C 
HETATM   26  C   UNL     1      43.758 -11.867  10.781  1.00  0.00     0.032 C 
HETATM   27  C   UNL     1      45.292 -11.840  10.909  1.00  0.00     0.005 C 
HETATM   28  C   UNL     1      45.292 -10.747   9.824  1.00  0.00     0.032 C 
ENDBRANCH  24  25
ENDBRANCH  20  24
ENDBRANCH   2  18
TORSDOF 6
ENDMDL
MODEL 7
REMARK VINA RESULT:      -7.4      3.766      4.913
REMARK  6 active torsions:
REMARK  status: ('A' for Active; 'I' for Inactive)
REMARK    1  A    between atoms: C_2  and  C_3 
REMARK       I    between atoms: C_3  and  N_4 
REMARK    2  A    between atoms: N_4  and  C_5 
REMARK    3  A    between atoms: C_7  and  N_8 
REMARK       I    between atoms: N_8  and  C_9 
REMARK    4  A    between atoms: C_9  and  C_10 
REMARK    5  A    between atoms: C_12  and  O_13 
REMARK    6  A    between atoms: O_13  and  C_14 
ROOT
HETATM    1  N   UNL     1      42.361 -15.683   4.755  1.00  0.00    -0.322 N 
HETATM    2  C   UNL     1      41.112 -15.542   5.338  1.00  0.00     0.256 C 
HETATM    3  O   UNL     1      40.536 -16.407   5.991  1.00  0.00    -0.267 OA
HETATM    4  H   UNL     1      42.636 -15.028   4.043  1.00  0.00     0.169 HD
ENDROOT
BRANCH   1   5
HETATM    5  C   UNL     1      43.299 -16.709   5.045  1.00  0.00     0.043 A 
HETATM    6  C   UNL     1      43.421 -17.842   4.220  1.00  0.00     0.059 A 
HETATM    7  C   UNL     1      44.288 -18.889   4.542  1.00  0.00     0.036 A 
HETATM    8  C   UNL     1      45.068 -18.786   5.693  1.00  0.00     0.030 A 
HETATM    9  C   UNL     1      44.958 -17.671   6.526  1.00  0.00     0.011 A 
HETATM   10  C   UNL     1      44.074 -16.624   6.218  1.00  0.00    -0.035 A 
HETATM   11  C   UNL     1      43.994 -15.458   7.164  1.00  0.00     0.050 C 
BRANCH   7  12
HETATM   12  N   UNL     1      44.426 -20.066   3.772  1.00  0.00    -0.327 N 
HETATM   13  C   UNL     1      44.527 -21.367   4.231  1.00  0.00     0.221 C 
HETATM   14  O   UNL     1      44.604 -21.731   5.401  1.00  0.00    -0.273 OA
HETATM   15  H   UNL     1      44.522 -19.931   2.774  1.00  0.00     0.169 HD
BRANCH  13  16
HETATM   16  C   UNL     1      44.611 -22.388   3.109  1.00  0.00     0.098 C 
HETATM   17  C   UNL     1      44.071 -21.861   1.792  1.00  0.00     0.014 C 
ENDBRANCH  13  16
ENDBRANCH   7  12
ENDBRANCH   1   5
BRANCH   2  18
HETATM   18  C   UNL     1      40.402 -14.243   5.147  1.00  0.00     0.037 A 
HETATM   19  C   UNL     1      40.081 -13.362   6.180  1.00  0.00     0.075 A 
HETATM   20  C   UNL     1      39.387 -12.210   5.850  1.00  0.00     0.165 A 
HETATM   21  N   UNL     1      39.007 -11.881   4.600  1.00  0.00    -0.237 NA
HETATM   22  C   UNL     1      39.339 -12.738   3.617  1.00  0.00     0.120 A 
HETATM   23  C   UNL     1      40.026 -13.915   3.838  1.00  0.00     0.036 A 
BRANCH  20  24
HETATM   24  O   UNL     1      39.074 -11.353   6.890  1.00  0.00    -0.329 OA
BRANCH  24  25
HETATM   25  C   UNL     1      39.723 -10.062   6.856  1.00  0.00     0.130 C 
HETATM   26  C   UNL     1      41.270 -10.049   6.720  1.00  0.00     0.032 C 
HETATM   27  C   UNL     1      41.284  -8.875   7.714  1.00  0.00     0.005 C 
HETATM   28  C   UNL     1      39.936  -9.399   8.243  1.00  0.00     0.032 C 
ENDBRANCH  24  25
ENDBRANCH  20  24
ENDBRANCH   2  18
TORSDOF 6
ENDMDL
MODEL 8
REMARK VINA RESULT:      -7.4      5.822      9.135
REMARK  6 active torsions:
REMARK  status: ('A' for Active; 'I' for Inactive)
REMARK    1  A    between atoms: C_2  and  C_3 
REMARK       I    between atoms: C_3  and  N_4 
REMARK    2  A    between atoms: N_4  and  C_5 
REMARK    3  A    between atoms: C_7  and  N_8 
REMARK       I    between atoms: N_8  and  C_9 
REMARK    4  A    between atoms: C_9  and  C_10 
REMARK    5  A    between atoms: C_12  and  O_13 
REMARK    6  A    between atoms: O_13  and  C_14 
ROOT
HETATM    1  N   UNL     1      41.320 -14.835   2.329  1.00  0.00    -0.322 N 
HETATM    2  C   UNL     1      42.139 -13.800   1.909  1.00  0.00     0.256 C 
HETATM    3  O   UNL     1      43.118 -13.382   2.520  1.00  0.00    -0.267 OA
HETATM    4  H   UNL     1      40.416 -14.938   1.901  1.00  0.00     0.169 HD
ENDROOT
BRANCH   1   5
HETATM    5  C   UNL     1      41.624 -15.766   3.357  1.00  0.00     0.043 A 
HETATM    6  C   UNL     1      42.494 -16.849   3.130  1.00  0.00     0.059 A 
HETATM    7  C   UNL     1      42.738 -17.809   4.115  1.00  0.00     0.036 A 
HETATM    8  C   UNL     1      42.122 -17.667   5.358  1.00  0.00     0.030 A 
HETATM    9  C   UNL     1      41.252 -16.603   5.601  1.00  0.00     0.011 A 
HETATM   10  C   UNL     1      40.989 -15.645   4.609  1.00  0.00    -0.035 A 
HETATM   11  C   UNL     1      40.032 -14.530   4.931  1.00  0.00     0.050 C 
BRANCH   7  12
HETATM   12  N   UNL     1      43.572 -18.935   3.933  1.00  0.00    -0.327 N 
HETATM   13  C   UNL     1      43.624 -19.779   2.837  1.00  0.00     0.221 C 
HETATM   14  O   UNL     1      42.888 -19.755   1.855  1.00  0.00    -0.273 OA
HETATM   15  H   UNL     1      44.154 -19.183   4.722  1.00  0.00     0.169 HD
BRANCH  13  16
HETATM   16  C   UNL     1      44.685 -20.858   2.969  1.00  0.00     0.098 C 
HETATM   17  C   UNL     1      44.479 -22.006   1.996  1.00  0.00     0.014 C 
ENDBRANCH  13  16
ENDBRANCH   7  12
ENDBRANCH   1   5
BRANCH   2  18
HETATM   18  C   UNL     1      41.798 -13.128   0.620  1.00  0.00     0.037 A 
HETATM   19  C   UNL     1      41.431 -13.801  -0.545  1.00  0.00     0.075 A 
HETATM   20  C   UNL     1      41.178 -13.041  -1.674  1.00  0.00     0.165 A 
HETATM   21  N   UNL     1      41.259 -11.696  -1.722  1.00  0.00    -0.237 NA
HETATM   22  C   UNL     1      41.603 -11.067  -0.583  1.00  0.00     0.120 A 
HETATM   23  C   UNL     1      41.878 -11.730   0.597  1.00  0.00     0.036 A 
BRANCH  20  24
HETATM   24  O   UNL     1      40.820 -13.728  -2.820  1.00  0.00    -0.329 OA
BRANCH  24  25
HETATM   25  C   UNL     1      39.688 -14.618  -2.690  1.00  0.00     0.130 C 
HETATM   26  C   UNL     1      39.418 -15.598  -3.864  1.00  0.00     0.032 C 
HETATM   27  C   UNL     1      37.917 -15.333  -3.656  1.00  0.00     0.005 C 
HETATM   28  C   UNL     1      38.314 -13.982  -3.032  1.00  0.00     0.032 C 
ENDBRANCH  24  25
ENDBRANCH  20  24
ENDBRANCH   2  18
TORSDOF 6
ENDMDL
MODEL 9
REMARK VINA RESULT:      -7.3      5.293      9.482
REMARK  6 active torsions:
REMARK  status: ('A' for Active; 'I' for Inactive)
REMARK    1  A    between atoms: C_2  and  C_3 
REMARK       I    between atoms: C_3  and  N_4 
REMARK    2  A    between atoms: N_4  and  C_5 
REMARK    3  A    between atoms: C_7  and  N_8 
REMARK       I    between atoms: N_8  and  C_9 
REMARK    4  A    between atoms: C_9  and  C_10 
REMARK    5  A    between atoms: C_12  and  O_13 
REMARK    6  A    between atoms: O_13  and  C_14 
ROOT
HETATM    1  N   UNL     1      42.274 -14.928   4.297  1.00  0.00    -0.322 N 
HETATM    2  C   UNL     1      42.143 -16.274   3.998  1.00  0.00     0.256 C 
HETATM    3  O   UNL     1      41.302 -16.751   3.242  1.00  0.00    -0.267 OA
HETATM    4  H   UNL     1      42.815 -14.664   5.103  1.00  0.00     0.169 HD
ENDROOT
BRANCH   1   5
HETATM    5  C   UNL     1      41.675 -13.859   3.580  1.00  0.00     0.043 A 
HETATM    6  C   UNL     1      42.297 -13.295   2.451  1.00  0.00     0.059 A 
HETATM    7  C   UNL     1      41.749 -12.195   1.788  1.00  0.00     0.036 A 
HETATM    8  C   UNL     1      40.541 -11.668   2.246  1.00  0.00     0.030 A 
HETATM    9  C   UNL     1      39.912 -12.210   3.367  1.00  0.00     0.011 A 
HETATM   10  C   UNL     1      40.468 -13.305   4.049  1.00  0.00    -0.035 A 
HETATM   11  C   UNL     1      39.745 -13.833   5.257  1.00  0.00     0.050 C 
BRANCH   7  12
HETATM   12  N   UNL     1      42.346 -11.566   0.672  1.00  0.00    -0.327 N 
HETATM   13  C   UNL     1      42.299 -11.971  -0.650  1.00  0.00     0.221 C 
HETATM   14  O   UNL     1      41.800 -13.004  -1.085  1.00  0.00    -0.273 OA
HETATM   15  H   UNL     1      42.923 -10.761   0.878  1.00  0.00     0.169 HD
BRANCH  13  16
HETATM   16  C   UNL     1      43.015 -11.016  -1.590  1.00  0.00     0.098 C 
HETATM   17  C   UNL     1      43.537  -9.777  -0.884  1.00  0.00     0.014 C 
ENDBRANCH  13  16
ENDBRANCH   7  12
ENDBRANCH   1   5
BRANCH   2  18
HETATM   18  C   UNL     1      43.087 -17.224   4.657  1.00  0.00     0.037 A 
HETATM   19  C   UNL     1      43.249 -18.559   4.286  1.00  0.00     0.075 A 
HETATM   20  C   UNL     1      44.139 -19.327   5.016  1.00  0.00     0.165 A 
HETATM   21  N   UNL     1      44.863 -18.871   6.058  1.00  0.00    -0.237 NA
HETATM   22  C   UNL     1      44.701 -17.577   6.391  1.00  0.00     0.120 A 
HETATM   23  C   UNL     1      43.838 -16.726   5.730  1.00  0.00     0.036 A 
BRANCH  20  24
HETATM   24  O   UNL     1      44.280 -20.649   4.634  1.00  0.00    -0.329 OA
BRANCH  24  25
HETATM   25  C   UNL     1      44.654 -20.866   3.255  1.00  0.00     0.130 C 
HETATM   26  C   UNL     1      43.559 -20.633   2.178  1.00  0.00     0.032 C 
HETATM   27  C   UNL     1      44.112 -21.866   1.441  1.00  0.00     0.005 C 
HETATM   28  C   UNL     1      44.649 -22.350   2.801  1.00  0.00     0.032 C 
ENDBRANCH  24  25
ENDBRANCH  20  24
ENDBRANCH   2  18
TORSDOF 6
ENDMDL
MODEL 10
REMARK VINA RESULT:      -7.3      3.083      9.505
REMARK  6 active torsions:
REMARK  status: ('A' for Active; 'I' for Inactive)
REMARK    1  A    between atoms: C_2  and  C_3 
REMARK       I    between atoms: C_3  and  N_4 
REMARK    2  A    between atoms: N_4  and  C_5 
REMARK    3  A    between atoms: C_7  and  N_8 
REMARK       I    between atoms: N_8  and  C_9 
REMARK    4  A    between atoms: C_9  and  C_10 
REMARK    5  A    between atoms: C_12  and  O_13 
REMARK    6  A    between atoms: O_13  and  C_14 
ROOT
HETATM    1  N   UNL     1      41.462 -13.162   4.349  1.00  0.00    -0.322 N 
HETATM    2  C   UNL     1      42.566 -13.856   3.883  1.00  0.00     0.256 C 
HETATM    3  O   UNL     1      43.718 -13.431   3.886  1.00  0.00    -0.267 OA
HETATM    4  H   UNL     1      40.545 -13.480   4.081  1.00  0.00     0.169 HD
ENDROOT
BRANCH   1   5
HETATM    5  C   UNL     1      41.496 -11.996   5.158  1.00  0.00     0.043 A 
HETATM    6  C   UNL     1      41.780 -12.068   6.534  1.00  0.00     0.059 A 
HETATM    7  C   UNL     1      41.742 -10.934   7.349  1.00  0.00     0.036 A 
HETATM    8  C   UNL     1      41.442  -9.701   6.770  1.00  0.00     0.030 A 
HETATM    9  C   UNL     1      41.153  -9.610   5.407  1.00  0.00     0.011 A 
HETATM   10  C   UNL     1      41.173 -10.750   4.587  1.00  0.00    -0.035 A 
HETATM   11  C   UNL     1      40.839 -10.584   3.130  1.00  0.00     0.050 C 
BRANCH   7  12
HETATM   12  N   UNL     1      41.983 -10.952   8.741  1.00  0.00    -0.327 N 
HETATM   13  C   UNL     1      43.207 -10.979   9.385  1.00  0.00     0.221 C 
HETATM   14  O   UNL     1      44.312 -11.081   8.861  1.00  0.00    -0.273 OA
HETATM   15  H   UNL     1      41.162 -11.012   9.329  1.00  0.00     0.169 HD
BRANCH  13  16
HETATM   16  C   UNL     1      43.083 -10.937  10.899  1.00  0.00     0.098 C 
HETATM   17  C   UNL     1      43.895 -12.020  11.586  1.00  0.00     0.014 C 
ENDBRANCH  13  16
ENDBRANCH   7  12
ENDBRANCH   1   5
BRANCH   2  18
HETATM   18  C   UNL     1      42.341 -15.220   3.321  1.00  0.00     0.037 A 
HETATM   19  C   UNL     1      43.346 -16.165   3.122  1.00  0.00     0.075 A 
HETATM   20  C   UNL     1      42.987 -17.377   2.557  1.00  0.00     0.165 A 
HETATM   21  N   UNL     1      41.732 -17.705   2.192  1.00  0.00    -0.237 NA
HETATM   22  C   UNL     1      40.775 -16.783   2.404  1.00  0.00     0.120 A 
HETATM   23  C   UNL     1      41.027 -15.543   2.959  1.00  0.00     0.036 A 
BRANCH  20  24
HETATM   24  O   UNL     1      44.000 -18.299   2.364  1.00  0.00    -0.329 OA
BRANCH  24  25
HETATM   25  C   UNL     1      43.744 -19.628   2.871  1.00  0.00     0.130 C 
HETATM   26  C   UNL     1      44.954 -20.412   3.449  1.00  0.00     0.032 C 
HETATM   27  C   UNL     1      44.371 -21.673   2.787  1.00  0.00     0.005 C 
HETATM   28  C   UNL     1      43.666 -20.737   1.788  1.00  0.00     0.032 C 
ENDBRANCH  24  25
ENDBRANCH  20  24
ENDBRANCH   2  18
TORSDOF 6
ENDMDL
