MODEL 1
REMARK VINA RESULT:      -8.2      0.000      0.000
REMARK  4 active torsions:
REMARK  status: ('A' for Active; 'I' for Inactive)
REMARK    1  A    between atoms: C_9  and  C_10 
REMARK       I    between atoms: C_10  and  N_11 
REMARK    2  A    between atoms: N_11  and  C_12 
REMARK    3  A    between atoms: C_15  and  N_16 
REMARK       I    between atoms: N_16  and  C_17 
REMARK       I    between atoms: C_17  and  N_18 
REMARK    4  A    between atoms: N_18  and  C_19 
ROOT
HETATM    1  C   UNL     1      42.028 -15.423   0.852  1.00  0.00     0.035 A 
HETATM    2  C   UNL     1      41.791 -14.056   0.719  1.00  0.00     0.032 A 
HETATM    3  C   UNL     1      41.088 -13.558  -0.385  1.00  0.00     0.032 A 
HETATM    4  C   UNL     1      40.611 -14.417  -1.374  1.00  0.00     0.036 A 
HETATM    5  C   UNL     1      40.911 -15.780  -1.278  1.00  0.00     0.032 A 
HETATM    6  C   UNL     1      41.608 -16.279  -0.170  1.00  0.00     0.032 A 
ENDROOT
BRANCH   1   7
HETATM    7  N   UNL     1      42.615 -16.008   1.986  1.00  0.00    -0.322 N 
HETATM    8  C   UNL     1      41.982 -16.523   3.103  1.00  0.00     0.277 C 
HETATM    9  O   UNL     1      40.796 -16.400   3.388  1.00  0.00    -0.266 OA
HETATM   10  H   UNL     1      43.613 -16.200   1.967  1.00  0.00     0.169 HD
BRANCH   8  11
HETATM   11  C   UNL     1      42.909 -17.307   3.941  1.00  0.00     0.157 A 
HETATM   12  C   UNL     1      43.453 -18.592   3.649  1.00  0.00     0.029 A 
HETATM   13  C   UNL     1      43.331 -19.532   2.607  1.00  0.00     0.023 A 
HETATM   14  C   UNL     1      44.317 -18.867   4.702  1.00  0.00     0.063 A 
HETATM   15  C   UNL     1      44.081 -20.719   2.652  1.00  0.00    -0.061 A 
HETATM   16  C   UNL     1      43.978 -21.724   1.542  1.00  0.00     0.048 C 
HETATM   17  C   UNL     1      44.945 -20.954   3.729  1.00  0.00     0.009 A 
HETATM   18  C   UNL     1      45.079 -20.035   4.778  1.00  0.00     0.032 A 
HETATM   19  N   UNL     1      44.225 -17.787   5.535  1.00  0.00    -0.277 N 
HETATM   20  H   UNL     1      44.719 -17.645   6.408  1.00  0.00     0.189 HD
HETATM   21  N   UNL     1      43.393 -16.819   5.106  1.00  0.00    -0.168 NA
ENDBRANCH   8  11
ENDBRANCH   1   7
BRANCH   4  22
HETATM   22  N   UNL     1      39.825 -13.993  -2.465  1.00  0.00    -0.309 N 
HETATM   23  C   UNL     1      38.469 -13.724  -2.444  1.00  0.00     0.321 C 
HETATM   24  N   UNL     1      38.023 -13.352  -3.704  1.00  0.00    -0.338 N 
HETATM   25  O   UNL     1      37.718 -13.832  -1.482  1.00  0.00    -0.247 OA
HETATM   26  H   UNL     1      38.704 -12.914  -4.307  1.00  0.00     0.164 HD
HETATM   27  H   UNL     1      40.221 -14.130  -3.382  1.00  0.00     0.170 HD
BRANCH  24  28
HETATM   28  C   UNL     1      36.640 -13.097  -3.978  1.00  0.00     0.086 A 
HETATM   29  C   UNL     1      36.205 -12.513  -5.293  1.00  0.00     0.027 A 
HETATM   30  C   UNL     1      35.907 -13.950  -4.979  1.00  0.00     0.027 A 
ENDBRANCH  24  28
ENDBRANCH   4  22
TORSDOF 4
ENDMDL
MODEL 2
REMARK VINA RESULT:      -8.0      2.629      2.952
REMARK  4 active torsions:
REMARK  status: ('A' for Active; 'I' for Inactive)
REMARK    1  A    between atoms: C_9  and  C_10 
REMARK       I    between atoms: C_10  and  N_11 
REMARK    2  A    between atoms: N_11  and  C_12 
REMARK    3  A    between atoms: C_15  and  N_16 
REMARK       I    between atoms: N_16  and  C_17 
REMARK       I    between atoms: C_17  and  N_18 
REMARK    4  A    between atoms: N_18  and  C_19 
ROOT
HETATM    1  C   UNL     1      42.251 -15.305   1.640  1.00  0.00     0.035 A 
HETATM    2  C   UNL     1      41.724 -15.858   0.474  1.00  0.00     0.032 A 
HETATM    3  C   UNL     1      41.342 -15.038  -0.595  1.00  0.00     0.032 A 
HETATM    4  C   UNL     1      41.479 -13.653  -0.516  1.00  0.00     0.036 A 
HETATM    5  C   UNL     1      41.940 -13.093   0.680  1.00  0.00     0.032 A 
HETATM    6  C   UNL     1      42.329 -13.913   1.747  1.00  0.00     0.032 A 
ENDROOT
BRANCH   1   7
HETATM    7  N   UNL     1      42.768 -16.065   2.701  1.00  0.00    -0.322 N 
HETATM    8  C   UNL     1      42.069 -16.756   3.674  1.00  0.00     0.277 C 
HETATM    9  O   UNL     1      40.865 -16.683   3.894  1.00  0.00    -0.266 OA
HETATM   10  H   UNL     1      43.768 -16.250   2.719  1.00  0.00     0.169 HD
BRANCH   8  11
HETATM   11  C   UNL     1      42.947 -17.664   4.436  1.00  0.00     0.157 A 
HETATM   12  C   UNL     1      43.482 -18.911   3.997  1.00  0.00     0.029 A 
HETATM   13  C   UNL     1      43.388 -19.702   2.834  1.00  0.00     0.023 A 
HETATM   14  C   UNL     1      44.298 -19.341   5.036  1.00  0.00     0.063 A 
HETATM   15  C   UNL     1      44.115 -20.900   2.750  1.00  0.00    -0.061 A 
HETATM   16  C   UNL     1      44.041 -21.747   1.513  1.00  0.00     0.048 C 
HETATM   17  C   UNL     1      44.931 -21.294   3.818  1.00  0.00     0.009 A 
HETATM   18  C   UNL     1      45.037 -20.526   4.985  1.00  0.00     0.032 A 
HETATM   19  N   UNL     1      44.189 -18.379   6.001  1.00  0.00    -0.277 N 
HETATM   20  H   UNL     1      44.649 -18.365   6.903  1.00  0.00     0.189 HD
HETATM   21  N   UNL     1      43.392 -17.345   5.674  1.00  0.00    -0.168 NA
ENDBRANCH   8  11
ENDBRANCH   1   7
BRANCH   4  22
HETATM   22  N   UNL     1      41.194 -12.778  -1.584  1.00  0.00    -0.309 N 
HETATM   23  C   UNL     1      42.009 -12.515  -2.670  1.00  0.00     0.321 C 
HETATM   24  N   UNL     1      41.418 -11.585  -3.513  1.00  0.00    -0.338 N 
HETATM   25  O   UNL     1      43.124 -12.978  -2.874  1.00  0.00    -0.247 OA
HETATM   26  H   UNL     1      40.409 -11.558  -3.510  1.00  0.00     0.164 HD
HETATM   27  H   UNL     1      40.456 -12.108  -1.430  1.00  0.00     0.170 HD
BRANCH  24  28
HETATM   28  C   UNL     1      42.087 -11.074  -4.672  1.00  0.00     0.086 A 
HETATM   29  C   UNL     1      41.369 -10.198  -5.660  1.00  0.00     0.027 A 
HETATM   30  C   UNL     1      42.414  -9.608  -4.760  1.00  0.00     0.027 A 
ENDBRANCH  24  28
ENDBRANCH   4  22
TORSDOF 4
ENDMDL
MODEL 3
REMARK VINA RESULT:      -7.9      2.301      2.633
REMARK  4 active torsions:
REMARK  status: ('A' for Active; 'I' for Inactive)
REMARK    1  A    between atoms: C_9  and  C_10 
REMARK       I    between atoms: C_10  and  N_11 
REMARK    2  A    between atoms: N_11  and  C_12 
REMARK    3  A    between atoms: C_15  and  N_16 
REMARK       I    between atoms: N_16  and  C_17 
REMARK       I    between atoms: C_17  and  N_18 
REMARK    4  A    between atoms: N_18  and  C_19 
ROOT
HETATM    1  C   UNL     1      40.907 -15.197   0.031  1.00  0.00     0.035 A 
HETATM    2  C   UNL     1      41.292 -15.547  -1.262  1.00  0.00     0.032 A 
HETATM    3  C   UNL     1      40.845 -14.809  -2.364  1.00  0.00     0.032 A 
HETATM    4  C   UNL     1      40.005 -13.709  -2.192  1.00  0.00     0.036 A 
HETATM    5  C   UNL     1      39.561 -13.401  -0.902  1.00  0.00     0.032 A 
HETATM    6  C   UNL     1      40.013 -14.135   0.201  1.00  0.00     0.032 A 
ENDROOT
BRANCH   1   7
HETATM    7  N   UNL     1      41.410 -15.811   1.190  1.00  0.00    -0.322 N 
HETATM    8  C   UNL     1      41.273 -17.130   1.583  1.00  0.00     0.277 C 
HETATM    9  O   UNL     1      40.533 -17.966   1.078  1.00  0.00    -0.266 OA
HETATM   10  H   UNL     1      42.056 -15.284   1.773  1.00  0.00     0.169 HD
BRANCH   8  11
HETATM   11  C   UNL     1      42.178 -17.463   2.700  1.00  0.00     0.157 A 
HETATM   12  C   UNL     1      42.980 -18.634   2.836  1.00  0.00     0.029 A 
HETATM   13  C   UNL     1      43.194 -19.810   2.089  1.00  0.00     0.023 A 
HETATM   14  C   UNL     1      43.700 -18.445   4.009  1.00  0.00     0.063 A 
HETATM   15  C   UNL     1      44.124 -20.759   2.541  1.00  0.00    -0.061 A 
HETATM   16  C   UNL     1      44.377 -22.009   1.750  1.00  0.00     0.048 C 
HETATM   17  C   UNL     1      44.833 -20.527   3.727  1.00  0.00     0.009 A 
HETATM   18  C   UNL     1      44.634 -19.367   4.487  1.00  0.00     0.032 A 
HETATM   19  N   UNL     1      43.287 -17.236   4.495  1.00  0.00    -0.277 N 
HETATM   20  H   UNL     1      43.603 -16.777   5.341  1.00  0.00     0.189 HD
HETATM   21  N   UNL     1      42.377 -16.606   3.728  1.00  0.00    -0.168 NA
ENDBRANCH   8  11
ENDBRANCH   1   7
BRANCH   4  22
HETATM   22  N   UNL     1      39.587 -12.873  -3.248  1.00  0.00    -0.309 N 
HETATM   23  C   UNL     1      40.370 -11.960  -3.932  1.00  0.00     0.321 C 
HETATM   24  N   UNL     1      39.622 -11.296  -4.893  1.00  0.00    -0.338 N 
HETATM   25  O   UNL     1      41.549 -11.707  -3.719  1.00  0.00    -0.247 OA
HETATM   26  H   UNL     1      38.833 -11.799  -5.271  1.00  0.00     0.164 HD
HETATM   27  H   UNL     1      38.592 -12.749  -3.354  1.00  0.00     0.170 HD
BRANCH  24  28
HETATM   28  C   UNL     1      40.171 -10.238  -5.687  1.00  0.00     0.086 A 
HETATM   29  C   UNL     1      39.617  -9.922  -7.048  1.00  0.00     0.027 A 
HETATM   30  C   UNL     1      39.377  -8.978  -5.906  1.00  0.00     0.027 A 
ENDBRANCH  24  28
ENDBRANCH   4  22
TORSDOF 4
ENDMDL
MODEL 4
REMARK VINA RESULT:      -7.7      2.495      2.761
REMARK  4 active torsions:
REMARK  status: ('A' for Active; 'I' for Inactive)
REMARK    1  A    between atoms: C_9  and  C_10 
REMARK       I    between atoms: C_10  and  N_11 
REMARK    2  A    between atoms: N_11  and  C_12 
REMARK    3  A    between atoms: C_15  and  N_16 
REMARK       I    between atoms: N_16  and  C_17 
REMARK       I    between atoms: C_17  and  N_18 
REMARK    4  A    between atoms: N_18  and  C_19 
ROOT
HETATM    1  C   UNL     1      41.272 -16.288   1.861  1.00  0.00     0.035 A 
HETATM    2  C   UNL     1      41.545 -15.755   0.602  1.00  0.00     0.032 A 
HETATM    3  C   UNL     1      40.632 -14.897  -0.023  1.00  0.00     0.032 A 
HETATM    4  C   UNL     1      39.431 -14.559   0.599  1.00  0.00     0.036 A 
HETATM    5  C   UNL     1      39.124 -15.150   1.829  1.00  0.00     0.032 A 
HETATM    6  C   UNL     1      40.040 -16.002   2.458  1.00  0.00     0.032 A 
ENDROOT
BRANCH   1   7
HETATM    7  N   UNL     1      42.188 -17.053   2.601  1.00  0.00    -0.322 N 
HETATM    8  C   UNL     1      43.151 -16.606   3.487  1.00  0.00     0.277 C 
HETATM    9  O   UNL     1      43.503 -15.444   3.653  1.00  0.00    -0.266 OA
HETATM   10  H   UNL     1      42.081 -18.065   2.603  1.00  0.00     0.169 HD
BRANCH   8  11
HETATM   11  C   UNL     1      43.717 -17.713   4.282  1.00  0.00     0.157 A 
HETATM   12  C   UNL     1      43.962 -19.047   3.844  1.00  0.00     0.029 A 
HETATM   13  C   UNL     1      43.768 -19.776   2.654  1.00  0.00     0.023 A 
HETATM   14  C   UNL     1      44.563 -19.678   4.926  1.00  0.00     0.063 A 
HETATM   15  C   UNL     1      44.183 -21.116   2.585  1.00  0.00    -0.061 A 
HETATM   16  C   UNL     1      44.001 -21.903   1.321  1.00  0.00     0.048 C 
HETATM   17  C   UNL     1      44.790 -21.713   3.698  1.00  0.00     0.009 A 
HETATM   18  C   UNL     1      44.989 -21.008   4.892  1.00  0.00     0.032 A 
HETATM   19  N   UNL     1      44.617 -18.732   5.911  1.00  0.00    -0.277 N 
HETATM   20  H   UNL     1      44.995 -18.843   6.844  1.00  0.00     0.189 HD
HETATM   21  N   UNL     1      44.127 -17.528   5.559  1.00  0.00    -0.168 NA
ENDBRANCH   8  11
ENDBRANCH   1   7
BRANCH   4  22
HETATM   22  N   UNL     1      38.507 -13.637   0.065  1.00  0.00    -0.309 N 
HETATM   23  C   UNL     1      37.933 -12.570   0.732  1.00  0.00     0.321 C 
HETATM   24  N   UNL     1      37.053 -11.890  -0.098  1.00  0.00    -0.338 N 
HETATM   25  O   UNL     1      38.110 -12.262   1.904  1.00  0.00    -0.247 OA
HETATM   26  H   UNL     1      37.248 -11.933  -1.087  1.00  0.00     0.164 HD
HETATM   27  H   UNL     1      38.041 -13.912  -0.786  1.00  0.00     0.170 HD
BRANCH  24  28
HETATM   28  C   UNL     1      36.261 -10.792   0.370  1.00  0.00     0.086 A 
HETATM   29  C   UNL     1      35.303 -10.081  -0.544  1.00  0.00     0.027 A 
HETATM   30  C   UNL     1      34.776 -10.963   0.549  1.00  0.00     0.027 A 
ENDBRANCH  24  28
ENDBRANCH   4  22
TORSDOF 4
ENDMDL
MODEL 5
REMARK VINA RESULT:      -7.7      2.352      3.166
REMARK  4 active torsions:
REMARK  status: ('A' for Active; 'I' for Inactive)
REMARK    1  A    between atoms: C_9  and  C_10 
REMARK       I    between atoms: C_10  and  N_11 
REMARK    2  A    between atoms: N_11  and  C_12 
REMARK    3  A    between atoms: C_15  and  N_16 
REMARK       I    between atoms: N_16  and  C_17 
REMARK       I    between atoms: C_17  and  N_18 
REMARK    4  A    between atoms: N_18  and  C_19 
ROOT
HETATM    1  C   UNL     1      41.372 -16.809   1.295  1.00  0.00     0.035 A 
HETATM    2  C   UNL     1      41.631 -16.274   0.034  1.00  0.00     0.032 A 
HETATM    3  C   UNL     1      40.907 -15.172  -0.436  1.00  0.00     0.032 A 
HETATM    4  C   UNL     1      39.912 -14.586   0.346  1.00  0.00     0.036 A 
HETATM    5  C   UNL     1      39.603 -15.166   1.580  1.00  0.00     0.032 A 
HETATM    6  C   UNL     1      40.332 -16.265   2.053  1.00  0.00     0.032 A 
ENDROOT
BRANCH   1   7
HETATM    7  N   UNL     1      42.136 -17.831   1.882  1.00  0.00    -0.322 N 
HETATM    8  C   UNL     1      43.513 -17.936   1.946  1.00  0.00     0.277 C 
HETATM    9  O   UNL     1      44.324 -17.244   1.340  1.00  0.00    -0.266 OA
HETATM   10  H   UNL     1      41.655 -18.532   2.441  1.00  0.00     0.169 HD
BRANCH   8  11
HETATM   11  C   UNL     1      43.937 -18.988   2.889  1.00  0.00     0.157 A 
HETATM   12  C   UNL     1      43.816 -18.969   4.309  1.00  0.00     0.029 A 
HETATM   13  C   UNL     1      43.340 -18.059   5.274  1.00  0.00     0.023 A 
HETATM   14  C   UNL     1      44.286 -20.207   4.729  1.00  0.00     0.063 A 
HETATM   15  C   UNL     1      43.350 -18.419   6.631  1.00  0.00    -0.061 A 
HETATM   16  C   UNL     1      42.831 -17.470   7.672  1.00  0.00     0.048 C 
HETATM   17  C   UNL     1      43.827 -19.680   7.012  1.00  0.00     0.009 A 
HETATM   18  C   UNL     1      44.308 -20.599   6.070  1.00  0.00     0.032 A 
HETATM   19  N   UNL     1      44.665 -20.855   3.587  1.00  0.00    -0.277 N 
HETATM   20  H   UNL     1      45.057 -21.786   3.515  1.00  0.00     0.189 HD
HETATM   21  N   UNL     1      44.460 -20.158   2.453  1.00  0.00    -0.168 NA
ENDBRANCH   8  11
ENDBRANCH   1   7
BRANCH   4  22
HETATM   22  N   UNL     1      39.205 -13.426  -0.031  1.00  0.00    -0.309 N 
HETATM   23  C   UNL     1      38.268 -13.328  -1.043  1.00  0.00     0.321 C 
HETATM   24  N   UNL     1      37.793 -12.028  -1.147  1.00  0.00    -0.338 N 
HETATM   25  O   UNL     1      37.914 -14.224  -1.798  1.00  0.00    -0.247 OA
HETATM   26  H   UNL     1      37.810 -11.478  -0.302  1.00  0.00     0.164 HD
HETATM   27  H   UNL     1      39.581 -12.548   0.292  1.00  0.00     0.170 HD
BRANCH  24  28
HETATM   28  C   UNL     1      36.872 -11.634  -2.171  1.00  0.00     0.086 A 
HETATM   29  C   UNL     1      35.620 -10.872  -1.838  1.00  0.00     0.027 A 
HETATM   30  C   UNL     1      36.748 -10.182  -2.547  1.00  0.00     0.027 A 
ENDBRANCH  24  28
ENDBRANCH   4  22
TORSDOF 4
ENDMDL
MODEL 6
REMARK VINA RESULT:      -7.7      1.987      3.039
REMARK  4 active torsions:
REMARK  status: ('A' for Active; 'I' for Inactive)
REMARK    1  A    between atoms: C_9  and  C_10 
REMARK       I    between atoms: C_10  and  N_11 
REMARK    2  A    between atoms: N_11  and  C_12 
REMARK    3  A    between atoms: C_15  and  N_16 
REMARK       I    between atoms: N_16  and  C_17 
REMARK       I    between atoms: C_17  and  N_18 
REMARK    4  A    between atoms: N_18  and  C_19 
ROOT
HETATM    1  C   UNL     1      40.985 -15.205  -1.128  1.00  0.00     0.035 A 
HETATM    2  C   UNL     1      40.004 -14.346  -0.635  1.00  0.00     0.032 A 
HETATM    3  C   UNL     1      39.104 -13.718  -1.504  1.00  0.00     0.032 A 
HETATM    4  C   UNL     1      39.169 -13.937  -2.879  1.00  0.00     0.036 A 
HETATM    5  C   UNL     1      40.198 -14.741  -3.381  1.00  0.00     0.032 A 
HETATM    6  C   UNL     1      41.094 -15.375  -2.511  1.00  0.00     0.032 A 
ENDROOT
BRANCH   1   7
HETATM    7  N   UNL     1      41.842 -15.963  -0.313  1.00  0.00    -0.322 N 
HETATM    8  C   UNL     1      42.326 -15.645   0.943  1.00  0.00     0.277 C 
HETATM    9  O   UNL     1      42.239 -14.557   1.501  1.00  0.00    -0.266 OA
HETATM   10  H   UNL     1      42.056 -16.916  -0.595  1.00  0.00     0.169 HD
BRANCH   8  11
HETATM   11  C   UNL     1      42.955 -16.809   1.596  1.00  0.00     0.157 A 
HETATM   12  C   UNL     1      42.807 -17.214   2.955  1.00  0.00     0.029 A 
HETATM   13  C   UNL     1      42.126 -16.731   4.090  1.00  0.00     0.023 A 
HETATM   14  C   UNL     1      43.530 -18.396   3.060  1.00  0.00     0.063 A 
HETATM   15  C   UNL     1      42.191 -17.448   5.295  1.00  0.00    -0.061 A 
HETATM   16  C   UNL     1      41.457 -16.958   6.509  1.00  0.00     0.048 C 
HETATM   17  C   UNL     1      42.927 -18.638   5.357  1.00  0.00     0.009 A 
HETATM   18  C   UNL     1      43.615 -19.135   4.242  1.00  0.00     0.032 A 
HETATM   19  N   UNL     1      44.063 -18.604   1.819  1.00  0.00    -0.277 N 
HETATM   20  H   UNL     1      44.651 -19.376   1.528  1.00  0.00     0.189 HD
HETATM   21  N   UNL     1      43.730 -17.675   0.903  1.00  0.00    -0.168 NA
ENDBRANCH   8  11
ENDBRANCH   1   7
BRANCH   4  22
HETATM   22  N   UNL     1      38.243 -13.405  -3.799  1.00  0.00    -0.309 N 
HETATM   23  C   UNL     1      37.085 -14.015  -4.245  1.00  0.00     0.321 C 
HETATM   24  N   UNL     1      36.429 -13.210  -5.165  1.00  0.00    -0.338 N 
HETATM   25  O   UNL     1      36.682 -15.129  -3.935  1.00  0.00    -0.247 OA
HETATM   26  H   UNL     1      36.576 -12.216  -5.073  1.00  0.00     0.164 HD
HETATM   27  H   UNL     1      38.565 -12.632  -4.363  1.00  0.00     0.170 HD
BRANCH  24  28
HETATM   28  C   UNL     1      35.244 -13.641  -5.845  1.00  0.00     0.086 A 
HETATM   29  C   UNL     1      34.488 -12.710  -6.751  1.00  0.00     0.027 A 
HETATM   30  C   UNL     1      35.271 -13.849  -7.335  1.00  0.00     0.027 A 
ENDBRANCH  24  28
ENDBRANCH   4  22
TORSDOF 4
ENDMDL
MODEL 7
REMARK VINA RESULT:      -7.6      2.076      2.298
REMARK  4 active torsions:
REMARK  status: ('A' for Active; 'I' for Inactive)
REMARK    1  A    between atoms: C_9  and  C_10 
REMARK       I    between atoms: C_10  and  N_11 
REMARK    2  A    between atoms: N_11  and  C_12 
REMARK    3  A    between atoms: C_15  and  N_16 
REMARK       I    between atoms: N_16  and  C_17 
REMARK       I    between atoms: C_17  and  N_18 
REMARK    4  A    between atoms: N_18  and  C_19 
ROOT
HETATM    1  C   UNL     1      39.844 -15.022   1.366  1.00  0.00     0.035 A 
HETATM    2  C   UNL     1      38.491 -14.748   1.556  1.00  0.00     0.032 A 
HETATM    3  C   UNL     1      37.762 -14.046   0.589  1.00  0.00     0.032 A 
HETATM    4  C   UNL     1      38.373 -13.606  -0.584  1.00  0.00     0.036 A 
HETATM    5  C   UNL     1      39.747 -13.817  -0.743  1.00  0.00     0.032 A 
HETATM    6  C   UNL     1      40.474 -14.525   0.221  1.00  0.00     0.032 A 
ENDROOT
BRANCH   1   7
HETATM    7  N   UNL     1      40.609 -15.823   2.229  1.00  0.00    -0.322 N 
HETATM    8  C   UNL     1      41.109 -17.091   1.995  1.00  0.00     0.277 C 
HETATM    9  O   UNL     1      40.823 -17.824   1.055  1.00  0.00    -0.266 OA
HETATM   10  H   UNL     1      40.957 -15.408   3.090  1.00  0.00     0.169 HD
BRANCH   8  11
HETATM   11  C   UNL     1      42.099 -17.484   3.016  1.00  0.00     0.157 A 
HETATM   12  C   UNL     1      42.925 -18.646   3.009  1.00  0.00     0.029 A 
HETATM   13  C   UNL     1      43.099 -19.762   2.167  1.00  0.00     0.023 A 
HETATM   14  C   UNL     1      43.729 -18.525   4.136  1.00  0.00     0.063 A 
HETATM   15  C   UNL     1      44.073 -20.724   2.480  1.00  0.00    -0.061 A 
HETATM   16  C   UNL     1      44.284 -21.910   1.586  1.00  0.00     0.048 C 
HETATM   17  C   UNL     1      44.866 -20.561   3.623  1.00  0.00     0.009 A 
HETATM   18  C   UNL     1      44.709 -19.461   4.477  1.00  0.00     0.032 A 
HETATM   19  N   UNL     1      43.337 -17.362   4.735  1.00  0.00    -0.277 N 
HETATM   20  H   UNL     1      43.709 -16.957   5.586  1.00  0.00     0.189 HD
HETATM   21  N   UNL     1      42.363 -16.697   4.085  1.00  0.00    -0.168 NA
ENDBRANCH   8  11
ENDBRANCH   1   7
BRANCH   4  22
HETATM   22  N   UNL     1      37.680 -12.970  -1.634  1.00  0.00    -0.309 N 
HETATM   23  C   UNL     1      37.299 -11.641  -1.680  1.00  0.00     0.321 C 
HETATM   24  N   UNL     1      36.614 -11.367  -2.855  1.00  0.00    -0.338 N 
HETATM   25  O   UNL     1      37.477 -10.801  -0.807  1.00  0.00    -0.247 OA
HETATM   26  H   UNL     1      36.845 -11.944  -3.651  1.00  0.00     0.164 HD
HETATM   27  H   UNL     1      37.211 -13.573  -2.292  1.00  0.00     0.170 HD
BRANCH  24  28
HETATM   28  C   UNL     1      36.037 -10.083  -3.118  1.00  0.00     0.086 A 
HETATM   29  C   UNL     1      36.649  -9.148  -4.123  1.00  0.00     0.027 A 
HETATM   30  C   UNL     1      35.348  -9.828  -4.432  1.00  0.00     0.027 A 
ENDBRANCH  24  28
ENDBRANCH   4  22
TORSDOF 4
ENDMDL
MODEL 8
REMARK VINA RESULT:      -7.5      6.055      8.594
REMARK  4 active torsions:
REMARK  status: ('A' for Active; 'I' for Inactive)
REMARK    1  A    between atoms: C_9  and  C_10 
REMARK       I    between atoms: C_10  and  N_11 
REMARK    2  A    between atoms: N_11  and  C_12 
REMARK    3  A    between atoms: C_15  and  N_16 
REMARK       I    between atoms: N_16  and  C_17 
REMARK       I    between atoms: C_17  and  N_18 
REMARK    4  A    between atoms: N_18  and  C_19 
ROOT
HETATM    1  C   UNL     1      41.025 -13.448   5.219  1.00  0.00     0.035 A 
HETATM    2  C   UNL     1      41.839 -12.421   5.692  1.00  0.00     0.032 A 
HETATM    3  C   UNL     1      41.335 -11.461   6.578  1.00  0.00     0.032 A 
HETATM    4  C   UNL     1      40.009 -11.512   7.005  1.00  0.00     0.036 A 
HETATM    5  C   UNL     1      39.172 -12.500   6.475  1.00  0.00     0.032 A 
HETATM    6  C   UNL     1      39.678 -13.464   5.594  1.00  0.00     0.032 A 
ENDROOT
BRANCH   1   7
HETATM    7  N   UNL     1      41.488 -14.513   4.429  1.00  0.00    -0.322 N 
HETATM    8  C   UNL     1      41.602 -15.846   4.779  1.00  0.00     0.277 C 
HETATM    9  O   UNL     1      41.488 -16.315   5.906  1.00  0.00    -0.266 OA
HETATM   10  H   UNL     1      41.656 -14.343   3.441  1.00  0.00     0.169 HD
BRANCH   8  11
HETATM   11  C   UNL     1      41.849 -16.700   3.601  1.00  0.00     0.157 A 
HETATM   12  C   UNL     1      42.696 -17.845   3.532  1.00  0.00     0.029 A 
HETATM   13  C   UNL     1      43.553 -18.527   4.418  1.00  0.00     0.023 A 
HETATM   14  C   UNL     1      42.533 -18.338   2.244  1.00  0.00     0.063 A 
HETATM   15  C   UNL     1      44.221 -19.684   3.984  1.00  0.00    -0.061 A 
HETATM   16  C   UNL     1      45.124 -20.434   4.919  1.00  0.00     0.048 C 
HETATM   17  C   UNL     1      44.024 -20.151   2.678  1.00  0.00     0.009 A 
HETATM   18  C   UNL     1      43.179 -19.487   1.780  1.00  0.00     0.032 A 
HETATM   19  N   UNL     1      41.655 -17.483   1.639  1.00  0.00    -0.277 N 
HETATM   20  H   UNL     1      41.306 -17.536   0.689  1.00  0.00     0.189 HD
HETATM   21  N   UNL     1      41.209 -16.487   2.427  1.00  0.00    -0.168 NA
ENDBRANCH   8  11
ENDBRANCH   1   7
BRANCH   4  22
HETATM   22  N   UNL     1      39.461 -10.630   7.959  1.00  0.00    -0.309 N 
HETATM   23  C   UNL     1      39.785 -10.569   9.302  1.00  0.00     0.321 C 
HETATM   24  N   UNL     1      39.032  -9.596   9.945  1.00  0.00    -0.338 N 
HETATM   25  O   UNL     1      40.582 -11.287   9.894  1.00  0.00    -0.247 OA
HETATM   26  H   UNL     1      38.723  -8.822   9.375  1.00  0.00     0.164 HD
HETATM   27  H   UNL     1      38.597 -10.175   7.705  1.00  0.00     0.170 HD
BRANCH  24  28
HETATM   28  C   UNL     1      39.112  -9.383  11.359  1.00  0.00     0.086 A 
HETATM   29  C   UNL     1      38.855  -8.027  11.954  1.00  0.00     0.027 A 
HETATM   30  C   UNL     1      37.856  -9.130  12.149  1.00  0.00     0.027 A 
ENDBRANCH  24  28
ENDBRANCH   4  22
TORSDOF 4
ENDMDL
MODEL 9
REMARK VINA RESULT:      -7.5      2.615      9.792
REMARK  4 active torsions:
REMARK  status: ('A' for Active; 'I' for Inactive)
REMARK    1  A    between atoms: C_9  and  C_10 
REMARK       I    between atoms: C_10  and  N_11 
REMARK    2  A    between atoms: N_11  and  C_12 
REMARK    3  A    between atoms: C_15  and  N_16 
REMARK       I    between atoms: N_16  and  C_17 
REMARK       I    between atoms: C_17  and  N_18 
REMARK    4  A    between atoms: N_18  and  C_19 
ROOT
HETATM    1  C   UNL     1      41.557 -15.695   0.414  1.00  0.00     0.035 A 
HETATM    2  C   UNL     1      41.365 -17.074   0.489  1.00  0.00     0.032 A 
HETATM    3  C   UNL     1      41.594 -17.762   1.687  1.00  0.00     0.032 A 
HETATM    4  C   UNL     1      42.017 -17.083   2.829  1.00  0.00     0.036 A 
HETATM    5  C   UNL     1      42.279 -15.713   2.735  1.00  0.00     0.032 A 
HETATM    6  C   UNL     1      42.044 -15.023   1.539  1.00  0.00     0.032 A 
ENDROOT
BRANCH   1   7
HETATM    7  N   UNL     1      41.233 -14.921  -0.712  1.00  0.00    -0.322 N 
HETATM    8  C   UNL     1      40.147 -14.082  -0.885  1.00  0.00     0.277 C 
HETATM    9  O   UNL     1      39.169 -13.998  -0.151  1.00  0.00    -0.266 OA
HETATM   10  H   UNL     1      41.916 -14.851  -1.462  1.00  0.00     0.169 HD
BRANCH   8  11
HETATM   11  C   UNL     1      40.304 -13.225  -2.076  1.00  0.00     0.157 A 
HETATM   12  C   UNL     1      41.205 -12.132  -2.235  1.00  0.00     0.029 A 
HETATM   13  C   UNL     1      42.163 -11.481  -1.432  1.00  0.00     0.023 A 
HETATM   14  C   UNL     1      41.025 -11.702  -3.544  1.00  0.00     0.063 A 
HETATM   15  C   UNL     1      42.911 -10.420  -1.966  1.00  0.00    -0.061 A 
HETATM   16  C   UNL     1      43.948  -9.727  -1.132  1.00  0.00     0.048 C 
HETATM   17  C   UNL     1      42.703 -10.022  -3.293  1.00  0.00     0.009 A 
HETATM   18  C   UNL     1      41.753 -10.652  -4.108  1.00  0.00     0.032 A 
HETATM   19  N   UNL     1      40.054 -12.514  -4.059  1.00  0.00    -0.277 N 
HETATM   20  H   UNL     1      39.668 -12.486  -4.995  1.00  0.00     0.189 HD
HETATM   21  N   UNL     1      39.600 -13.454  -3.208  1.00  0.00    -0.168 NA
ENDBRANCH   8  11
ENDBRANCH   1   7
BRANCH   4  22
HETATM   22  N   UNL     1      42.184 -17.699   4.086  1.00  0.00    -0.309 N 
HETATM   23  C   UNL     1      43.288 -18.417   4.510  1.00  0.00     0.321 C 
HETATM   24  N   UNL     1      43.096 -18.899   5.796  1.00  0.00    -0.338 N 
HETATM   25  O   UNL     1      44.295 -18.658   3.856  1.00  0.00    -0.247 OA
HETATM   26  H   UNL     1      42.478 -18.363   6.386  1.00  0.00     0.164 HD
HETATM   27  H   UNL     1      41.346 -17.841   4.631  1.00  0.00     0.170 HD
BRANCH  24  28
HETATM   28  C   UNL     1      44.055 -19.745   6.443  1.00  0.00     0.086 A 
HETATM   29  C   UNL     1      43.661 -20.620   7.599  1.00  0.00     0.027 A 
HETATM   30  C   UNL     1      43.973 -21.237   6.267  1.00  0.00     0.027 A 
ENDBRANCH  24  28
ENDBRANCH   4  22
TORSDOF 4
ENDMDL
MODEL 10
REMARK VINA RESULT:      -7.4      3.191      4.072
REMARK  4 active torsions:
REMARK  status: ('A' for Active; 'I' for Inactive)
REMARK    1  A    between atoms: C_9  and  C_10 
REMARK       I    between atoms: C_10  and  N_11 
REMARK    2  A    between atoms: N_11  and  C_12 
REMARK    3  A    between atoms: C_15  and  N_16 
REMARK       I    between atoms: N_16  and  C_17 
REMARK       I    between atoms: C_17  and  N_18 
REMARK    4  A    between atoms: N_18  and  C_19 
ROOT
HETATM    1  C   UNL     1      42.034 -16.131   1.116  1.00  0.00     0.035 A 
HETATM    2  C   UNL     1      41.428 -16.189  -0.138  1.00  0.00     0.032 A 
HETATM    3  C   UNL     1      41.045 -15.015  -0.799  1.00  0.00     0.032 A 
HETATM    4  C   UNL     1      41.261 -13.767  -0.219  1.00  0.00     0.036 A 
HETATM    5  C   UNL     1      41.803 -13.712   1.070  1.00  0.00     0.032 A 
HETATM    6  C   UNL     1      42.192 -14.885   1.729  1.00  0.00     0.032 A 
ENDROOT
BRANCH   1   7
HETATM    7  N   UNL     1      42.555 -17.251   1.785  1.00  0.00    -0.322 N 
HETATM    8  C   UNL     1      43.869 -17.681   1.832  1.00  0.00     0.277 C 
HETATM    9  O   UNL     1      44.795 -17.262   1.147  1.00  0.00    -0.266 OA
HETATM   10  H   UNL     1      41.944 -17.763   2.417  1.00  0.00     0.169 HD
BRANCH   8  11
HETATM   11  C   UNL     1      44.068 -18.716   2.863  1.00  0.00     0.157 A 
HETATM   12  C   UNL     1      43.959 -18.554   4.275  1.00  0.00     0.029 A 
HETATM   13  C   UNL     1      43.687 -17.489   5.156  1.00  0.00     0.023 A 
HETATM   14  C   UNL     1      44.162 -19.824   4.802  1.00  0.00     0.063 A 
HETATM   15  C   UNL     1      43.626 -17.729   6.538  1.00  0.00    -0.061 A 
HETATM   16  C   UNL     1      43.320 -16.611   7.490  1.00  0.00     0.048 C 
HETATM   17  C   UNL     1      43.831 -19.026   7.027  1.00  0.00     0.009 A 
HETATM   18  C   UNL     1      44.107 -20.100   6.170  1.00  0.00     0.032 A 
HETATM   19  N   UNL     1      44.393 -20.629   3.722  1.00  0.00    -0.277 N 
HETATM   20  H   UNL     1      44.581 -21.625   3.731  1.00  0.00     0.189 HD
HETATM   21  N   UNL     1      44.334 -20.001   2.532  1.00  0.00    -0.168 NA
ENDBRANCH   8  11
ENDBRANCH   1   7
BRANCH   4  22
HETATM   22  N   UNL     1      40.978 -12.546  -0.865  1.00  0.00    -0.309 N 
HETATM   23  C   UNL     1      41.883 -11.743  -1.536  1.00  0.00     0.321 C 
HETATM   24  N   UNL     1      41.258 -10.606  -2.028  1.00  0.00    -0.338 N 
HETATM   25  O   UNL     1      43.084 -11.944  -1.661  1.00  0.00    -0.247 OA
HETATM   26  H   UNL     1      40.275 -10.692  -2.238  1.00  0.00     0.164 HD
HETATM   27  H   UNL     1      40.110 -12.097  -0.615  1.00  0.00     0.170 HD
BRANCH  24  28
HETATM   28  C   UNL     1      41.985  -9.566  -2.693  1.00  0.00     0.086 A 
HETATM   29  C   UNL     1      42.315  -9.664  -4.157  1.00  0.00     0.027 A 
HETATM   30  C   UNL     1      41.282  -8.682  -3.688  1.00  0.00     0.027 A 
ENDBRANCH  24  28
ENDBRANCH   4  22
TORSDOF 4
ENDMDL
