MODEL 1
REMARK VINA RESULT:      -7.4      0.000      0.000
REMARK  10 active torsions:
REMARK  status: ('A' for Active; 'I' for Inactive)
REMARK    1  A    between atoms: O_2  and  C_3 
REMARK    2  A    between atoms: C_4  and  O_5 
REMARK    3  A    between atoms: O_5  and  C_6 
REMARK    4  A    between atoms: C_6  and  C_7 
REMARK       I    between atoms: C_7  and  N_8 
REMARK    5  A    between atoms: N_8  and  C_9 
REMARK    6  A    between atoms: C_9  and  N_10 
REMARK    7  A    between atoms: N_10  and  N_11 
REMARK    8  A    between atoms: N_11  and  C_12 
REMARK    9  A    between atoms: C_12  and  N_13 
REMARK   10  A    between atoms: N_13  and  C_14 
ROOT
HETATM    1  C   UNL     1      41.813 -16.004   4.967  1.00  0.00     0.193 C 
HETATM    2  S   UNL     1      42.144 -14.439   5.460  1.00  0.00    -0.039 SA
ENDROOT
BRANCH   1   3
HETATM    3  N   UNL     1      42.610 -17.131   5.187  1.00  0.00    -0.301 N 
HETATM    4  C   UNL     1      42.870 -17.848   6.361  1.00  0.00     0.248 C 
HETATM    5  O   UNL     1      42.445 -17.580   7.480  1.00  0.00    -0.271 OA
HETATM    6  H   UNL     1      43.108 -17.457   4.372  1.00  0.00     0.171 HD
BRANCH   4   7
HETATM    7  C   UNL     1      43.801 -19.046   6.124  1.00  0.00     0.278 C 
BRANCH   7   8
HETATM    8  O   UNL     1      44.667 -18.939   4.998  1.00  0.00    -0.339 OA
BRANCH   8   9
HETATM    9  C   UNL     1      44.417 -19.871   4.027  1.00  0.00     0.102 A 
HETATM   10  C   UNL     1      43.744 -19.581   2.836  1.00  0.00     0.101 A 
HETATM   11  C   UNL     1      43.570 -20.570   1.868  1.00  0.00     0.039 A 
HETATM   12  C   UNL     1      44.019 -21.868   2.117  1.00  0.00     0.003 A 
HETATM   13  C   UNL     1      44.644 -22.172   3.327  1.00  0.00     0.003 A 
HETATM   14  C   UNL     1      44.838 -21.175   4.284  1.00  0.00     0.039 A 
BRANCH  10  15
HETATM   15  O   UNL     1      43.305 -18.318   2.541  1.00  0.00    -0.353 OA
HETATM   16  C   UNL     1      44.215 -17.689   1.635  1.00  0.00     0.210 C 
ENDBRANCH  10  15
ENDBRANCH   8   9
ENDBRANCH   7   8
ENDBRANCH   4   7
ENDBRANCH   1   3
BRANCH   1  17
HETATM   17  N   UNL     1      40.636 -16.360   4.304  1.00  0.00    -0.274 N 
HETATM   18  H   UNL     1      39.782 -16.564   4.819  1.00  0.00     0.189 HD
BRANCH  17  19
HETATM   19  N   UNL     1      40.684 -16.939   3.019  1.00  0.00    -0.274 N 
HETATM   20  H   UNL     1      41.388 -17.668   2.904  1.00  0.00     0.189 HD
BRANCH  19  21
HETATM   21  C   UNL     1      40.272 -16.242   1.915  1.00  0.00     0.191 C 
HETATM   22  S   UNL     1      41.197 -16.041   0.529  1.00  0.00    -0.039 SA
BRANCH  21  23
HETATM   23  N   UNL     1      39.019 -15.701   1.931  1.00  0.00    -0.332 N 
HETATM   24  H   UNL     1      38.297 -16.390   2.117  1.00  0.00     0.168 HD
BRANCH  23  25
HETATM   25  C   UNL     1      38.553 -14.398   1.656  1.00  0.00     0.034 A 
HETATM   26  C   UNL     1      37.496 -14.105   0.793  1.00  0.00     0.029 A 
HETATM   27  C   UNL     1      37.087 -12.781   0.597  1.00  0.00     0.002 A 
HETATM   28  C   UNL     1      37.717 -11.743   1.277  1.00  0.00     0.000 A 
HETATM   29  C   UNL     1      38.752 -12.027   2.164  1.00  0.00     0.002 A 
HETATM   30  C   UNL     1      39.162 -13.349   2.356  1.00  0.00     0.029 A 
ENDBRANCH  23  25
ENDBRANCH  21  23
ENDBRANCH  19  21
ENDBRANCH  17  19
ENDBRANCH   1  17
TORSDOF 10
ENDMDL
MODEL 2
REMARK VINA RESULT:      -7.3      2.394      3.055
REMARK  10 active torsions:
REMARK  status: ('A' for Active; 'I' for Inactive)
REMARK    1  A    between atoms: O_2  and  C_3 
REMARK    2  A    between atoms: C_4  and  O_5 
REMARK    3  A    between atoms: O_5  and  C_6 
REMARK    4  A    between atoms: C_6  and  C_7 
REMARK       I    between atoms: C_7  and  N_8 
REMARK    5  A    between atoms: N_8  and  C_9 
REMARK    6  A    between atoms: C_9  and  N_10 
REMARK    7  A    between atoms: N_10  and  N_11 
REMARK    8  A    between atoms: N_11  and  C_12 
REMARK    9  A    between atoms: C_12  and  N_13 
REMARK   10  A    between atoms: N_13  and  C_14 
ROOT
HETATM    1  C   UNL     1      43.679 -14.743   6.672  1.00  0.00     0.193 C 
HETATM    2  S   UNL     1      44.813 -13.711   7.344  1.00  0.00    -0.039 SA
ENDROOT
BRANCH   1   3
HETATM    3  N   UNL     1      43.808 -16.124   6.505  1.00  0.00    -0.301 N 
HETATM    4  C   UNL     1      43.744 -17.165   7.438  1.00  0.00     0.248 C 
HETATM    5  O   UNL     1      43.587 -17.041   8.649  1.00  0.00    -0.271 OA
HETATM    6  H   UNL     1      44.019 -16.413   5.561  1.00  0.00     0.171 HD
BRANCH   4   7
HETATM    7  C   UNL     1      43.924 -18.546   6.793  1.00  0.00     0.278 C 
BRANCH   7   8
HETATM    8  O   UNL     1      44.989 -18.652   5.852  1.00  0.00    -0.339 OA
BRANCH   8   9
HETATM    9  C   UNL     1      44.613 -19.212   4.662  1.00  0.00     0.102 A 
HETATM   10  C   UNL     1      43.939 -18.508   3.659  1.00  0.00     0.101 A 
HETATM   11  C   UNL     1      43.632 -19.130   2.448  1.00  0.00     0.039 A 
HETATM   12  C   UNL     1      43.947 -20.477   2.263  1.00  0.00     0.003 A 
HETATM   13  C   UNL     1      44.573 -21.195   3.282  1.00  0.00     0.003 A 
HETATM   14  C   UNL     1      44.901 -20.565   4.484  1.00  0.00     0.039 A 
BRANCH  10  15
HETATM   15  O   UNL     1      43.627 -17.181   3.790  1.00  0.00    -0.353 OA
HETATM   16  C   UNL     1      43.971 -16.483   2.590  1.00  0.00     0.210 C 
ENDBRANCH  10  15
ENDBRANCH   8   9
ENDBRANCH   7   8
ENDBRANCH   4   7
ENDBRANCH   1   3
BRANCH   1  17
HETATM   17  N   UNL     1      42.421 -14.314   6.241  1.00  0.00    -0.274 N 
HETATM   18  H   UNL     1      41.798 -13.801   6.862  1.00  0.00     0.189 HD
BRANCH  17  19
HETATM   19  N   UNL     1      41.764 -14.972   5.182  1.00  0.00    -0.274 N 
HETATM   20  H   UNL     1      42.383 -15.415   4.503  1.00  0.00     0.189 HD
BRANCH  19  21
HETATM   21  C   UNL     1      40.513 -14.587   4.779  1.00  0.00     0.191 C 
HETATM   22  S   UNL     1      39.662 -13.303   5.448  1.00  0.00    -0.039 SA
BRANCH  21  23
HETATM   23  N   UNL     1      39.933 -15.271   3.751  1.00  0.00    -0.332 N 
HETATM   24  H   UNL     1      39.027 -15.656   3.998  1.00  0.00     0.168 HD
BRANCH  23  25
HETATM   25  C   UNL     1      40.399 -15.603   2.461  1.00  0.00     0.034 A 
HETATM   26  C   UNL     1      40.863 -14.674   1.528  1.00  0.00     0.029 A 
HETATM   27  C   UNL     1      41.329 -15.097   0.278  1.00  0.00     0.002 A 
HETATM   28  C   UNL     1      41.352 -16.452  -0.042  1.00  0.00     0.000 A 
HETATM   29  C   UNL     1      40.921 -17.389   0.893  1.00  0.00     0.002 A 
HETATM   30  C   UNL     1      40.453 -16.966   2.140  1.00  0.00     0.029 A 
ENDBRANCH  23  25
ENDBRANCH  21  23
ENDBRANCH  19  21
ENDBRANCH  17  19
ENDBRANCH   1  17
TORSDOF 10
ENDMDL
MODEL 3
REMARK VINA RESULT:      -7.3      5.114      6.975
REMARK  10 active torsions:
REMARK  status: ('A' for Active; 'I' for Inactive)
REMARK    1  A    between atoms: O_2  and  C_3 
REMARK    2  A    between atoms: C_4  and  O_5 
REMARK    3  A    between atoms: O_5  and  C_6 
REMARK    4  A    between atoms: C_6  and  C_7 
REMARK       I    between atoms: C_7  and  N_8 
REMARK    5  A    between atoms: N_8  and  C_9 
REMARK    6  A    between atoms: C_9  and  N_10 
REMARK    7  A    between atoms: N_10  and  N_11 
REMARK    8  A    between atoms: N_11  and  C_12 
REMARK    9  A    between atoms: C_12  and  N_13 
REMARK   10  A    between atoms: N_13  and  C_14 
ROOT
HETATM    1  C   UNL     1      43.495 -14.782   6.314  1.00  0.00     0.193 C 
HETATM    2  S   UNL     1      42.676 -13.789   5.244  1.00  0.00    -0.039 SA
ENDROOT
BRANCH   1   3
HETATM    3  N   UNL     1      43.723 -16.153   6.167  1.00  0.00    -0.301 N 
HETATM    4  C   UNL     1      43.583 -17.204   7.081  1.00  0.00     0.248 C 
HETATM    5  O   UNL     1      43.247 -17.099   8.256  1.00  0.00    -0.271 OA
HETATM    6  H   UNL     1      44.083 -16.423   5.263  1.00  0.00     0.171 HD
BRANCH   4   7
HETATM    7  C   UNL     1      43.930 -18.568   6.467  1.00  0.00     0.278 C 
BRANCH   7   8
HETATM    8  O   UNL     1      44.878 -18.541   5.404  1.00  0.00    -0.339 OA
BRANCH   8   9
HETATM    9  C   UNL     1      44.439 -19.161   4.266  1.00  0.00     0.102 A 
HETATM   10  C   UNL     1      43.601 -18.549   3.329  1.00  0.00     0.101 A 
HETATM   11  C   UNL     1      43.235 -19.224   2.164  1.00  0.00     0.039 A 
HETATM   12  C   UNL     1      43.660 -20.538   1.964  1.00  0.00     0.003 A 
HETATM   13  C   UNL     1      44.454 -21.170   2.923  1.00  0.00     0.003 A 
HETATM   14  C   UNL     1      44.839 -20.484   4.076  1.00  0.00     0.039 A 
BRANCH  10  15
HETATM   15  O   UNL     1      43.176 -17.255   3.474  1.00  0.00    -0.353 OA
HETATM   16  C   UNL     1      43.633 -16.469   2.370  1.00  0.00     0.210 C 
ENDBRANCH  10  15
ENDBRANCH   8   9
ENDBRANCH   7   8
ENDBRANCH   4   7
ENDBRANCH   1   3
BRANCH   1  17
HETATM   17  N   UNL     1      44.097 -14.309   7.482  1.00  0.00    -0.274 N 
HETATM   18  H   UNL     1      44.393 -14.947   8.219  1.00  0.00     0.189 HD
BRANCH  17  19
HETATM   19  N   UNL     1      43.867 -12.990   7.923  1.00  0.00    -0.274 N 
HETATM   20  H   UNL     1      43.563 -12.342   7.196  1.00  0.00     0.189 HD
BRANCH  19  21
HETATM   21  C   UNL     1      44.513 -12.490   9.021  1.00  0.00     0.191 C 
HETATM   22  S   UNL     1      46.035 -11.781   8.976  1.00  0.00    -0.039 SA
BRANCH  21  23
HETATM   23  N   UNL     1      43.869 -12.544  10.223  1.00  0.00    -0.332 N 
HETATM   24  H   UNL     1      43.586 -13.486  10.474  1.00  0.00     0.168 HD
BRANCH  23  25
HETATM   25  C   UNL     1      43.461 -11.533  11.118  1.00  0.00     0.034 A 
HETATM   26  C   UNL     1      43.240 -11.731  12.482  1.00  0.00     0.029 A 
HETATM   27  C   UNL     1      42.859 -10.662  13.301  1.00  0.00     0.002 A 
HETATM   28  C   UNL     1      42.713  -9.385  12.767  1.00  0.00     0.000 A 
HETATM   29  C   UNL     1      42.961  -9.170  11.414  1.00  0.00     0.002 A 
HETATM   30  C   UNL     1      43.339 -10.239  10.597  1.00  0.00     0.029 A 
ENDBRANCH  23  25
ENDBRANCH  21  23
ENDBRANCH  19  21
ENDBRANCH  17  19
ENDBRANCH   1  17
TORSDOF 10
ENDMDL
MODEL 4
REMARK VINA RESULT:      -7.3      2.044      4.671
REMARK  10 active torsions:
REMARK  status: ('A' for Active; 'I' for Inactive)
REMARK    1  A    between atoms: O_2  and  C_3 
REMARK    2  A    between atoms: C_4  and  O_5 
REMARK    3  A    between atoms: O_5  and  C_6 
REMARK    4  A    between atoms: C_6  and  C_7 
REMARK       I    between atoms: C_7  and  N_8 
REMARK    5  A    between atoms: N_8  and  C_9 
REMARK    6  A    between atoms: C_9  and  N_10 
REMARK    7  A    between atoms: N_10  and  N_11 
REMARK    8  A    between atoms: N_11  and  C_12 
REMARK    9  A    between atoms: C_12  and  N_13 
REMARK   10  A    between atoms: N_13  and  C_14 
ROOT
HETATM    1  C   UNL     1      41.246 -15.146  -0.151  1.00  0.00     0.193 C 
HETATM    2  S   UNL     1      41.447 -13.956  -1.310  1.00  0.00    -0.039 SA
ENDROOT
BRANCH   1   3
HETATM    3  N   UNL     1      42.244 -15.974   0.372  1.00  0.00    -0.301 N 
HETATM    4  C   UNL     1      42.153 -17.203   1.036  1.00  0.00     0.248 C 
HETATM    5  O   UNL     1      41.118 -17.793   1.326  1.00  0.00    -0.271 OA
HETATM    6  H   UNL     1      43.180 -15.605   0.287  1.00  0.00     0.171 HD
BRANCH   4   7
HETATM    7  C   UNL     1      43.529 -17.768   1.417  1.00  0.00     0.278 C 
BRANCH   7   8
HETATM    8  O   UNL     1      43.660 -18.214   2.763  1.00  0.00    -0.339 OA
BRANCH   8   9
HETATM    9  C   UNL     1      43.955 -19.546   2.871  1.00  0.00     0.102 A 
HETATM   10  C   UNL     1      44.531 -20.118   4.009  1.00  0.00     0.101 A 
HETATM   11  C   UNL     1      44.756 -21.494   4.069  1.00  0.00     0.039 A 
HETATM   12  C   UNL     1      44.459 -22.291   2.963  1.00  0.00     0.003 A 
HETATM   13  C   UNL     1      43.932 -21.715   1.806  1.00  0.00     0.003 A 
HETATM   14  C   UNL     1      43.685 -20.342   1.758  1.00  0.00     0.039 A 
BRANCH  10  15
HETATM   15  O   UNL     1      44.820 -19.377   5.125  1.00  0.00    -0.353 OA
HETATM   16  C   UNL     1      44.133 -19.918   6.256  1.00  0.00     0.210 C 
ENDBRANCH  10  15
ENDBRANCH   8   9
ENDBRANCH   7   8
ENDBRANCH   4   7
ENDBRANCH   1   3
BRANCH   1  17
HETATM   17  N   UNL     1      40.021 -15.406   0.469  1.00  0.00    -0.274 N 
HETATM   18  H   UNL     1      39.403 -16.140   0.128  1.00  0.00     0.189 HD
BRANCH  17  19
HETATM   19  N   UNL     1      39.368 -14.401   1.211  1.00  0.00    -0.274 N 
HETATM   20  H   UNL     1      39.073 -13.590   0.667  1.00  0.00     0.189 HD
BRANCH  19  21
HETATM   21  C   UNL     1      39.605 -14.245   2.550  1.00  0.00     0.191 C 
HETATM   22  S   UNL     1      39.450 -12.788   3.370  1.00  0.00    -0.039 SA
BRANCH  21  23
HETATM   23  N   UNL     1      39.963 -15.348   3.269  1.00  0.00    -0.332 N 
HETATM   24  H   UNL     1      39.242 -16.062   3.277  1.00  0.00     0.168 HD
BRANCH  23  25
HETATM   25  C   UNL     1      41.100 -15.629   4.057  1.00  0.00     0.034 A 
HETATM   26  C   UNL     1      42.294 -14.908   4.002  1.00  0.00     0.029 A 
HETATM   27  C   UNL     1      43.365 -15.243   4.838  1.00  0.00     0.002 A 
HETATM   28  C   UNL     1      43.243 -16.289   5.750  1.00  0.00     0.000 A 
HETATM   29  C   UNL     1      42.046 -16.994   5.835  1.00  0.00     0.002 A 
HETATM   30  C   UNL     1      40.978 -16.660   4.997  1.00  0.00     0.029 A 
ENDBRANCH  23  25
ENDBRANCH  21  23
ENDBRANCH  19  21
ENDBRANCH  17  19
ENDBRANCH   1  17
TORSDOF 10
ENDMDL
MODEL 5
REMARK VINA RESULT:      -7.2      5.204      9.055
REMARK  10 active torsions:
REMARK  status: ('A' for Active; 'I' for Inactive)
REMARK    1  A    between atoms: O_2  and  C_3 
REMARK    2  A    between atoms: C_4  and  O_5 
REMARK    3  A    between atoms: O_5  and  C_6 
REMARK    4  A    between atoms: C_6  and  C_7 
REMARK       I    between atoms: C_7  and  N_8 
REMARK    5  A    between atoms: N_8  and  C_9 
REMARK    6  A    between atoms: C_9  and  N_10 
REMARK    7  A    between atoms: N_10  and  N_11 
REMARK    8  A    between atoms: N_11  and  C_12 
REMARK    9  A    between atoms: C_12  and  N_13 
REMARK   10  A    between atoms: N_13  and  C_14 
ROOT
HETATM    1  C   UNL     1      42.898 -13.746   5.943  1.00  0.00     0.193 C 
HETATM    2  S   UNL     1      41.411 -13.232   5.373  1.00  0.00    -0.039 SA
ENDROOT
BRANCH   1   3
HETATM    3  N   UNL     1      43.524 -13.332   7.122  1.00  0.00    -0.301 N 
HETATM    4  C   UNL     1      44.879 -13.299   7.472  1.00  0.00     0.248 C 
HETATM    5  O   UNL     1      45.814 -13.683   6.777  1.00  0.00    -0.271 OA
HETATM    6  H   UNL     1      42.890 -13.044   7.853  1.00  0.00     0.171 HD
BRANCH   4   7
HETATM    7  C   UNL     1      45.109 -12.740   8.884  1.00  0.00     0.278 C 
BRANCH   7   8
HETATM    8  O   UNL     1      45.145 -11.319   8.984  1.00  0.00    -0.339 OA
BRANCH   8   9
HETATM    9  C   UNL     1      44.192 -10.806   9.821  1.00  0.00     0.102 A 
HETATM   10  C   UNL     1      42.917 -10.423   9.395  1.00  0.00     0.101 A 
HETATM   11  C   UNL     1      41.978  -9.955  10.315  1.00  0.00     0.039 A 
HETATM   12  C   UNL     1      42.335  -9.815  11.656  1.00  0.00     0.003 A 
HETATM   13  C   UNL     1      43.624 -10.148  12.076  1.00  0.00     0.003 A 
HETATM   14  C   UNL     1      44.554 -10.638  11.158  1.00  0.00     0.039 A 
BRANCH  10  15
HETATM   15  O   UNL     1      42.517 -10.562   8.092  1.00  0.00    -0.353 OA
HETATM   16  C   UNL     1      41.419  -9.684   7.827  1.00  0.00     0.210 C 
ENDBRANCH  10  15
ENDBRANCH   8   9
ENDBRANCH   7   8
ENDBRANCH   4   7
ENDBRANCH   1   3
BRANCH   1  17
HETATM   17  N   UNL     1      43.668 -14.715   5.295  1.00  0.00    -0.274 N 
HETATM   18  H   UNL     1      44.065 -14.543   4.373  1.00  0.00     0.189 HD
BRANCH  17  19
HETATM   19  N   UNL     1      43.513 -16.080   5.610  1.00  0.00    -0.274 N 
HETATM   20  H   UNL     1      44.184 -16.442   6.288  1.00  0.00     0.189 HD
BRANCH  19  21
HETATM   21  C   UNL     1      42.944 -16.950   4.718  1.00  0.00     0.191 C 
HETATM   22  S   UNL     1      41.305 -17.311   4.672  1.00  0.00    -0.039 SA
BRANCH  21  23
HETATM   23  N   UNL     1      43.755 -17.538   3.791  1.00  0.00    -0.332 N 
HETATM   24  H   UNL     1      44.223 -16.863   3.195  1.00  0.00     0.168 HD
BRANCH  23  25
HETATM   25  C   UNL     1      43.986 -18.892   3.468  1.00  0.00     0.034 A 
HETATM   26  C   UNL     1      44.617 -19.806   4.314  1.00  0.00     0.029 A 
HETATM   27  C   UNL     1      44.784 -21.139   3.919  1.00  0.00     0.002 A 
HETATM   28  C   UNL     1      44.306 -21.571   2.685  1.00  0.00     0.000 A 
HETATM   29  C   UNL     1      43.649 -20.674   1.848  1.00  0.00     0.002 A 
HETATM   30  C   UNL     1      43.485 -19.344   2.241  1.00  0.00     0.029 A 
ENDBRANCH  23  25
ENDBRANCH  21  23
ENDBRANCH  19  21
ENDBRANCH  17  19
ENDBRANCH   1  17
TORSDOF 10
ENDMDL
MODEL 6
REMARK VINA RESULT:      -7.2      2.252      2.635
REMARK  10 active torsions:
REMARK  status: ('A' for Active; 'I' for Inactive)
REMARK    1  A    between atoms: O_2  and  C_3 
REMARK    2  A    between atoms: C_4  and  O_5 
REMARK    3  A    between atoms: O_5  and  C_6 
REMARK    4  A    between atoms: C_6  and  C_7 
REMARK       I    between atoms: C_7  and  N_8 
REMARK    5  A    between atoms: N_8  and  C_9 
REMARK    6  A    between atoms: C_9  and  N_10 
REMARK    7  A    between atoms: N_10  and  N_11 
REMARK    8  A    between atoms: N_11  and  C_12 
REMARK    9  A    between atoms: C_12  and  N_13 
REMARK   10  A    between atoms: N_13  and  C_14 
ROOT
HETATM    1  C   UNL     1      41.584 -16.164   4.672  1.00  0.00     0.193 C 
HETATM    2  S   UNL     1      41.769 -14.570   5.147  1.00  0.00    -0.039 SA
ENDROOT
BRANCH   1   3
HETATM    3  N   UNL     1      42.449 -17.223   4.962  1.00  0.00    -0.301 N 
HETATM    4  C   UNL     1      42.764 -17.834   6.181  1.00  0.00     0.248 C 
HETATM    5  O   UNL     1      42.338 -17.508   7.284  1.00  0.00    -0.271 OA
HETATM    6  H   UNL     1      42.955 -17.581   4.165  1.00  0.00     0.171 HD
BRANCH   4   7
HETATM    7  C   UNL     1      43.761 -18.991   6.019  1.00  0.00     0.278 C 
BRANCH   7   8
HETATM    8  O   UNL     1      44.627 -18.903   4.891  1.00  0.00    -0.339 OA
BRANCH   8   9
HETATM    9  C   UNL     1      44.371 -19.844   3.932  1.00  0.00     0.102 A 
HETATM   10  C   UNL     1      43.689 -19.567   2.744  1.00  0.00     0.101 A 
HETATM   11  C   UNL     1      43.508 -20.566   1.786  1.00  0.00     0.039 A 
HETATM   12  C   UNL     1      43.959 -21.861   2.044  1.00  0.00     0.003 A 
HETATM   13  C   UNL     1      44.594 -22.153   3.252  1.00  0.00     0.003 A 
HETATM   14  C   UNL     1      44.795 -21.146   4.198  1.00  0.00     0.039 A 
BRANCH  10  15
HETATM   15  O   UNL     1      43.246 -18.307   2.440  1.00  0.00    -0.353 OA
HETATM   16  C   UNL     1      44.154 -17.682   1.528  1.00  0.00     0.210 C 
ENDBRANCH  10  15
ENDBRANCH   8   9
ENDBRANCH   7   8
ENDBRANCH   4   7
ENDBRANCH   1   3
BRANCH   1  17
HETATM   17  N   UNL     1      40.477 -16.620   3.952  1.00  0.00    -0.274 N 
HETATM   18  H   UNL     1      39.700 -17.084   4.419  1.00  0.00     0.189 HD
BRANCH  17  19
HETATM   19  N   UNL     1      40.590 -16.928   2.582  1.00  0.00    -0.274 N 
HETATM   20  H   UNL     1      41.305 -17.620   2.356  1.00  0.00     0.189 HD
BRANCH  19  21
HETATM   21  C   UNL     1      40.225 -16.022   1.622  1.00  0.00     0.191 C 
HETATM   22  S   UNL     1      39.253 -14.684   1.912  1.00  0.00    -0.039 SA
BRANCH  21  23
HETATM   23  N   UNL     1      40.703 -16.203   0.357  1.00  0.00    -0.332 N 
HETATM   24  H   UNL     1      40.860 -17.180   0.132  1.00  0.00     0.168 HD
BRANCH  23  25
HETATM   25  C   UNL     1      41.090 -15.284  -0.642  1.00  0.00     0.034 A 
HETATM   26  C   UNL     1      41.704 -14.056  -0.388  1.00  0.00     0.029 A 
HETATM   27  C   UNL     1      42.075 -13.216  -1.444  1.00  0.00     0.002 A 
HETATM   28  C   UNL     1      41.852 -13.605  -2.762  1.00  0.00     0.000 A 
HETATM   29  C   UNL     1      41.268 -14.840  -3.027  1.00  0.00     0.002 A 
HETATM   30  C   UNL     1      40.896 -15.677  -1.972  1.00  0.00     0.029 A 
ENDBRANCH  23  25
ENDBRANCH  21  23
ENDBRANCH  19  21
ENDBRANCH  17  19
ENDBRANCH   1  17
TORSDOF 10
ENDMDL
MODEL 7
REMARK VINA RESULT:      -7.2      2.003      3.100
REMARK  10 active torsions:
REMARK  status: ('A' for Active; 'I' for Inactive)
REMARK    1  A    between atoms: O_2  and  C_3 
REMARK    2  A    between atoms: C_4  and  O_5 
REMARK    3  A    between atoms: O_5  and  C_6 
REMARK    4  A    between atoms: C_6  and  C_7 
REMARK       I    between atoms: C_7  and  N_8 
REMARK    5  A    between atoms: N_8  and  C_9 
REMARK    6  A    between atoms: C_9  and  N_10 
REMARK    7  A    between atoms: N_10  and  N_11 
REMARK    8  A    between atoms: N_11  and  C_12 
REMARK    9  A    between atoms: C_12  and  N_13 
REMARK   10  A    between atoms: N_13  and  C_14 
ROOT
HETATM    1  C   UNL     1      42.602 -15.077   5.664  1.00  0.00     0.193 C 
HETATM    2  S   UNL     1      43.562 -13.762   5.275  1.00  0.00    -0.039 SA
ENDROOT
BRANCH   1   3
HETATM    3  N   UNL     1      42.974 -16.422   5.608  1.00  0.00    -0.301 N 
HETATM    4  C   UNL     1      42.926 -17.423   6.586  1.00  0.00     0.248 C 
HETATM    5  O   UNL     1      42.559 -17.281   7.748  1.00  0.00    -0.271 OA
HETATM    6  H   UNL     1      43.376 -16.709   4.728  1.00  0.00     0.171 HD
BRANCH   4   7
HETATM    7  C   UNL     1      43.423 -18.779   6.065  1.00  0.00     0.278 C 
BRANCH   7   8
HETATM    8  O   UNL     1      44.461 -18.721   5.090  1.00  0.00    -0.339 OA
BRANCH   8   9
HETATM    9  C   UNL     1      44.235 -19.523   4.005  1.00  0.00     0.102 A 
HETATM   10  C   UNL     1      44.753 -20.816   3.882  1.00  0.00     0.101 A 
HETATM   11  C   UNL     1      44.439 -21.597   2.769  1.00  0.00     0.039 A 
HETATM   12  C   UNL     1      43.653 -21.061   1.748  1.00  0.00     0.003 A 
HETATM   13  C   UNL     1      43.178 -19.753   1.844  1.00  0.00     0.003 A 
HETATM   14  C   UNL     1      43.474 -18.982   2.970  1.00  0.00     0.039 A 
BRANCH  10  15
HETATM   15  O   UNL     1      45.511 -21.389   4.868  1.00  0.00    -0.353 OA
HETATM   16  C   UNL     1      44.985 -22.678   5.195  1.00  0.00     0.210 C 
ENDBRANCH  10  15
ENDBRANCH   8   9
ENDBRANCH   7   8
ENDBRANCH   4   7
ENDBRANCH   1   3
BRANCH   1  17
HETATM   17  N   UNL     1      41.299 -14.949   6.152  1.00  0.00    -0.274 N 
HETATM   18  H   UNL     1      41.105 -14.975   7.151  1.00  0.00     0.189 HD
BRANCH  17  19
HETATM   19  N   UNL     1      40.195 -15.289   5.343  1.00  0.00    -0.274 N 
HETATM   20  H   UNL     1      39.974 -16.284   5.317  1.00  0.00     0.189 HD
BRANCH  19  21
HETATM   21  C   UNL     1      39.830 -14.505   4.282  1.00  0.00     0.191 C 
HETATM   22  S   UNL     1      39.903 -12.827   4.281  1.00  0.00    -0.039 SA
BRANCH  21  23
HETATM   23  N   UNL     1      39.406 -15.126   3.143  1.00  0.00    -0.332 N 
HETATM   24  H   UNL     1      38.486 -15.543   3.243  1.00  0.00     0.168 HD
BRANCH  23  25
HETATM   25  C   UNL     1      40.044 -15.360   1.907  1.00  0.00     0.034 A 
HETATM   26  C   UNL     1      40.061 -14.453   0.846  1.00  0.00     0.029 A 
HETATM   27  C   UNL     1      40.740 -14.760  -0.339  1.00  0.00     0.002 A 
HETATM   28  C   UNL     1      41.422 -15.967  -0.466  1.00  0.00     0.000 A 
HETATM   29  C   UNL     1      41.436 -16.866   0.598  1.00  0.00     0.002 A 
HETATM   30  C   UNL     1      40.756 -16.560   1.779  1.00  0.00     0.029 A 
ENDBRANCH  23  25
ENDBRANCH  21  23
ENDBRANCH  19  21
ENDBRANCH  17  19
ENDBRANCH   1  17
TORSDOF 10
ENDMDL
MODEL 8
REMARK VINA RESULT:      -7.1      5.365      8.560
REMARK  10 active torsions:
REMARK  status: ('A' for Active; 'I' for Inactive)
REMARK    1  A    between atoms: O_2  and  C_3 
REMARK    2  A    between atoms: C_4  and  O_5 
REMARK    3  A    between atoms: O_5  and  C_6 
REMARK    4  A    between atoms: C_6  and  C_7 
REMARK       I    between atoms: C_7  and  N_8 
REMARK    5  A    between atoms: N_8  and  C_9 
REMARK    6  A    between atoms: C_9  and  N_10 
REMARK    7  A    between atoms: N_10  and  N_11 
REMARK    8  A    between atoms: N_11  and  C_12 
REMARK    9  A    between atoms: C_12  and  N_13 
REMARK   10  A    between atoms: N_13  and  C_14 
ROOT
HETATM    1  C   UNL     1      41.028 -13.404   5.683  1.00  0.00     0.193 C 
HETATM    2  S   UNL     1      41.311 -13.548   4.040  1.00  0.00    -0.039 SA
ENDROOT
BRANCH   1   3
HETATM    3  N   UNL     1      41.322 -12.296   6.482  1.00  0.00    -0.301 N 
HETATM    4  C   UNL     1      40.475 -11.411   7.160  1.00  0.00     0.248 C 
HETATM    5  O   UNL     1      39.248 -11.430   7.145  1.00  0.00    -0.271 OA
HETATM    6  H   UNL     1      42.305 -12.079   6.552  1.00  0.00     0.171 HD
BRANCH   4   7
HETATM    7  C   UNL     1      41.248 -10.340   7.943  1.00  0.00     0.278 C 
BRANCH   7   8
HETATM    8  O   UNL     1      42.621 -10.630   8.190  1.00  0.00    -0.339 OA
BRANCH   8   9
HETATM    9  C   UNL     1      42.940 -10.673   9.519  1.00  0.00     0.102 A 
HETATM   10  C   UNL     1      44.254 -10.682   9.997  1.00  0.00     0.101 A 
HETATM   11  C   UNL     1      44.504 -10.675  11.369  1.00  0.00     0.039 A 
HETATM   12  C   UNL     1      43.436 -10.719  12.267  1.00  0.00     0.003 A 
HETATM   13  C   UNL     1      42.125 -10.763  11.793  1.00  0.00     0.003 A 
HETATM   14  C   UNL     1      41.876 -10.746  10.419  1.00  0.00     0.039 A 
BRANCH  10  15
HETATM   15  O   UNL     1      45.331 -10.619   9.153  1.00  0.00    -0.353 OA
HETATM   16  C   UNL     1      45.810 -11.939   8.882  1.00  0.00     0.210 C 
ENDBRANCH  10  15
ENDBRANCH   8   9
ENDBRANCH   7   8
ENDBRANCH   4   7
ENDBRANCH   1   3
BRANCH   1  17
HETATM   17  N   UNL     1      40.399 -14.398   6.437  1.00  0.00    -0.274 N 
HETATM   18  H   UNL     1      40.480 -14.421   7.452  1.00  0.00     0.189 HD
BRANCH  17  19
HETATM   19  N   UNL     1      40.082 -15.643   5.857  1.00  0.00    -0.274 N 
HETATM   20  H   UNL     1      39.091 -15.884   5.876  1.00  0.00     0.189 HD
BRANCH  19  21
HETATM   21  C   UNL     1      41.004 -16.654   5.807  1.00  0.00     0.191 C 
HETATM   22  S   UNL     1      42.156 -16.938   6.995  1.00  0.00    -0.039 SA
BRANCH  21  23
HETATM   23  N   UNL     1      40.966 -17.501   4.738  1.00  0.00    -0.332 N 
HETATM   24  H   UNL     1      40.233 -18.199   4.816  1.00  0.00     0.168 HD
BRANCH  23  25
HETATM   25  C   UNL     1      41.803 -17.628   3.609  1.00  0.00     0.034 A 
HETATM   26  C   UNL     1      43.014 -18.323   3.599  1.00  0.00     0.029 A 
HETATM   27  C   UNL     1      43.769 -18.416   2.425  1.00  0.00     0.002 A 
HETATM   28  C   UNL     1      43.310 -17.833   1.247  1.00  0.00     0.000 A 
HETATM   29  C   UNL     1      42.089 -17.164   1.238  1.00  0.00     0.002 A 
HETATM   30  C   UNL     1      41.337 -17.069   2.412  1.00  0.00     0.029 A 
ENDBRANCH  23  25
ENDBRANCH  21  23
ENDBRANCH  19  21
ENDBRANCH  17  19
ENDBRANCH   1  17
TORSDOF 10
ENDMDL
MODEL 9
REMARK VINA RESULT:      -7.1      2.936      4.904
REMARK  10 active torsions:
REMARK  status: ('A' for Active; 'I' for Inactive)
REMARK    1  A    between atoms: O_2  and  C_3 
REMARK    2  A    between atoms: C_4  and  O_5 
REMARK    3  A    between atoms: O_5  and  C_6 
REMARK    4  A    between atoms: C_6  and  C_7 
REMARK       I    between atoms: C_7  and  N_8 
REMARK    5  A    between atoms: N_8  and  C_9 
REMARK    6  A    between atoms: C_9  and  N_10 
REMARK    7  A    between atoms: N_10  and  N_11 
REMARK    8  A    between atoms: N_11  and  C_12 
REMARK    9  A    between atoms: C_12  and  N_13 
REMARK   10  A    between atoms: N_13  and  C_14 
ROOT
HETATM    1  C   UNL     1      41.540 -12.585   5.977  1.00  0.00     0.193 C 
HETATM    2  S   UNL     1      40.550 -11.530   6.820  1.00  0.00    -0.039 SA
ENDROOT
BRANCH   1   3
HETATM    3  N   UNL     1      42.648 -13.269   6.485  1.00  0.00    -0.301 N 
HETATM    4  C   UNL     1      43.738 -13.853   5.828  1.00  0.00     0.248 C 
HETATM    5  O   UNL     1      43.909 -13.900   4.615  1.00  0.00    -0.271 OA
HETATM    6  H   UNL     1      42.641 -13.393   7.487  1.00  0.00     0.171 HD
BRANCH   4   7
HETATM    7  C   UNL     1      44.742 -14.485   6.803  1.00  0.00     0.278 C 
BRANCH   7   8
HETATM    8  O   UNL     1      44.250 -15.582   7.567  1.00  0.00    -0.339 OA
BRANCH   8   9
HETATM    9  C   UNL     1      43.993 -16.698   6.818  1.00  0.00     0.102 A 
HETATM   10  C   UNL     1      42.715 -17.051   6.375  1.00  0.00     0.101 A 
HETATM   11  C   UNL     1      42.535 -18.177   5.570  1.00  0.00     0.039 A 
HETATM   12  C   UNL     1      43.628 -18.985   5.257  1.00  0.00     0.003 A 
HETATM   13  C   UNL     1      44.897 -18.663   5.741  1.00  0.00     0.003 A 
HETATM   14  C   UNL     1      45.079 -17.524   6.526  1.00  0.00     0.039 A 
BRANCH  10  15
HETATM   15  O   UNL     1      41.616 -16.277   6.642  1.00  0.00    -0.353 OA
HETATM   16  C   UNL     1      40.432 -16.957   6.217  1.00  0.00     0.210 C 
ENDBRANCH  10  15
ENDBRANCH   8   9
ENDBRANCH   7   8
ENDBRANCH   4   7
ENDBRANCH   1   3
BRANCH   1  17
HETATM   17  N   UNL     1      41.316 -12.938   4.644  1.00  0.00    -0.274 N 
HETATM   18  H   UNL     1      41.358 -12.243   3.901  1.00  0.00     0.189 HD
BRANCH  17  19
HETATM   19  N   UNL     1      40.550 -14.077   4.324  1.00  0.00    -0.274 N 
HETATM   20  H   UNL     1      40.317 -14.674   5.118  1.00  0.00     0.189 HD
BRANCH  19  21
HETATM   21  C   UNL     1      40.603 -14.635   3.075  1.00  0.00     0.191 C 
HETATM   22  S   UNL     1      39.268 -14.834   2.076  1.00  0.00    -0.039 SA
BRANCH  21  23
HETATM   23  N   UNL     1      41.821 -15.028   2.601  1.00  0.00    -0.332 N 
HETATM   24  H   UNL     1      42.423 -14.244   2.369  1.00  0.00     0.168 HD
BRANCH  23  25
HETATM   25  C   UNL     1      42.347 -16.303   2.302  1.00  0.00     0.034 A 
HETATM   26  C   UNL     1      41.573 -17.450   2.113  1.00  0.00     0.029 A 
HETATM   27  C   UNL     1      42.180 -18.670   1.796  1.00  0.00     0.002 A 
HETATM   28  C   UNL     1      43.562 -18.750   1.648  1.00  0.00     0.000 A 
HETATM   29  C   UNL     1      44.340 -17.606   1.804  1.00  0.00     0.002 A 
HETATM   30  C   UNL     1      43.733 -16.388   2.123  1.00  0.00     0.029 A 
ENDBRANCH  23  25
ENDBRANCH  21  23
ENDBRANCH  19  21
ENDBRANCH  17  19
ENDBRANCH   1  17
TORSDOF 10
ENDMDL
MODEL 10
REMARK VINA RESULT:      -7.0      2.573      3.471
REMARK  10 active torsions:
REMARK  status: ('A' for Active; 'I' for Inactive)
REMARK    1  A    between atoms: O_2  and  C_3 
REMARK    2  A    between atoms: C_4  and  O_5 
REMARK    3  A    between atoms: O_5  and  C_6 
REMARK    4  A    between atoms: C_6  and  C_7 
REMARK       I    between atoms: C_7  and  N_8 
REMARK    5  A    between atoms: N_8  and  C_9 
REMARK    6  A    between atoms: C_9  and  N_10 
REMARK    7  A    between atoms: N_10  and  N_11 
REMARK    8  A    between atoms: N_11  and  C_12 
REMARK    9  A    between atoms: C_12  and  N_13 
REMARK   10  A    between atoms: N_13  and  C_14 
ROOT
HETATM    1  C   UNL     1      43.041 -15.504   6.006  1.00  0.00     0.193 C 
HETATM    2  S   UNL     1      44.347 -15.025   6.936  1.00  0.00    -0.039 SA
ENDROOT
BRANCH   1   3
HETATM    3  N   UNL     1      43.067 -16.408   4.940  1.00  0.00    -0.301 N 
HETATM    4  C   UNL     1      42.170 -17.421   4.582  1.00  0.00     0.248 C 
HETATM    5  O   UNL     1      41.157 -17.740   5.196  1.00  0.00    -0.271 OA
HETATM    6  H   UNL     1      43.886 -16.340   4.354  1.00  0.00     0.171 HD
BRANCH   4   7
HETATM    7  C   UNL     1      42.596 -18.159   3.304  1.00  0.00     0.278 C 
BRANCH   7   8
HETATM    8  O   UNL     1      43.978 -18.494   3.218  1.00  0.00    -0.339 OA
BRANCH   8   9
HETATM    9  C   UNL     1      44.234 -19.817   3.449  1.00  0.00     0.102 A 
HETATM   10  C   UNL     1      44.625 -20.321   4.693  1.00  0.00     0.101 A 
HETATM   11  C   UNL     1      44.820 -21.692   4.868  1.00  0.00     0.039 A 
HETATM   12  C   UNL     1      44.681 -22.554   3.779  1.00  0.00     0.003 A 
HETATM   13  C   UNL     1      44.343 -22.047   2.524  1.00  0.00     0.003 A 
HETATM   14  C   UNL     1      44.125 -20.679   2.357  1.00  0.00     0.039 A 
BRANCH  10  15
HETATM   15  O   UNL     1      44.753 -19.515   5.793  1.00  0.00    -0.353 OA
HETATM   16  C   UNL     1      43.819 -19.917   6.799  1.00  0.00     0.210 C 
ENDBRANCH  10  15
ENDBRANCH   8   9
ENDBRANCH   7   8
ENDBRANCH   4   7
ENDBRANCH   1   3
BRANCH   1  17
HETATM   17  N   UNL     1      41.735 -15.069   6.246  1.00  0.00    -0.274 N 
HETATM   18  H   UNL     1      40.935 -15.667   6.046  1.00  0.00     0.189 HD
BRANCH  17  19
HETATM   19  N   UNL     1      41.433 -13.693   6.274  1.00  0.00    -0.274 N 
HETATM   20  H   UNL     1      41.409 -13.278   7.205  1.00  0.00     0.189 HD
BRANCH  19  21
HETATM   21  C   UNL     1      40.697 -13.112   5.276  1.00  0.00     0.191 C 
HETATM   22  S   UNL     1      39.256 -12.287   5.526  1.00  0.00    -0.039 SA
BRANCH  21  23
HETATM   23  N   UNL     1      41.180 -13.182   4.001  1.00  0.00    -0.332 N 
HETATM   24  H   UNL     1      41.676 -12.342   3.722  1.00  0.00     0.168 HD
BRANCH  23  25
HETATM   25  C   UNL     1      41.041 -14.163   2.996  1.00  0.00     0.034 A 
HETATM   26  C   UNL     1      39.949 -15.025   2.882  1.00  0.00     0.029 A 
HETATM   27  C   UNL     1      39.884 -15.954   1.837  1.00  0.00     0.002 A 
HETATM   28  C   UNL     1      40.900 -16.015   0.887  1.00  0.00     0.000 A 
HETATM   29  C   UNL     1      41.978 -15.138   0.974  1.00  0.00     0.002 A 
HETATM   30  C   UNL     1      42.044 -14.214   2.019  1.00  0.00     0.029 A 
ENDBRANCH  23  25
ENDBRANCH  21  23
ENDBRANCH  19  21
ENDBRANCH  17  19
ENDBRANCH   1  17
TORSDOF 10
ENDMDL
