MODEL 1
REMARK VINA RESULT:      -8.1      0.000      0.000
REMARK  6 active torsions:
REMARK  status: ('A' for Active; 'I' for Inactive)
REMARK    1  A    between atoms: C_7  and  S_8 
REMARK    2  A    between atoms: S_8  and  C_9 
REMARK    3  A    between atoms: C_9  and  C_10 
REMARK    4  A    between atoms: C_18  and  C_19 
REMARK    5  A    between atoms: C_29  and  C_30 
REMARK    6  A    between atoms: C_30  and  O_31 
ROOT
HETATM    1  C   UNL     1      42.499 -11.803   7.646  1.00  0.00     0.070 C 
HETATM    2  C   UNL     1      42.616 -12.464   6.296  1.00  0.00     0.037 C 
HETATM    3  N   UNL     1      41.777 -11.960   5.305  1.00  0.00    -0.192 N 
HETATM    4  C   UNL     1      41.904 -12.301   4.008  1.00  0.00     0.726 A 
HETATM    5  N   UNL     1      42.708 -13.354   3.666  1.00  0.00    -0.082 N 
HETATM    6  N   UNL     1      42.831 -13.461   2.327  1.00  0.00    -0.128 NA
HETATM    7  C   UNL     1      42.010 -12.483   1.922  1.00  0.00     0.226 A 
HETATM    8  N   UNL     1      41.422 -11.753   2.925  1.00  0.00    -0.035 NA
HETATM    9  C   UNL     1      43.430 -14.181   4.641  1.00  0.00     0.204 C 
HETATM   10  C   UNL     1      43.450 -13.496   6.008  1.00  0.00     0.070 C 
HETATM   11  H   UNL     1      41.258 -11.113   5.524  1.00  0.00     0.184 HD
ENDROOT
BRANCH   9  12
HETATM   12  C   UNL     1      42.816 -15.589   4.648  1.00  0.00    -0.017 A 
HETATM   13  C   UNL     1      43.175 -16.583   3.683  1.00  0.00    -0.017 A 
HETATM   14  C   UNL     1      42.576 -17.868   3.775  1.00  0.00    -0.025 A 
HETATM   15  C   UNL     1      44.089 -16.382   2.618  1.00  0.00     0.013 A 
HETATM   16  C   UNL     1      42.912 -18.879   2.859  1.00  0.00     0.012 A 
HETATM   17  C   UNL     1      41.636 -18.140   4.776  1.00  0.00     0.012 A 
HETATM   18  C   UNL     1      43.826 -18.647   1.834  1.00  0.00     0.001 A 
HETATM   19  C   UNL     1      44.411 -17.397   1.711  1.00  0.00     0.001 A 
HETATM   20  C   UNL     1      41.261 -17.163   5.688  1.00  0.00     0.002 A 
HETATM   21  C   UNL     1      41.839 -15.901   5.622  1.00  0.00     0.010 A 
ENDBRANCH   9  12
BRANCH  10  22
HETATM   22  C   UNL     1      44.491 -14.001   6.928  1.00  0.00     0.293 C 
HETATM   23  O   UNL     1      44.315 -14.910   7.721  1.00  0.00    -0.259 OA
BRANCH  22  24
HETATM   24  O   UNL     1      45.675 -13.389   6.674  1.00  0.00    -0.323 OA
HETATM   25  C   UNL     1      46.201 -12.634   7.767  1.00  0.00     0.213 C 
ENDBRANCH  22  24
ENDBRANCH  10  22
BRANCH   7  26
HETATM   26  S   UNL     1      41.740 -12.093   0.247  1.00  0.00    -0.083 SA
BRANCH  26  27
HETATM   27  C   UNL     1      40.199 -12.987  -0.085  1.00  0.00     0.123 C 
BRANCH  27  28
HETATM   28  C   UNL     1      40.315 -14.436   0.333  1.00  0.00    -0.027 A 
HETATM   29  C   UNL     1      39.701 -14.948   1.489  1.00  0.00     0.041 A 
HETATM   30 CL   UNL     1      38.717 -13.970   2.518  1.00  0.00    -0.084 Cl
HETATM   31  C   UNL     1      39.875 -16.289   1.851  1.00  0.00     0.024 A 
HETATM   32  C   UNL     1      40.667 -17.132   1.072  1.00  0.00     0.002 A 
HETATM   33  C   UNL     1      41.287 -16.638  -0.070  1.00  0.00     0.001 A 
HETATM   34  C   UNL     1      41.115 -15.302  -0.437  1.00  0.00     0.009 A 
ENDBRANCH  27  28
ENDBRANCH  26  27
ENDBRANCH   7  26
TORSDOF 6
ENDMDL
MODEL 2
REMARK VINA RESULT:      -8.0      3.998      7.362
REMARK  6 active torsions:
REMARK  status: ('A' for Active; 'I' for Inactive)
REMARK    1  A    between atoms: C_7  and  S_8 
REMARK    2  A    between atoms: S_8  and  C_9 
REMARK    3  A    between atoms: C_9  and  C_10 
REMARK    4  A    between atoms: C_18  and  C_19 
REMARK    5  A    between atoms: C_29  and  C_30 
REMARK    6  A    between atoms: C_30  and  O_31 
ROOT
HETATM    1  C   UNL     1      41.712 -14.032  -3.344  1.00  0.00     0.070 C 
HETATM    2  C   UNL     1      41.582 -14.123  -1.844  1.00  0.00     0.037 C 
HETATM    3  N   UNL     1      41.385 -15.404  -1.335  1.00  0.00    -0.192 N 
HETATM    4  C   UNL     1      41.453 -15.676  -0.017  1.00  0.00     0.726 A 
HETATM    5  N   UNL     1      41.472 -14.646   0.882  1.00  0.00    -0.082 N 
HETATM    6  N   UNL     1      41.689 -15.093   2.136  1.00  0.00    -0.128 NA
HETATM    7  C   UNL     1      41.715 -16.416   1.927  1.00  0.00     0.226 A 
HETATM    8  N   UNL     1      41.571 -16.810   0.619  1.00  0.00    -0.035 NA
HETATM    9  C   UNL     1      41.383 -13.230   0.503  1.00  0.00     0.204 C 
HETATM   10  C   UNL     1      41.631 -13.063  -0.996  1.00  0.00     0.070 C 
HETATM   11  H   UNL     1      41.475 -16.181  -1.985  1.00  0.00     0.184 HD
ENDROOT
BRANCH   9  12
HETATM   12  C   UNL     1      40.036 -12.671   0.988  1.00  0.00    -0.017 A 
HETATM   13  C   UNL     1      39.911 -11.933   2.208  1.00  0.00    -0.017 A 
HETATM   14  C   UNL     1      38.632 -11.432   2.572  1.00  0.00    -0.025 A 
HETATM   15  C   UNL     1      40.978 -11.666   3.104  1.00  0.00     0.013 A 
HETATM   16  C   UNL     1      38.466 -10.689   3.753  1.00  0.00     0.012 A 
HETATM   17  C   UNL     1      37.518 -11.681   1.761  1.00  0.00     0.012 A 
HETATM   18  C   UNL     1      39.542 -10.435   4.600  1.00  0.00     0.001 A 
HETATM   19  C   UNL     1      40.796 -10.928   4.278  1.00  0.00     0.001 A 
HETATM   20  C   UNL     1      37.636 -12.429   0.597  1.00  0.00     0.002 A 
HETATM   21  C   UNL     1      38.878 -12.923   0.217  1.00  0.00     0.010 A 
ENDBRANCH   9  12
BRANCH  10  22
HETATM   22  C   UNL     1      41.994 -11.690  -1.406  1.00  0.00     0.293 C 
HETATM   23  O   UNL     1      41.214 -10.902  -1.912  1.00  0.00    -0.259 OA
BRANCH  22  24
HETATM   24  O   UNL     1      43.269 -11.415  -1.030  1.00  0.00    -0.323 OA
HETATM   25  C   UNL     1      43.671 -10.060  -1.241  1.00  0.00     0.213 C 
ENDBRANCH  22  24
ENDBRANCH  10  22
BRANCH   7  26
HETATM   26  S   UNL     1      41.982 -17.580   3.194  1.00  0.00    -0.083 SA
BRANCH  26  27
HETATM   27  C   UNL     1      43.734 -17.976   2.952  1.00  0.00     0.123 C 
BRANCH  27  28
HETATM   28  C   UNL     1      43.960 -19.471   2.993  1.00  0.00    -0.027 A 
HETATM   29  C   UNL     1      44.549 -20.124   4.089  1.00  0.00     0.041 A 
HETATM   30 CL   UNL     1      45.031 -19.274   5.515  1.00  0.00    -0.084 Cl
HETATM   31  C   UNL     1      44.772 -21.506   4.059  1.00  0.00     0.024 A 
HETATM   32  C   UNL     1      44.418 -22.251   2.935  1.00  0.00     0.002 A 
HETATM   33  C   UNL     1      43.841 -21.618   1.838  1.00  0.00     0.001 A 
HETATM   34  C   UNL     1      43.615 -20.241   1.866  1.00  0.00     0.009 A 
ENDBRANCH  27  28
ENDBRANCH  26  27
ENDBRANCH   7  26
TORSDOF 6
ENDMDL
MODEL 3
REMARK VINA RESULT:      -7.8      3.440      5.527
REMARK  6 active torsions:
REMARK  status: ('A' for Active; 'I' for Inactive)
REMARK    1  A    between atoms: C_7  and  S_8 
REMARK    2  A    between atoms: S_8  and  C_9 
REMARK    3  A    between atoms: C_9  and  C_10 
REMARK    4  A    between atoms: C_18  and  C_19 
REMARK    5  A    between atoms: C_29  and  C_30 
REMARK    6  A    between atoms: C_30  and  O_31 
ROOT
HETATM    1  C   UNL     1      41.736 -10.904   7.281  1.00  0.00     0.070 C 
HETATM    2  C   UNL     1      41.929 -12.239   6.607  1.00  0.00     0.037 C 
HETATM    3  N   UNL     1      43.148 -12.866   6.853  1.00  0.00    -0.192 N 
HETATM    4  C   UNL     1      43.390 -14.142   6.493  1.00  0.00     0.726 A 
HETATM    5  N   UNL     1      42.523 -14.778   5.648  1.00  0.00    -0.082 N 
HETATM    6  N   UNL     1      42.838 -16.083   5.513  1.00  0.00    -0.128 NA
HETATM    7  C   UNL     1      43.955 -16.146   6.249  1.00  0.00     0.226 A 
HETATM    8  N   UNL     1      44.325 -14.974   6.862  1.00  0.00    -0.035 NA
HETATM    9  C   UNL     1      41.338 -14.138   5.061  1.00  0.00     0.204 C 
HETATM   10  C   UNL     1      41.020 -12.833   5.792  1.00  0.00     0.070 C 
HETATM   11  H   UNL     1      43.749 -12.451   7.560  1.00  0.00     0.184 HD
ENDROOT
BRANCH   9  12
HETATM   12  C   UNL     1      41.558 -13.980   3.549  1.00  0.00    -0.017 A 
HETATM   13  C   UNL     1      41.306 -15.044   2.625  1.00  0.00    -0.017 A 
HETATM   14  C   UNL     1      41.516 -14.806   1.240  1.00  0.00    -0.025 A 
HETATM   15  C   UNL     1      40.868 -16.343   2.989  1.00  0.00     0.013 A 
HETATM   16  C   UNL     1      41.265 -15.817   0.297  1.00  0.00     0.012 A 
HETATM   17  C   UNL     1      41.982 -13.562   0.799  1.00  0.00     0.012 A 
HETATM   18  C   UNL     1      40.820 -17.076   0.692  1.00  0.00     0.001 A 
HETATM   19  C   UNL     1      40.626 -17.340   2.038  1.00  0.00     0.001 A 
HETATM   20  C   UNL     1      42.262 -12.543   1.700  1.00  0.00     0.002 A 
HETATM   21  C   UNL     1      42.058 -12.751   3.059  1.00  0.00     0.010 A 
ENDBRANCH   9  12
BRANCH  10  22
HETATM   22  C   UNL     1      39.641 -12.342   5.590  1.00  0.00     0.293 C 
HETATM   23  O   UNL     1      38.678 -12.736   6.226  1.00  0.00    -0.259 OA
BRANCH  22  24
HETATM   24  O   UNL     1      39.636 -11.325   4.691  1.00  0.00    -0.323 OA
HETATM   25  C   UNL     1      38.613 -11.415   3.697  1.00  0.00     0.213 C 
ENDBRANCH  22  24
ENDBRANCH  10  22
BRANCH   7  26
HETATM   26  S   UNL     1      44.861 -17.613   6.489  1.00  0.00    -0.083 SA
BRANCH  26  27
HETATM   27  C   UNL     1      43.624 -18.870   6.068  1.00  0.00     0.123 C 
BRANCH  27  28
HETATM   28  C   UNL     1      43.888 -19.448   4.696  1.00  0.00    -0.027 A 
HETATM   29  C   UNL     1      44.377 -20.750   4.498  1.00  0.00     0.041 A 
HETATM   30 CL   UNL     1      44.681 -21.829   5.813  1.00  0.00    -0.084 Cl
HETATM   31  C   UNL     1      44.641 -21.222   3.206  1.00  0.00     0.024 A 
HETATM   32  C   UNL     1      44.430 -20.400   2.100  1.00  0.00     0.002 A 
HETATM   33  C   UNL     1      43.954 -19.105   2.280  1.00  0.00     0.001 A 
HETATM   34  C   UNL     1      43.686 -18.633   3.566  1.00  0.00     0.009 A 
ENDBRANCH  27  28
ENDBRANCH  26  27
ENDBRANCH   7  26
TORSDOF 6
ENDMDL
MODEL 4
REMARK VINA RESULT:      -7.6      1.794      2.576
REMARK  6 active torsions:
REMARK  status: ('A' for Active; 'I' for Inactive)
REMARK    1  A    between atoms: C_7  and  S_8 
REMARK    2  A    between atoms: S_8  and  C_9 
REMARK    3  A    between atoms: C_9  and  C_10 
REMARK    4  A    between atoms: C_18  and  C_19 
REMARK    5  A    between atoms: C_29  and  C_30 
REMARK    6  A    between atoms: C_30  and  O_31 
ROOT
HETATM    1  C   UNL     1      41.286 -11.618   6.150  1.00  0.00     0.070 C 
HETATM    2  C   UNL     1      41.590 -12.028   4.731  1.00  0.00     0.037 C 
HETATM    3  N   UNL     1      41.060 -11.205   3.741  1.00  0.00    -0.192 N 
HETATM    4  C   UNL     1      41.407 -11.318   2.444  1.00  0.00     0.726 A 
HETATM    5  N   UNL     1      42.107 -12.418   2.030  1.00  0.00    -0.082 N 
HETATM    6  N   UNL     1      42.494 -12.296   0.743  1.00  0.00    -0.128 NA
HETATM    7  C   UNL     1      41.924 -11.127   0.421  1.00  0.00     0.226 A 
HETATM    8  N   UNL     1      41.247 -10.501   1.439  1.00  0.00    -0.035 NA
HETATM    9  C   UNL     1      42.482 -13.528   2.915  1.00  0.00     0.204 C 
HETATM   10  C   UNL     1      42.311 -13.123   4.379  1.00  0.00     0.070 C 
HETATM   11  H   UNL     1      40.631 -10.334   4.043  1.00  0.00     0.184 HD
ENDROOT
BRANCH   9  12
HETATM   12  C   UNL     1      41.687 -14.778   2.506  1.00  0.00    -0.017 A 
HETATM   13  C   UNL     1      42.327 -16.015   2.177  1.00  0.00    -0.017 A 
HETATM   14  C   UNL     1      41.515 -17.129   1.830  1.00  0.00    -0.025 A 
HETATM   15  C   UNL     1      43.730 -16.220   2.157  1.00  0.00     0.013 A 
HETATM   16  C   UNL     1      42.100 -18.367   1.516  1.00  0.00     0.012 A 
HETATM   17  C   UNL     1      40.121 -17.004   1.791  1.00  0.00     0.012 A 
HETATM   18  C   UNL     1      43.482 -18.533   1.522  1.00  0.00     0.001 A 
HETATM   19  C   UNL     1      44.297 -17.458   1.838  1.00  0.00     0.001 A 
HETATM   20  C   UNL     1      39.505 -15.791   2.075  1.00  0.00     0.002 A 
HETATM   21  C   UNL     1      40.278 -14.690   2.422  1.00  0.00     0.010 A 
ENDBRANCH   9  12
BRANCH  10  22
HETATM   22  C   UNL     1      43.052 -13.971   5.337  1.00  0.00     0.293 C 
HETATM   23  O   UNL     1      42.592 -14.975   5.854  1.00  0.00    -0.259 OA
BRANCH  22  24
HETATM   24  O   UNL     1      44.330 -13.532   5.455  1.00  0.00    -0.323 OA
HETATM   25  C   UNL     1      45.014 -13.998   6.620  1.00  0.00     0.213 C 
ENDBRANCH  22  24
ENDBRANCH  10  22
BRANCH   7  26
HETATM   26  S   UNL     1      42.071 -10.391  -1.149  1.00  0.00    -0.083 SA
BRANCH  26  27
HETATM   27  C   UNL     1      40.565 -10.984  -1.965  1.00  0.00     0.123 C 
BRANCH  27  28
HETATM   28  C   UNL     1      40.594 -12.487  -2.125  1.00  0.00    -0.027 A 
HETATM   29  C   UNL     1      39.818 -13.353  -1.336  1.00  0.00     0.041 A 
HETATM   30 CL   UNL     1      38.722 -12.769  -0.134  1.00  0.00    -0.084 Cl
HETATM   31  C   UNL     1      39.913 -14.741  -1.498  1.00  0.00     0.024 A 
HETATM   32  C   UNL     1      40.787 -15.280  -2.441  1.00  0.00     0.002 A 
HETATM   33  C   UNL     1      41.568 -14.436  -3.225  1.00  0.00     0.001 A 
HETATM   34  C   UNL     1      41.473 -13.053  -3.068  1.00  0.00     0.009 A 
ENDBRANCH  27  28
ENDBRANCH  26  27
ENDBRANCH   7  26
TORSDOF 6
ENDMDL
MODEL 5
REMARK VINA RESULT:      -7.5      3.306      6.096
REMARK  6 active torsions:
REMARK  status: ('A' for Active; 'I' for Inactive)
REMARK    1  A    between atoms: C_7  and  S_8 
REMARK    2  A    between atoms: S_8  and  C_9 
REMARK    3  A    between atoms: C_9  and  C_10 
REMARK    4  A    between atoms: C_18  and  C_19 
REMARK    5  A    between atoms: C_29  and  C_30 
REMARK    6  A    between atoms: C_30  and  O_31 
ROOT
HETATM    1  C   UNL     1      41.434 -10.671   6.226  1.00  0.00     0.070 C 
HETATM    2  C   UNL     1      41.239 -11.971   5.487  1.00  0.00     0.037 C 
HETATM    3  N   UNL     1      42.165 -12.971   5.774  1.00  0.00    -0.192 N 
HETATM    4  C   UNL     1      42.009 -14.242   5.356  1.00  0.00     0.726 A 
HETATM    5  N   UNL     1      41.054 -14.529   4.419  1.00  0.00    -0.082 N 
HETATM    6  N   UNL     1      40.940 -15.860   4.228  1.00  0.00    -0.128 NA
HETATM    7  C   UNL     1      41.914 -16.311   5.030  1.00  0.00     0.226 A 
HETATM    8  N   UNL     1      42.592 -15.347   5.734  1.00  0.00    -0.035 NA
HETATM    9  C   UNL     1      40.192 -13.517   3.796  1.00  0.00     0.204 C 
HETATM   10  C   UNL     1      40.255 -12.206   4.581  1.00  0.00     0.070 C 
HETATM   11  H   UNL     1      42.809 -12.800   6.542  1.00  0.00     0.184 HD
ENDROOT
BRANCH   9  12
HETATM   12  C   UNL     1      40.573 -13.386   2.313  1.00  0.00    -0.017 A 
HETATM   13  C   UNL     1      39.619 -13.570   1.262  1.00  0.00    -0.017 A 
HETATM   14  C   UNL     1      40.051 -13.409  -0.083  1.00  0.00    -0.025 A 
HETATM   15  C   UNL     1      38.258 -13.916   1.456  1.00  0.00     0.013 A 
HETATM   16  C   UNL     1      39.146 -13.563  -1.146  1.00  0.00     0.012 A 
HETATM   17  C   UNL     1      41.387 -13.102  -0.365  1.00  0.00     0.012 A 
HETATM   18  C   UNL     1      37.812 -13.889  -0.914  1.00  0.00     0.001 A 
HETATM   19  C   UNL     1      37.369 -14.070   0.387  1.00  0.00     0.001 A 
HETATM   20  C   UNL     1      42.318 -12.962   0.656  1.00  0.00     0.002 A 
HETATM   21  C   UNL     1      41.918 -13.107   1.979  1.00  0.00     0.010 A 
ENDBRANCH   9  12
BRANCH  10  22
HETATM   22  C   UNL     1      39.130 -11.284   4.320  1.00  0.00     0.293 C 
HETATM   23  O   UNL     1      38.113 -11.244   4.991  1.00  0.00    -0.259 OA
BRANCH  22  24
HETATM   24  O   UNL     1      39.452 -10.431   3.315  1.00  0.00    -0.323 OA
HETATM   25  C   UNL     1      38.400 -10.194   2.377  1.00  0.00     0.213 C 
ENDBRANCH  22  24
ENDBRANCH  10  22
BRANCH   7  26
HETATM   26  S   UNL     1      42.274 -18.001   5.240  1.00  0.00    -0.083 SA
BRANCH  26  27
HETATM   27  C   UNL     1      43.907 -18.118   4.463  1.00  0.00     0.123 C 
BRANCH  27  28
HETATM   28  C   UNL     1      44.058 -19.426   3.718  1.00  0.00    -0.027 A 
HETATM   29  C   UNL     1      43.590 -19.614   2.407  1.00  0.00     0.041 A 
HETATM   30 CL   UNL     1      42.835 -18.345   1.509  1.00  0.00    -0.084 Cl
HETATM   31  C   UNL     1      43.719 -20.858   1.777  1.00  0.00     0.024 A 
HETATM   32  C   UNL     1      44.307 -21.929   2.449  1.00  0.00     0.002 A 
HETATM   33  C   UNL     1      44.769 -21.760   3.750  1.00  0.00     0.001 A 
HETATM   34  C   UNL     1      44.644 -20.521   4.380  1.00  0.00     0.009 A 
ENDBRANCH  27  28
ENDBRANCH  26  27
ENDBRANCH   7  26
TORSDOF 6
ENDMDL
MODEL 6
REMARK VINA RESULT:      -7.5      4.164      6.824
REMARK  6 active torsions:
REMARK  status: ('A' for Active; 'I' for Inactive)
REMARK    1  A    between atoms: C_7  and  S_8 
REMARK    2  A    between atoms: S_8  and  C_9 
REMARK    3  A    between atoms: C_9  and  C_10 
REMARK    4  A    between atoms: C_18  and  C_19 
REMARK    5  A    between atoms: C_29  and  C_30 
REMARK    6  A    between atoms: C_30  and  O_31 
ROOT
HETATM    1  C   UNL     1      38.039 -10.419   3.628  1.00  0.00     0.070 C 
HETATM    2  C   UNL     1      38.727 -11.633   3.055  1.00  0.00     0.037 C 
HETATM    3  N   UNL     1      39.513 -12.356   3.948  1.00  0.00    -0.192 N 
HETATM    4  C   UNL     1      40.024 -13.565   3.646  1.00  0.00     0.726 A 
HETATM    5  N   UNL     1      39.989 -14.006   2.351  1.00  0.00    -0.082 N 
HETATM    6  N   UNL     1      40.406 -15.285   2.257  1.00  0.00    -0.128 NA
HETATM    7  C   UNL     1      40.751 -15.529   3.528  1.00  0.00     0.226 A 
HETATM    8  N   UNL     1      40.533 -14.496   4.407  1.00  0.00    -0.035 NA
HETATM    9  C   UNL     1      39.454 -13.216   1.235  1.00  0.00     0.204 C 
HETATM   10  C   UNL     1      38.638 -12.035   1.761  1.00  0.00     0.070 C 
HETATM   11  H   UNL     1      39.459 -12.096   4.930  1.00  0.00     0.184 HD
ENDROOT
BRANCH   9  12
HETATM   12  C   UNL     1      40.614 -12.821   0.307  1.00  0.00    -0.017 A 
HETATM   13  C   UNL     1      40.848 -13.478  -0.943  1.00  0.00    -0.017 A 
HETATM   14  C   UNL     1      41.930 -13.035  -1.751  1.00  0.00    -0.025 A 
HETATM   15  C   UNL     1      40.081 -14.560  -1.443  1.00  0.00     0.013 A 
HETATM   16  C   UNL     1      42.187 -13.640  -2.993  1.00  0.00     0.012 A 
HETATM   17  C   UNL     1      42.759 -11.995  -1.315  1.00  0.00     0.012 A 
HETATM   18  C   UNL     1      41.402 -14.692  -3.457  1.00  0.00     0.001 A 
HETATM   19  C   UNL     1      40.352 -15.155  -2.680  1.00  0.00     0.001 A 
HETATM   20  C   UNL     1      42.552 -11.385  -0.085  1.00  0.00     0.002 A 
HETATM   21  C   UNL     1      41.496 -11.796   0.720  1.00  0.00     0.010 A 
ENDBRANCH   9  12
BRANCH  10  22
HETATM   22  C   UNL     1      37.713 -11.443   0.771  1.00  0.00     0.293 C 
HETATM   23  O   UNL     1      38.012 -10.530   0.021  1.00  0.00    -0.259 OA
BRANCH  22  24
HETATM   24  O   UNL     1      36.548 -12.139   0.749  1.00  0.00    -0.323 OA
HETATM   25  C   UNL     1      35.385 -11.343   0.514  1.00  0.00     0.213 C 
ENDBRANCH  22  24
ENDBRANCH  10  22
BRANCH   7  26
HETATM   26  S   UNL     1      41.369 -17.062   4.075  1.00  0.00    -0.083 SA
BRANCH  26  27
HETATM   27  C   UNL     1      42.969 -17.126   3.226  1.00  0.00     0.123 C 
BRANCH  27  28
HETATM   28  C   UNL     1      43.476 -18.548   3.137  1.00  0.00    -0.027 A 
HETATM   29  C   UNL     1      44.279 -19.135   4.129  1.00  0.00     0.041 A 
HETATM   30 CL   UNL     1      44.725 -18.292   5.570  1.00  0.00    -0.084 Cl
HETATM   31  C   UNL     1      44.754 -20.443   3.977  1.00  0.00     0.024 A 
HETATM   32  C   UNL     1      44.443 -21.177   2.833  1.00  0.00     0.002 A 
HETATM   33  C   UNL     1      43.656 -20.607   1.838  1.00  0.00     0.001 A 
HETATM   34  C   UNL     1      43.177 -19.304   1.987  1.00  0.00     0.009 A 
ENDBRANCH  27  28
ENDBRANCH  26  27
ENDBRANCH   7  26
TORSDOF 6
ENDMDL
MODEL 7
REMARK VINA RESULT:      -7.2      3.366      6.291
REMARK  6 active torsions:
REMARK  status: ('A' for Active; 'I' for Inactive)
REMARK    1  A    between atoms: C_7  and  S_8 
REMARK    2  A    between atoms: S_8  and  C_9 
REMARK    3  A    between atoms: C_9  and  C_10 
REMARK    4  A    between atoms: C_18  and  C_19 
REMARK    5  A    between atoms: C_29  and  C_30 
REMARK    6  A    between atoms: C_30  and  O_31 
ROOT
HETATM    1  C   UNL     1      39.414 -13.191  -0.920  1.00  0.00     0.070 C 
HETATM    2  C   UNL     1      40.297 -13.909   0.070  1.00  0.00     0.037 C 
HETATM    3  N   UNL     1      40.121 -15.289   0.142  1.00  0.00    -0.192 N 
HETATM    4  C   UNL     1      40.964 -16.091   0.821  1.00  0.00     0.726 A 
HETATM    5  N   UNL     1      41.882 -15.536   1.670  1.00  0.00    -0.082 N 
HETATM    6  N   UNL     1      42.733 -16.467   2.148  1.00  0.00    -0.128 NA
HETATM    7  C   UNL     1      42.219 -17.577   1.603  1.00  0.00     0.226 A 
HETATM    8  N   UNL     1      41.132 -17.385   0.786  1.00  0.00    -0.035 NA
HETATM    9  C   UNL     1      41.989 -14.094   1.927  1.00  0.00     0.204 C 
HETATM   10  C   UNL     1      41.209 -13.306   0.874  1.00  0.00     0.070 C 
HETATM   11  H   UNL     1      39.519 -15.717  -0.557  1.00  0.00     0.184 HD
ENDROOT
BRANCH   9  12
HETATM   12  C   UNL     1      41.556 -13.815   3.375  1.00  0.00    -0.017 A 
HETATM   13  C   UNL     1      42.490 -13.798   4.460  1.00  0.00    -0.017 A 
HETATM   14  C   UNL     1      42.009 -13.511   5.766  1.00  0.00    -0.025 A 
HETATM   15  C   UNL     1      43.878 -14.060   4.336  1.00  0.00     0.013 A 
HETATM   16  C   UNL     1      42.892 -13.466   6.858  1.00  0.00     0.012 A 
HETATM   17  C   UNL     1      40.646 -13.275   5.982  1.00  0.00     0.012 A 
HETATM   18  C   UNL     1      44.252 -13.715   6.694  1.00  0.00     0.001 A 
HETATM   19  C   UNL     1      44.744 -14.016   5.434  1.00  0.00     0.001 A 
HETATM   20  C   UNL     1      39.737 -13.330   4.933  1.00  0.00     0.002 A 
HETATM   21  C   UNL     1      40.185 -13.602   3.646  1.00  0.00     0.010 A 
ENDBRANCH   9  12
BRANCH  10  22
HETATM   22  C   UNL     1      41.593 -11.882   0.770  1.00  0.00     0.293 C 
HETATM   23  O   UNL     1      40.977 -10.971   1.297  1.00  0.00    -0.259 OA
BRANCH  22  24
HETATM   24  O   UNL     1      42.773 -11.765   0.111  1.00  0.00    -0.323 OA
HETATM   25  C   UNL     1      42.794 -10.750  -0.895  1.00  0.00     0.213 C 
ENDBRANCH  22  24
ENDBRANCH  10  22
BRANCH   7  26
HETATM   26  S   UNL     1      42.900 -19.162   1.838  1.00  0.00    -0.083 SA
BRANCH  26  27
HETATM   27  C   UNL     1      44.293 -18.794   2.938  1.00  0.00     0.123 C 
BRANCH  27  28
HETATM   28  C   UNL     1      44.218 -19.624   4.199  1.00  0.00    -0.027 A 
HETATM   29  C   UNL     1      43.731 -19.121   5.417  1.00  0.00     0.041 A 
HETATM   30 CL   UNL     1      43.129 -17.508   5.569  1.00  0.00    -0.084 Cl
HETATM   31  C   UNL     1      43.721 -19.921   6.565  1.00  0.00     0.024 A 
HETATM   32  C   UNL     1      44.204 -21.228   6.516  1.00  0.00     0.002 A 
HETATM   33  C   UNL     1      44.697 -21.739   5.320  1.00  0.00     0.001 A 
HETATM   34  C   UNL     1      44.706 -20.945   4.172  1.00  0.00     0.009 A 
ENDBRANCH  27  28
ENDBRANCH  26  27
ENDBRANCH   7  26
TORSDOF 6
ENDMDL
MODEL 8
REMARK VINA RESULT:      -7.1      3.603      6.865
REMARK  6 active torsions:
REMARK  status: ('A' for Active; 'I' for Inactive)
REMARK    1  A    between atoms: C_7  and  S_8 
REMARK    2  A    between atoms: S_8  and  C_9 
REMARK    3  A    between atoms: C_9  and  C_10 
REMARK    4  A    between atoms: C_18  and  C_19 
REMARK    5  A    between atoms: C_29  and  C_30 
REMARK    6  A    between atoms: C_30  and  O_31 
ROOT
HETATM    1  C   UNL     1      41.362 -11.517   1.699  1.00  0.00     0.070 C 
HETATM    2  C   UNL     1      41.162 -11.948   3.131  1.00  0.00     0.037 C 
HETATM    3  N   UNL     1      41.146 -10.921   4.071  1.00  0.00    -0.192 N 
HETATM    4  C   UNL     1      40.778 -11.119   5.352  1.00  0.00     0.726 A 
HETATM    5  N   UNL     1      40.649 -12.397   5.824  1.00  0.00    -0.082 N 
HETATM    6  N   UNL     1      40.136 -12.408   7.072  1.00  0.00    -0.128 NA
HETATM    7  C   UNL     1      40.051 -11.094   7.319  1.00  0.00     0.226 A 
HETATM    8  N   UNL     1      40.438 -10.274   6.287  1.00  0.00    -0.035 NA
HETATM    9  C   UNL     1      40.927 -13.595   5.022  1.00  0.00     0.204 C 
HETATM   10  C   UNL     1      41.017 -13.235   3.539  1.00  0.00     0.070 C 
HETATM   11  H   UNL     1      41.135  -9.968   3.716  1.00  0.00     0.184 HD
ENDROOT
BRANCH   9  12
HETATM   12  C   UNL     1      42.179 -14.286   5.583  1.00  0.00    -0.017 A 
HETATM   13  C   UNL     1      42.331 -15.710   5.580  1.00  0.00    -0.017 A 
HETATM   14  C   UNL     1      43.531 -16.267   6.099  1.00  0.00    -0.025 A 
HETATM   15  C   UNL     1      41.359 -16.625   5.103  1.00  0.00     0.013 A 
HETATM   16  C   UNL     1      43.729 -17.658   6.101  1.00  0.00     0.012 A 
HETATM   17  C   UNL     1      44.528 -15.436   6.622  1.00  0.00     0.012 A 
HETATM   18  C   UNL     1      42.756 -18.524   5.610  1.00  0.00     0.001 A 
HETATM   19  C   UNL     1      41.569 -18.008   5.116  1.00  0.00     0.001 A 
HETATM   20  C   UNL     1      44.363 -14.057   6.658  1.00  0.00     0.002 A 
HETATM   21  C   UNL     1      43.200 -13.489   6.150  1.00  0.00     0.010 A 
ENDBRANCH   9  12
BRANCH  10  22
HETATM   22  C   UNL     1      40.858 -14.383   2.622  1.00  0.00     0.293 C 
HETATM   23  O   UNL     1      41.779 -14.901   2.014  1.00  0.00    -0.259 OA
BRANCH  22  24
HETATM   24  O   UNL     1      39.578 -14.830   2.654  1.00  0.00    -0.323 OA
HETATM   25  C   UNL     1      38.828 -14.575   1.464  1.00  0.00     0.213 C 
ENDBRANCH  22  24
ENDBRANCH  10  22
BRANCH   7  26
HETATM   26  S   UNL     1      39.430 -10.438   8.807  1.00  0.00    -0.083 SA
BRANCH  26  27
HETATM   27  C   UNL     1      40.845  -9.463   9.385  1.00  0.00     0.123 C 
BRANCH  27  28
HETATM   28  C   UNL     1      41.918 -10.360   9.963  1.00  0.00    -0.027 A 
HETATM   29  C   UNL     1      41.928 -10.768  11.307  1.00  0.00     0.041 A 
HETATM   30 CL   UNL     1      40.684 -10.313  12.416  1.00  0.00    -0.084 Cl
HETATM   31  C   UNL     1      42.968 -11.566  11.800  1.00  0.00     0.024 A 
HETATM   32  C   UNL     1      44.011 -11.959  10.962  1.00  0.00     0.002 A 
HETATM   33  C   UNL     1      44.019 -11.557   9.631  1.00  0.00     0.001 A 
HETATM   34  C   UNL     1      42.983 -10.763   9.135  1.00  0.00     0.009 A 
ENDBRANCH  27  28
ENDBRANCH  26  27
ENDBRANCH   7  26
TORSDOF 6
ENDMDL
MODEL 9
REMARK VINA RESULT:      -7.0      4.222      7.883
REMARK  6 active torsions:
REMARK  status: ('A' for Active; 'I' for Inactive)
REMARK    1  A    between atoms: C_7  and  S_8 
REMARK    2  A    between atoms: S_8  and  C_9 
REMARK    3  A    between atoms: C_9  and  C_10 
REMARK    4  A    between atoms: C_18  and  C_19 
REMARK    5  A    between atoms: C_29  and  C_30 
REMARK    6  A    between atoms: C_30  and  O_31 
ROOT
HETATM    1  C   UNL     1      40.486 -15.455  -3.487  1.00  0.00     0.070 C 
HETATM    2  C   UNL     1      40.742 -14.931  -2.096  1.00  0.00     0.037 C 
HETATM    3  N   UNL     1      40.942 -15.901  -1.117  1.00  0.00    -0.192 N 
HETATM    4  C   UNL     1      41.379 -15.598   0.121  1.00  0.00     0.726 A 
HETATM    5  N   UNL     1      41.400 -14.292   0.526  1.00  0.00    -0.082 N 
HETATM    6  N   UNL     1      41.999 -14.160   1.727  1.00  0.00    -0.128 NA
HETATM    7  C   UNL     1      42.248 -15.443   2.023  1.00  0.00     0.226 A 
HETATM    8  N   UNL     1      41.879 -16.352   1.062  1.00  0.00    -0.035 NA
HETATM    9  C   UNL     1      40.931 -13.173  -0.302  1.00  0.00     0.204 C 
HETATM   10  C   UNL     1      40.772 -13.617  -1.757  1.00  0.00     0.070 C 
HETATM   11  H   UNL     1      41.032 -16.864  -1.430  1.00  0.00     0.184 HD
ENDROOT
BRANCH   9  12
HETATM   12  C   UNL     1      39.655 -12.593   0.326  1.00  0.00    -0.017 A 
HETATM   13  C   UNL     1      39.664 -11.386   1.095  1.00  0.00    -0.017 A 
HETATM   14  C   UNL     1      38.435 -10.906   1.623  1.00  0.00    -0.025 A 
HETATM   15  C   UNL     1      40.823 -10.623   1.388  1.00  0.00     0.013 A 
HETATM   16  C   UNL     1      38.395  -9.717   2.370  1.00  0.00     0.012 A 
HETATM   17  C   UNL     1      37.248 -11.618   1.411  1.00  0.00     0.012 A 
HETATM   18  C   UNL     1      39.553  -8.987   2.624  1.00  0.00     0.001 A 
HETATM   19  C   UNL     1      40.768  -9.443   2.137  1.00  0.00     0.001 A 
HETATM   20  C   UNL     1      37.248 -12.809   0.695  1.00  0.00     0.002 A 
HETATM   21  C   UNL     1      38.438 -13.293   0.164  1.00  0.00     0.010 A 
ENDBRANCH   9  12
BRANCH  10  22
HETATM   22  C   UNL     1      40.734 -12.508  -2.732  1.00  0.00     0.293 C 
HETATM   23  O   UNL     1      39.710 -12.077  -3.234  1.00  0.00    -0.259 OA
BRANCH  22  24
HETATM   24  O   UNL     1      41.975 -11.981  -2.887  1.00  0.00    -0.323 OA
HETATM   25  C   UNL     1      42.283 -11.565  -4.218  1.00  0.00     0.213 C 
ENDBRANCH  22  24
ENDBRANCH  10  22
BRANCH   7  26
HETATM   26  S   UNL     1      43.046 -15.951   3.484  1.00  0.00    -0.083 SA
BRANCH  26  27
HETATM   27  C   UNL     1      42.143 -17.473   3.875  1.00  0.00     0.123 C 
BRANCH  27  28
HETATM   28  C   UNL     1      43.094 -18.573   4.291  1.00  0.00    -0.027 A 
HETATM   29  C   UNL     1      43.769 -19.388   3.366  1.00  0.00     0.041 A 
HETATM   30 CL   UNL     1      43.604 -19.173   1.659  1.00  0.00    -0.084 Cl
HETATM   31  C   UNL     1      44.608 -20.419   3.806  1.00  0.00     0.024 A 
HETATM   32  C   UNL     1      44.777 -20.655   5.169  1.00  0.00     0.002 A 
HETATM   33  C   UNL     1      44.109 -19.863   6.097  1.00  0.00     0.001 A 
HETATM   34  C   UNL     1      43.274 -18.832   5.663  1.00  0.00     0.009 A 
ENDBRANCH  27  28
ENDBRANCH  26  27
ENDBRANCH   7  26
TORSDOF 6
ENDMDL
MODEL 10
REMARK VINA RESULT:      -6.9      3.349      6.534
REMARK  6 active torsions:
REMARK  status: ('A' for Active; 'I' for Inactive)
REMARK    1  A    between atoms: C_7  and  S_8 
REMARK    2  A    between atoms: S_8  and  C_9 
REMARK    3  A    between atoms: C_9  and  C_10 
REMARK    4  A    between atoms: C_18  and  C_19 
REMARK    5  A    between atoms: C_29  and  C_30 
REMARK    6  A    between atoms: C_30  and  O_31 
ROOT
HETATM    1  C   UNL     1      38.825  -8.955   4.805  1.00  0.00     0.070 C 
HETATM    2  C   UNL     1      39.679 -10.032   5.426  1.00  0.00     0.037 C 
HETATM    3  N   UNL     1      39.200 -11.333   5.288  1.00  0.00    -0.192 N 
HETATM    4  C   UNL     1      39.939 -12.413   5.605  1.00  0.00     0.726 A 
HETATM    5  N   UNL     1      41.100 -12.250   6.310  1.00  0.00    -0.082 N 
HETATM    6  N   UNL     1      41.780 -13.410   6.411  1.00  0.00    -0.128 NA
HETATM    7  C   UNL     1      40.930 -14.250   5.806  1.00  0.00     0.226 A 
HETATM    8  N   UNL     1      39.790 -13.674   5.301  1.00  0.00    -0.035 NA
HETATM    9  C   UNL     1      41.587 -10.950   6.791  1.00  0.00     0.204 C 
HETATM   10  C   UNL     1      40.837  -9.811   6.099  1.00  0.00     0.070 C 
HETATM   11  H   UNL     1      38.398 -11.469   4.676  1.00  0.00     0.184 HD
ENDROOT
BRANCH   9  12
HETATM   12  C   UNL     1      41.500 -10.925   8.325  1.00  0.00    -0.017 A 
HETATM   13  C   UNL     1      42.652 -11.097   9.157  1.00  0.00    -0.017 A 
HETATM   14  C   UNL     1      42.487 -11.038  10.567  1.00  0.00    -0.025 A 
HETATM   15  C   UNL     1      43.966 -11.336   8.679  1.00  0.00     0.013 A 
HETATM   16  C   UNL     1      43.593 -11.185  11.421  1.00  0.00     0.012 A 
HETATM   17  C   UNL     1      41.218 -10.841  11.123  1.00  0.00     0.012 A 
HETATM   18  C   UNL     1      44.871 -11.404  10.913  1.00  0.00     0.001 A 
HETATM   19  C   UNL     1      45.056 -11.484   9.543  1.00  0.00     0.001 A 
HETATM   20  C   UNL     1      40.096 -10.712  10.314  1.00  0.00     0.002 A 
HETATM   21  C   UNL     1      40.234 -10.759   8.932  1.00  0.00     0.010 A 
ENDBRANCH   9  12
BRANCH  10  22
HETATM   22  C   UNL     1      41.519  -8.502   6.167  1.00  0.00     0.293 C 
HETATM   23  O   UNL     1      41.375  -7.706   7.081  1.00  0.00    -0.259 OA
BRANCH  22  24
HETATM   24  O   UNL     1      42.397  -8.380   5.141  1.00  0.00    -0.323 OA
HETATM   25  C   UNL     1      42.145  -7.276   4.270  1.00  0.00     0.213 C 
ENDBRANCH  22  24
ENDBRANCH  10  22
BRANCH   7  26
HETATM   26  S   UNL     1      41.250 -15.948   5.593  1.00  0.00    -0.083 SA
BRANCH  26  27
HETATM   27  C   UNL     1      43.038 -15.940   5.290  1.00  0.00     0.123 C 
BRANCH  27  28
HETATM   28  C   UNL     1      43.379 -16.738   4.052  1.00  0.00    -0.027 A 
HETATM   29  C   UNL     1      43.398 -16.178   2.764  1.00  0.00     0.041 A 
HETATM   30 CL   UNL     1      43.074 -14.504   2.485  1.00  0.00    -0.084 Cl
HETATM   31  C   UNL     1      43.681 -16.972   1.647  1.00  0.00     0.024 A 
HETATM   32  C   UNL     1      43.940 -18.334   1.799  1.00  0.00     0.002 A 
HETATM   33  C   UNL     1      43.917 -18.906   3.067  1.00  0.00     0.001 A 
HETATM   34  C   UNL     1      43.638 -18.116   4.184  1.00  0.00     0.009 A 
ENDBRANCH  27  28
ENDBRANCH  26  27
ENDBRANCH   7  26
TORSDOF 6
ENDMDL
