MODEL 1
REMARK VINA RESULT:     -10.8      0.000      0.000
REMARK  6 active torsions:
REMARK  status: ('A' for Active; 'I' for Inactive)
REMARK    1  A    between atoms: C_4  and  C_5 
REMARK    2  A    between atoms: C_7  and  N_8 
REMARK    3  A    between atoms: N_11  and  C_13 
REMARK    4  A    between atoms: C_13  and  C_14 
REMARK       I    between atoms: C_14  and  N_15 
REMARK    5  A    between atoms: N_15  and  N_16 
REMARK       I    between atoms: N_16  and  C_17 
REMARK    6  A    between atoms: C_17  and  C_18 
ROOT
HETATM    1  N   UNL     1      41.844 -15.724   5.228  1.00  0.00    -0.357 N 
HETATM    2  C   UNL     1      41.904 -14.261   5.090  1.00  0.00     0.152 C 
HETATM    3  C   UNL     1      43.337 -13.758   5.369  1.00  0.00     0.255 C 
HETATM    4  N   UNL     1      43.799 -14.241   6.750  1.00  0.00    -0.060 N 
HETATM    5  H   UNL     1      43.134 -13.826   7.424  1.00  0.00     0.280 HD
HETATM    6  C   UNL     1      43.709 -15.762   6.863  1.00  0.00     0.255 C 
HETATM    7  C   UNL     1      42.271 -16.225   6.547  1.00  0.00     0.152 C 
ENDROOT
BRANCH   4   8
HETATM    8  C   UNL     1      45.160 -13.679   7.148  1.00  0.00     0.338 C 
BRANCH   8   9
HETATM    9  C   UNL     1      45.063 -12.902   8.465  1.00  0.00     0.262 C 
HETATM   10  N   UNL     1      43.798 -12.461   8.789  1.00  0.00    -0.266 N 
HETATM   11  H   UNL     1      42.974 -12.875   8.344  1.00  0.00     0.190 HD
HETATM   12  O   UNL     1      46.071 -12.702   9.145  1.00  0.00    -0.270 OA
BRANCH  10  13
HETATM   13  N   UNL     1      43.559 -12.129  10.138  1.00  0.00    -0.263 N 
HETATM   14  C   UNL     1      42.863 -10.955  10.362  1.00  0.00     0.270 C 
HETATM   15  O   UNL     1      42.463 -10.277   9.416  1.00  0.00    -0.266 OA
HETATM   16  H   UNL     1      43.999 -12.694  10.861  1.00  0.00     0.190 HD
BRANCH  14  17
HETATM   17  C   UNL     1      42.642 -10.532  11.770  1.00  0.00     0.033 A 
HETATM   18  C   UNL     1      43.566  -9.754  12.480  1.00  0.00     0.018 A 
HETATM   19  C   UNL     1      43.306  -9.399  13.810  1.00  0.00     0.020 A 
HETATM   20  C   UNL     1      42.128  -9.822  14.427  1.00  0.00     0.011 A 
HETATM   21 BR   UNL     1      41.786  -9.342  16.222  1.00  0.00    -0.051 Br
HETATM   22  C   UNL     1      41.208 -10.602  13.732  1.00  0.00     0.020 A 
HETATM   23  C   UNL     1      41.466 -10.960  12.406  1.00  0.00     0.018 A 
ENDBRANCH  14  17
ENDBRANCH  10  13
ENDBRANCH   8   9
ENDBRANCH   4   8
BRANCH   1  24
HETATM   24  C   UNL     1      42.085 -16.537   4.150  1.00  0.00     0.169 A 
HETATM   25  N   UNL     1      42.793 -17.642   4.238  1.00  0.00    -0.223 NA
HETATM   26  C   UNL     1      42.810 -18.332   3.029  1.00  0.00     0.076 A 
HETATM   27  C   UNL     1      42.143 -17.696   2.002  1.00  0.00     0.085 A 
HETATM   28  S   UNL     1      41.472 -16.230   2.561  1.00  0.00    -0.062 SA
BRANCH  26  29
HETATM   29  C   UNL     1      43.447 -19.639   2.905  1.00  0.00    -0.007 A 
HETATM   30  C   UNL     1      44.294 -20.094   3.926  1.00  0.00     0.014 A 
HETATM   31  C   UNL     1      44.890 -21.357   3.852  1.00  0.00     0.001 A 
HETATM   32  C   UNL     1      44.650 -22.177   2.753  1.00  0.00     0.000 A 
HETATM   33  C   UNL     1      43.819 -21.735   1.725  1.00  0.00     0.001 A 
HETATM   34  C   UNL     1      43.222 -20.473   1.798  1.00  0.00     0.014 A 
ENDBRANCH  26  29
ENDBRANCH   1  24
TORSDOF 6
ENDMDL
MODEL 2
REMARK VINA RESULT:      -9.6      1.852      2.671
REMARK  6 active torsions:
REMARK  status: ('A' for Active; 'I' for Inactive)
REMARK    1  A    between atoms: C_4  and  C_5 
REMARK    2  A    between atoms: C_7  and  N_8 
REMARK    3  A    between atoms: N_11  and  C_13 
REMARK    4  A    between atoms: C_13  and  C_14 
REMARK       I    between atoms: C_14  and  N_15 
REMARK    5  A    between atoms: N_15  and  N_16 
REMARK       I    between atoms: N_16  and  C_17 
REMARK    6  A    between atoms: C_17  and  C_18 
ROOT
HETATM    1  N   UNL     1      40.341 -14.986   3.449  1.00  0.00    -0.357 N 
HETATM    2  C   UNL     1      39.956 -13.672   2.911  1.00  0.00     0.152 C 
HETATM    3  C   UNL     1      40.836 -12.564   3.530  1.00  0.00     0.255 C 
HETATM    4  N   UNL     1      40.748 -12.625   5.061  1.00  0.00    -0.060 N 
HETATM    5  H   UNL     1      39.753 -12.463   5.287  1.00  0.00     0.280 HD
HETATM    6  C   UNL     1      41.140 -14.006   5.583  1.00  0.00     0.255 C 
HETATM    7  C   UNL     1      40.259 -15.085   4.917  1.00  0.00     0.152 C 
ENDROOT
BRANCH   4   8
HETATM    8  C   UNL     1      41.494 -11.481   5.741  1.00  0.00     0.338 C 
BRANCH   8   9
HETATM    9  C   UNL     1      41.090 -11.370   7.214  1.00  0.00     0.262 C 
HETATM   10  N   UNL     1      42.137 -11.405   8.109  1.00  0.00    -0.266 N 
HETATM   11  H   UNL     1      43.095 -11.220   7.796  1.00  0.00     0.190 HD
HETATM   12  O   UNL     1      39.903 -11.268   7.528  1.00  0.00    -0.270 OA
BRANCH  10  13
HETATM   13  N   UNL     1      41.897 -10.894   9.401  1.00  0.00    -0.263 N 
HETATM   14  C   UNL     1      42.848 -11.193  10.361  1.00  0.00     0.270 C 
HETATM   15  O   UNL     1      43.850 -11.843  10.065  1.00  0.00    -0.266 OA
HETATM   16  H   UNL     1      41.004 -10.443   9.585  1.00  0.00     0.190 HD
BRANCH  14  17
HETATM   17  C   UNL     1      42.605 -10.729  11.752  1.00  0.00     0.033 A 
HETATM   18  C   UNL     1      41.448 -11.061  12.469  1.00  0.00     0.018 A 
HETATM   19  C   UNL     1      41.271 -10.582  13.773  1.00  0.00     0.020 A 
HETATM   20  C   UNL     1      42.247  -9.772  14.357  1.00  0.00     0.011 A 
HETATM   21 BR   UNL     1      42.000  -9.126  16.114  1.00  0.00    -0.051 Br
HETATM   22  C   UNL     1      43.396  -9.430  13.648  1.00  0.00     0.020 A 
HETATM   23  C   UNL     1      43.573  -9.904  12.346  1.00  0.00     0.018 A 
ENDBRANCH  14  17
ENDBRANCH  10  13
ENDBRANCH   8   9
ENDBRANCH   4   8
BRANCH   1  24
HETATM   24  C   UNL     1      41.308 -15.737   2.831  1.00  0.00     0.169 A 
HETATM   25  N   UNL     1      41.851 -16.797   3.391  1.00  0.00    -0.223 NA
HETATM   26  C   UNL     1      42.732 -17.434   2.524  1.00  0.00     0.076 A 
HETATM   27  C   UNL     1      42.890 -16.802   1.307  1.00  0.00     0.085 A 
HETATM   28  S   UNL     1      41.910 -15.407   1.242  1.00  0.00    -0.062 SA
BRANCH  26  29
HETATM   29  C   UNL     1      43.381 -18.691   2.883  1.00  0.00    -0.007 A 
HETATM   30  C   UNL     1      43.473 -19.717   1.931  1.00  0.00     0.014 A 
HETATM   31  C   UNL     1      44.121 -20.918   2.235  1.00  0.00     0.001 A 
HETATM   32  C   UNL     1      44.679 -21.110   3.497  1.00  0.00     0.000 A 
HETATM   33  C   UNL     1      44.587 -20.104   4.456  1.00  0.00     0.001 A 
HETATM   34  C   UNL     1      43.939 -18.902   4.154  1.00  0.00     0.014 A 
ENDBRANCH  26  29
ENDBRANCH   1  24
TORSDOF 6
ENDMDL
MODEL 3
REMARK VINA RESULT:      -9.3      1.833      2.791
REMARK  6 active torsions:
REMARK  status: ('A' for Active; 'I' for Inactive)
REMARK    1  A    between atoms: C_4  and  C_5 
REMARK    2  A    between atoms: C_7  and  N_8 
REMARK    3  A    between atoms: N_11  and  C_13 
REMARK    4  A    between atoms: C_13  and  C_14 
REMARK       I    between atoms: C_14  and  N_15 
REMARK    5  A    between atoms: N_15  and  N_16 
REMARK       I    between atoms: N_16  and  C_17 
REMARK    6  A    between atoms: C_17  and  C_18 
ROOT
HETATM    1  N   UNL     1      43.103 -14.389   3.576  1.00  0.00    -0.357 N 
HETATM    2  C   UNL     1      43.179 -14.195   5.032  1.00  0.00     0.152 C 
HETATM    3  C   UNL     1      41.814 -13.720   5.577  1.00  0.00     0.255 C 
HETATM    4  N   UNL     1      41.369 -12.453   4.834  1.00  0.00    -0.060 N 
HETATM    5  H   UNL     1      42.099 -11.748   5.028  1.00  0.00     0.280 HD
HETATM    6  C   UNL     1      41.317 -12.687   3.325  1.00  0.00     0.255 C 
HETATM    7  C   UNL     1      42.689 -13.189   2.827  1.00  0.00     0.152 C 
ENDROOT
BRANCH   4   8
HETATM    8  C   UNL     1      40.087 -11.854   5.403  1.00  0.00     0.338 C 
BRANCH   8   9
HETATM    9  C   UNL     1      40.110 -11.877   6.935  1.00  0.00     0.262 C 
HETATM   10  N   UNL     1      41.269 -11.399   7.506  1.00  0.00    -0.266 N 
HETATM   11  H   UNL     1      41.914 -10.816   6.965  1.00  0.00     0.190 HD
HETATM   12  O   UNL     1      39.143 -12.308   7.566  1.00  0.00    -0.270 OA
BRANCH  10  13
HETATM   13  N   UNL     1      41.204 -10.999   8.856  1.00  0.00    -0.263 N 
HETATM   14  C   UNL     1      42.413 -10.731   9.473  1.00  0.00     0.270 C 
HETATM   15  O   UNL     1      43.466 -10.816   8.842  1.00  0.00    -0.266 OA
HETATM   16  H   UNL     1      40.304 -11.039   9.330  1.00  0.00     0.190 HD
BRANCH  14  17
HETATM   17  C   UNL     1      42.397 -10.367  10.914  1.00  0.00     0.033 A 
HETATM   18  C   UNL     1      43.561 -10.048  11.626  1.00  0.00     0.018 A 
HETATM   19  C   UNL     1      43.483  -9.725  12.986  1.00  0.00     0.020 A 
HETATM   20  C   UNL     1      42.246  -9.724  13.632  1.00  0.00     0.011 A 
HETATM   21 BR   UNL     1      42.147  -9.292  15.468  1.00  0.00    -0.051 Br
HETATM   22  C   UNL     1      41.085 -10.048  12.935  1.00  0.00     0.020 A 
HETATM   23  C   UNL     1      41.161 -10.373  11.577  1.00  0.00     0.018 A 
ENDBRANCH  14  17
ENDBRANCH  10  13
ENDBRANCH   8   9
ENDBRANCH   4   8
BRANCH   1  24
HETATM   24  C   UNL     1      42.739 -15.602   3.052  1.00  0.00     0.169 A 
HETATM   25  N   UNL     1      43.474 -16.686   3.189  1.00  0.00    -0.223 NA
HETATM   26  C   UNL     1      42.840 -17.801   2.651  1.00  0.00     0.076 A 
HETATM   27  C   UNL     1      41.628 -17.532   2.049  1.00  0.00     0.085 A 
HETATM   28  S   UNL     1      41.269 -15.868   2.178  1.00  0.00    -0.062 SA
BRANCH  26  29
HETATM   29  C   UNL     1      43.414 -19.137   2.772  1.00  0.00    -0.007 A 
HETATM   30  C   UNL     1      43.137 -20.099   1.789  1.00  0.00     0.014 A 
HETATM   31  C   UNL     1      43.701 -21.376   1.860  1.00  0.00     0.001 A 
HETATM   32  C   UNL     1      44.545 -21.709   2.917  1.00  0.00     0.000 A 
HETATM   33  C   UNL     1      44.821 -20.768   3.906  1.00  0.00     0.001 A 
HETATM   34  C   UNL     1      44.258 -19.490   3.837  1.00  0.00     0.014 A 
ENDBRANCH  26  29
ENDBRANCH   1  24
TORSDOF 6
ENDMDL
MODEL 4
REMARK VINA RESULT:      -9.2      1.849      2.587
REMARK  6 active torsions:
REMARK  status: ('A' for Active; 'I' for Inactive)
REMARK    1  A    between atoms: C_4  and  C_5 
REMARK    2  A    between atoms: C_7  and  N_8 
REMARK    3  A    between atoms: N_11  and  C_13 
REMARK    4  A    between atoms: C_13  and  C_14 
REMARK       I    between atoms: C_14  and  N_15 
REMARK    5  A    between atoms: N_15  and  N_16 
REMARK       I    between atoms: N_16  and  C_17 
REMARK    6  A    between atoms: C_17  and  C_18 
ROOT
HETATM    1  N   UNL     1      41.271 -15.157   3.860  1.00  0.00    -0.357 N 
HETATM    2  C   UNL     1      41.654 -14.100   2.912  1.00  0.00     0.152 C 
HETATM    3  C   UNL     1      42.203 -12.873   3.674  1.00  0.00     0.255 C 
HETATM    4  N   UNL     1      41.171 -12.397   4.705  1.00  0.00    -0.060 N 
HETATM    5  H   UNL     1      40.334 -12.136   4.158  1.00  0.00     0.280 HD
HETATM    6  C   UNL     1      40.785 -13.524   5.663  1.00  0.00     0.255 C 
HETATM    7  C   UNL     1      40.272 -14.738   4.860  1.00  0.00     0.152 C 
ENDROOT
BRANCH   4   8
HETATM    8  C   UNL     1      41.592 -11.113   5.412  1.00  0.00     0.338 C 
BRANCH   8   9
HETATM    9  C   UNL     1      41.119 -11.115   6.869  1.00  0.00     0.262 C 
HETATM   10  N   UNL     1      42.102 -11.366   7.800  1.00  0.00    -0.266 N 
HETATM   11  H   UNL     1      43.091 -11.260   7.554  1.00  0.00     0.190 HD
HETATM   12  O   UNL     1      39.933 -10.911   7.139  1.00  0.00    -0.270 OA
BRANCH  10  13
HETATM   13  N   UNL     1      41.846 -10.973   9.129  1.00  0.00    -0.263 N 
HETATM   14  C   UNL     1      42.943 -10.911   9.970  1.00  0.00     0.270 C 
HETATM   15  O   UNL     1      44.070 -11.161   9.542  1.00  0.00    -0.266 OA
HETATM   16  H   UNL     1      40.878 -10.870   9.426  1.00  0.00     0.190 HD
BRANCH  14  17
HETATM   17  C   UNL     1      42.712 -10.562  11.396  1.00  0.00     0.033 A 
HETATM   18  C   UNL     1      43.623  -9.808  12.148  1.00  0.00     0.018 A 
HETATM   19  C   UNL     1      43.355  -9.523  13.492  1.00  0.00     0.020 A 
HETATM   20  C   UNL     1      42.181  -9.993  14.083  1.00  0.00     0.011 A 
HETATM   21 BR   UNL     1      41.827  -9.609  15.898  1.00  0.00    -0.051 Br
HETATM   22  C   UNL     1      41.274 -10.750  13.347  1.00  0.00     0.020 A 
HETATM   23  C   UNL     1      41.541 -11.038  12.005  1.00  0.00     0.018 A 
ENDBRANCH  14  17
ENDBRANCH  10  13
ENDBRANCH   8   9
ENDBRANCH   4   8
BRANCH   1  24
HETATM   24  C   UNL     1      42.180 -16.105   4.253  1.00  0.00     0.169 A 
HETATM   25  N   UNL     1      42.267 -17.286   3.679  1.00  0.00    -0.223 NA
HETATM   26  C   UNL     1      43.328 -18.024   4.196  1.00  0.00     0.076 A 
HETATM   27  C   UNL     1      44.013 -17.398   5.216  1.00  0.00     0.085 A 
HETATM   28  S   UNL     1      43.335 -15.861   5.519  1.00  0.00    -0.062 SA
BRANCH  26  29
HETATM   29  C   UNL     1      43.688 -19.328   3.648  1.00  0.00    -0.007 A 
HETATM   30  C   UNL     1      43.274 -19.671   2.353  1.00  0.00     0.014 A 
HETATM   31  C   UNL     1      43.636 -20.898   1.788  1.00  0.00     0.001 A 
HETATM   32  C   UNL     1      44.409 -21.800   2.515  1.00  0.00     0.000 A 
HETATM   33  C   UNL     1      44.819 -21.478   3.807  1.00  0.00     0.001 A 
HETATM   34  C   UNL     1      44.459 -20.251   4.373  1.00  0.00     0.014 A 
ENDBRANCH  26  29
ENDBRANCH   1  24
TORSDOF 6
ENDMDL
MODEL 5
REMARK VINA RESULT:      -9.1      2.503      3.314
REMARK  6 active torsions:
REMARK  status: ('A' for Active; 'I' for Inactive)
REMARK    1  A    between atoms: C_4  and  C_5 
REMARK    2  A    between atoms: C_7  and  N_8 
REMARK    3  A    between atoms: N_11  and  C_13 
REMARK    4  A    between atoms: C_13  and  C_14 
REMARK       I    between atoms: C_14  and  N_15 
REMARK    5  A    between atoms: N_15  and  N_16 
REMARK       I    between atoms: N_16  and  C_17 
REMARK    6  A    between atoms: C_17  and  C_18 
ROOT
HETATM    1  N   UNL     1      43.382 -14.798   3.587  1.00  0.00    -0.357 N 
HETATM    2  C   UNL     1      43.474 -14.816   5.055  1.00  0.00     0.152 C 
HETATM    3  C   UNL     1      42.062 -14.747   5.678  1.00  0.00     0.255 C 
HETATM    4  N   UNL     1      41.319 -13.514   5.148  1.00  0.00    -0.060 N 
HETATM    5  H   UNL     1      41.884 -12.702   5.446  1.00  0.00     0.280 HD
HETATM    6  C   UNL     1      41.256 -13.520   3.621  1.00  0.00     0.255 C 
HETATM    7  C   UNL     1      42.683 -13.620   3.041  1.00  0.00     0.152 C 
ENDROOT
BRANCH   4   8
HETATM    8  C   UNL     1      39.962 -13.311   5.814  1.00  0.00     0.338 C 
BRANCH   8   9
HETATM    9  C   UNL     1      40.066 -12.303   6.963  1.00  0.00     0.262 C 
HETATM   10  N   UNL     1      39.076 -12.402   7.916  1.00  0.00    -0.266 N 
HETATM   11  H   UNL     1      38.514 -13.255   7.995  1.00  0.00     0.190 HD
HETATM   12  O   UNL     1      40.981 -11.477   6.984  1.00  0.00    -0.270 OA
BRANCH  10  13
HETATM   13  N   UNL     1      39.335 -11.823   9.175  1.00  0.00    -0.263 N 
HETATM   14  C   UNL     1      38.909 -10.518   9.345  1.00  0.00     0.270 C 
HETATM   15  O   UNL     1      38.313  -9.934   8.439  1.00  0.00    -0.266 OA
HETATM   16  H   UNL     1      39.910 -12.340   9.837  1.00  0.00     0.190 HD
BRANCH  14  17
HETATM   17  C   UNL     1      39.216  -9.845  10.634  1.00  0.00     0.033 A 
HETATM   18  C   UNL     1      40.484  -9.891  11.228  1.00  0.00     0.018 A 
HETATM   19  C   UNL     1      40.708  -9.247  12.451  1.00  0.00     0.020 A 
HETATM   20  C   UNL     1      39.667  -8.561  13.079  1.00  0.00     0.011 A 
HETATM   21 BR   UNL     1      39.974  -7.698  14.730  1.00  0.00    -0.051 Br
HETATM   22  C   UNL     1      38.401  -8.517  12.500  1.00  0.00     0.020 A 
HETATM   23  C   UNL     1      38.175  -9.161  11.280  1.00  0.00     0.018 A 
ENDBRANCH  14  17
ENDBRANCH  10  13
ENDBRANCH   8   9
ENDBRANCH   4   8
BRANCH   1  24
HETATM   24  C   UNL     1      43.271 -15.967   2.880  1.00  0.00     0.169 A 
HETATM   25  N   UNL     1      43.784 -17.103   3.300  1.00  0.00    -0.223 NA
HETATM   26  C   UNL     1      43.453 -18.155   2.452  1.00  0.00     0.076 A 
HETATM   27  C   UNL     1      42.720 -17.783   1.344  1.00  0.00     0.085 A 
HETATM   28  S   UNL     1      42.427 -16.102   1.375  1.00  0.00    -0.062 SA
BRANCH  26  29
HETATM   29  C   UNL     1      43.823 -19.532   2.763  1.00  0.00    -0.007 A 
HETATM   30  C   UNL     1      43.590 -20.540   1.817  1.00  0.00     0.014 A 
HETATM   31  C   UNL     1      43.968 -21.862   2.072  1.00  0.00     0.001 A 
HETATM   32  C   UNL     1      44.577 -22.192   3.280  1.00  0.00     0.000 A 
HETATM   33  C   UNL     1      44.805 -21.204   4.236  1.00  0.00     0.001 A 
HETATM   34  C   UNL     1      44.429 -19.881   3.981  1.00  0.00     0.014 A 
ENDBRANCH  26  29
ENDBRANCH   1  24
TORSDOF 6
ENDMDL
MODEL 6
REMARK VINA RESULT:      -9.0      5.833      9.489
REMARK  6 active torsions:
REMARK  status: ('A' for Active; 'I' for Inactive)
REMARK    1  A    between atoms: C_4  and  C_5 
REMARK    2  A    between atoms: C_7  and  N_8 
REMARK    3  A    between atoms: N_11  and  C_13 
REMARK    4  A    between atoms: C_13  and  C_14 
REMARK       I    between atoms: C_14  and  N_15 
REMARK    5  A    between atoms: N_15  and  N_16 
REMARK       I    between atoms: N_16  and  C_17 
REMARK    6  A    between atoms: C_17  and  C_18 
ROOT
HETATM    1  N   UNL     1      39.171 -12.908   2.645  1.00  0.00    -0.357 N 
HETATM    2  C   UNL     1      38.668 -14.159   2.057  1.00  0.00     0.152 C 
HETATM    3  C   UNL     1      39.583 -14.608   0.896  1.00  0.00     0.255 C 
HETATM    4  N   UNL     1      39.710 -13.478  -0.134  1.00  0.00    -0.060 N 
HETATM    5  H   UNL     1      38.750 -13.309  -0.478  1.00  0.00     0.280 HD
HETATM    6  C   UNL     1      40.219 -12.192   0.514  1.00  0.00     0.255 C 
HETATM    7  C   UNL     1      39.295 -11.796   1.685  1.00  0.00     0.152 C 
ENDROOT
BRANCH   4   8
HETATM    8  C   UNL     1      40.500 -13.893  -1.371  1.00  0.00     0.338 C 
BRANCH   8   9
HETATM    9  C   UNL     1      41.213 -15.228  -1.138  1.00  0.00     0.262 C 
HETATM   10  N   UNL     1      42.208 -15.199  -0.186  1.00  0.00    -0.266 N 
HETATM   11  H   UNL     1      42.251 -14.437   0.497  1.00  0.00     0.190 HD
HETATM   12  O   UNL     1      40.890 -16.227  -1.785  1.00  0.00    -0.270 OA
BRANCH  10  13
HETATM   13  N   UNL     1      42.600 -16.432   0.373  1.00  0.00    -0.263 N 
HETATM   14  C   UNL     1      42.923 -16.416   1.719  1.00  0.00     0.270 C 
HETATM   15  O   UNL     1      42.831 -15.375   2.369  1.00  0.00    -0.266 OA
HETATM   16  H   UNL     1      42.736 -17.225  -0.250  1.00  0.00     0.190 HD
BRANCH  14  17
HETATM   17  C   UNL     1      43.403 -17.680   2.337  1.00  0.00     0.033 A 
HETATM   18  C   UNL     1      43.446 -18.894   1.640  1.00  0.00     0.018 A 
HETATM   19  C   UNL     1      43.896 -20.054   2.282  1.00  0.00     0.020 A 
HETATM   20  C   UNL     1      44.300 -20.000   3.617  1.00  0.00     0.011 A 
HETATM   21 BR   UNL     1      44.903 -21.569   4.479  1.00  0.00    -0.051 Br
HETATM   22  C   UNL     1      44.252 -18.799   4.320  1.00  0.00     0.020 A 
HETATM   23  C   UNL     1      43.801 -17.641   3.682  1.00  0.00     0.018 A 
ENDBRANCH  14  17
ENDBRANCH  10  13
ENDBRANCH   8   9
ENDBRANCH   4   8
BRANCH   1  24
HETATM   24  C   UNL     1      40.070 -12.936   3.680  1.00  0.00     0.169 A 
HETATM   25  N   UNL     1      40.455 -14.055   4.257  1.00  0.00    -0.223 NA
HETATM   26  C   UNL     1      41.439 -13.821   5.212  1.00  0.00     0.076 A 
HETATM   27  C   UNL     1      41.757 -12.490   5.388  1.00  0.00     0.085 A 
HETATM   28  S   UNL     1      40.827 -11.523   4.332  1.00  0.00    -0.062 SA
BRANCH  26  29
HETATM   29  C   UNL     1      42.096 -14.919   5.915  1.00  0.00    -0.007 A 
HETATM   30  C   UNL     1      43.450 -14.805   6.261  1.00  0.00     0.014 A 
HETATM   31  C   UNL     1      44.096 -15.824   6.967  1.00  0.00     0.001 A 
HETATM   32  C   UNL     1      43.396 -16.973   7.330  1.00  0.00     0.000 A 
HETATM   33  C   UNL     1      42.053 -17.105   6.984  1.00  0.00     0.001 A 
HETATM   34  C   UNL     1      41.406 -16.086   6.278  1.00  0.00     0.014 A 
ENDBRANCH  26  29
ENDBRANCH   1  24
TORSDOF 6
ENDMDL
MODEL 7
REMARK VINA RESULT:      -8.8      2.290      3.274
REMARK  6 active torsions:
REMARK  status: ('A' for Active; 'I' for Inactive)
REMARK    1  A    between atoms: C_4  and  C_5 
REMARK    2  A    between atoms: C_7  and  N_8 
REMARK    3  A    between atoms: N_11  and  C_13 
REMARK    4  A    between atoms: C_13  and  C_14 
REMARK       I    between atoms: C_14  and  N_15 
REMARK    5  A    between atoms: N_15  and  N_16 
REMARK       I    between atoms: N_16  and  C_17 
REMARK    6  A    between atoms: C_17  and  C_18 
ROOT
HETATM    1  N   UNL     1      41.243 -14.887   2.527  1.00  0.00    -0.357 N 
HETATM    2  C   UNL     1      41.862 -13.699   1.922  1.00  0.00     0.152 C 
HETATM    3  C   UNL     1      41.861 -12.527   2.929  1.00  0.00     0.255 C 
HETATM    4  N   UNL     1      40.432 -12.263   3.419  1.00  0.00    -0.060 N 
HETATM    5  H   UNL     1      39.892 -12.013   2.574  1.00  0.00     0.280 HD
HETATM    6  C   UNL     1      39.814 -13.522   4.026  1.00  0.00     0.255 C 
HETATM    7  C   UNL     1      39.863 -14.675   3.000  1.00  0.00     0.152 C 
ENDROOT
BRANCH   4   8
HETATM    8  C   UNL     1      40.334 -11.038   4.323  1.00  0.00     0.338 C 
BRANCH   8   9
HETATM    9  C   UNL     1      40.238 -11.455   5.794  1.00  0.00     0.262 C 
HETATM   10  N   UNL     1      41.446 -11.584   6.442  1.00  0.00    -0.266 N 
HETATM   11  H   UNL     1      42.291 -11.152   6.058  1.00  0.00     0.190 HD
HETATM   12  O   UNL     1      39.138 -11.658   6.312  1.00  0.00    -0.270 OA
BRANCH  10  13
HETATM   13  N   UNL     1      41.428 -11.543   7.851  1.00  0.00    -0.263 N 
HETATM   14  C   UNL     1      41.874 -10.370   8.433  1.00  0.00     0.270 C 
HETATM   15  O   UNL     1      42.231  -9.423   7.732  1.00  0.00    -0.266 OA
HETATM   16  H   UNL     1      41.203 -12.397   8.358  1.00  0.00     0.190 HD
BRANCH  14  17
HETATM   17  C   UNL     1      41.933 -10.304   9.917  1.00  0.00     0.033 A 
HETATM   18  C   UNL     1      40.785 -10.220  10.716  1.00  0.00     0.018 A 
HETATM   19  C   UNL     1      40.906 -10.147  12.109  1.00  0.00     0.020 A 
HETATM   20  C   UNL     1      42.169 -10.156  12.701  1.00  0.00     0.011 A 
HETATM   21 BR   UNL     1      42.326 -10.054  14.580  1.00  0.00    -0.051 Br
HETATM   22  C   UNL     1      43.316 -10.231  11.914  1.00  0.00     0.020 A 
HETATM   23  C   UNL     1      43.198 -10.301  10.523  1.00  0.00     0.018 A 
ENDBRANCH  14  17
ENDBRANCH  10  13
ENDBRANCH   8   9
ENDBRANCH   4   8
BRANCH   1  24
HETATM   24  C   UNL     1      42.003 -15.794   3.220  1.00  0.00     0.169 A 
HETATM   25  N   UNL     1      42.219 -17.018   2.789  1.00  0.00    -0.223 NA
HETATM   26  C   UNL     1      43.095 -17.703   3.624  1.00  0.00     0.076 A 
HETATM   27  C   UNL     1      43.498 -16.991   4.734  1.00  0.00     0.085 A 
HETATM   28  S   UNL     1      42.788 -15.439   4.721  1.00  0.00    -0.062 SA
BRANCH  26  29
HETATM   29  C   UNL     1      43.567 -19.046   3.298  1.00  0.00    -0.007 A 
HETATM   30  C   UNL     1      44.387 -19.729   4.208  1.00  0.00     0.014 A 
HETATM   31  C   UNL     1      44.824 -21.030   3.940  1.00  0.00     0.001 A 
HETATM   32  C   UNL     1      44.452 -21.660   2.755  1.00  0.00     0.000 A 
HETATM   33  C   UNL     1      43.646 -20.990   1.836  1.00  0.00     0.001 A 
HETATM   34  C   UNL     1      43.207 -19.690   2.104  1.00  0.00     0.014 A 
ENDBRANCH  26  29
ENDBRANCH   1  24
TORSDOF 6
ENDMDL
MODEL 8
REMARK VINA RESULT:      -8.6      4.993      7.163
REMARK  6 active torsions:
REMARK  status: ('A' for Active; 'I' for Inactive)
REMARK    1  A    between atoms: C_4  and  C_5 
REMARK    2  A    between atoms: C_7  and  N_8 
REMARK    3  A    between atoms: N_11  and  C_13 
REMARK    4  A    between atoms: C_13  and  C_14 
REMARK       I    between atoms: C_14  and  N_15 
REMARK    5  A    between atoms: N_15  and  N_16 
REMARK       I    between atoms: N_16  and  C_17 
REMARK    6  A    between atoms: C_17  and  C_18 
ROOT
HETATM    1  N   UNL     1      39.439 -11.201   2.096  1.00  0.00    -0.357 N 
HETATM    2  C   UNL     1      40.650 -10.455   2.471  1.00  0.00     0.152 C 
HETATM    3  C   UNL     1      40.910 -10.588   3.988  1.00  0.00     0.255 C 
HETATM    4  N   UNL     1      39.671 -10.133   4.770  1.00  0.00    -0.060 N 
HETATM    5  H   UNL     1      39.531  -9.142   4.514  1.00  0.00     0.280 HD
HETATM    6  C   UNL     1      38.430 -10.916   4.344  1.00  0.00     0.255 C 
HETATM    7  C   UNL     1      38.224 -10.782   2.820  1.00  0.00     0.152 C 
ENDROOT
BRANCH   4   8
HETATM    8  C   UNL     1      39.896 -10.119   6.278  1.00  0.00     0.338 C 
BRANCH   8   9
HETATM    9  C   UNL     1      40.812 -11.272   6.701  1.00  0.00     0.262 C 
HETATM   10  N   UNL     1      40.255 -12.527   6.595  1.00  0.00    -0.266 N 
HETATM   11  H   UNL     1      39.428 -12.681   6.010  1.00  0.00     0.190 HD
HETATM   12  O   UNL     1      41.953 -11.042   7.109  1.00  0.00    -0.270 OA
BRANCH  10  13
HETATM   13  N   UNL     1      41.141 -13.623   6.553  1.00  0.00    -0.263 N 
HETATM   14  C   UNL     1      40.833 -14.622   5.648  1.00  0.00     0.270 C 
HETATM   15  O   UNL     1      39.852 -14.517   4.913  1.00  0.00    -0.266 OA
HETATM   16  H   UNL     1      41.878 -13.677   7.254  1.00  0.00     0.190 HD
BRANCH  14  17
HETATM   17  C   UNL     1      41.704 -15.827   5.614  1.00  0.00     0.033 A 
HETATM   18  C   UNL     1      43.055 -15.794   5.983  1.00  0.00     0.018 A 
HETATM   19  C   UNL     1      43.827 -16.960   5.917  1.00  0.00     0.020 A 
HETATM   20  C   UNL     1      43.251 -18.154   5.481  1.00  0.00     0.011 A 
HETATM   21 BR   UNL     1      44.299 -19.723   5.390  1.00  0.00    -0.051 Br
HETATM   22  C   UNL     1      41.911 -18.194   5.103  1.00  0.00     0.020 A 
HETATM   23  C   UNL     1      41.139 -17.031   5.166  1.00  0.00     0.018 A 
ENDBRANCH  14  17
ENDBRANCH  10  13
ENDBRANCH   8   9
ENDBRANCH   4   8
BRANCH   1  24
HETATM   24  C   UNL     1      39.516 -12.518   1.727  1.00  0.00     0.169 A 
HETATM   25  N   UNL     1      40.616 -13.229   1.858  1.00  0.00    -0.223 NA
HETATM   26  C   UNL     1      40.407 -14.558   1.501  1.00  0.00     0.076 A 
HETATM   27  C   UNL     1      39.135 -14.831   1.042  1.00  0.00     0.085 A 
HETATM   28  S   UNL     1      38.185 -13.413   1.076  1.00  0.00    -0.062 SA
BRANCH  26  29
HETATM   29  C   UNL     1      41.454 -15.563   1.657  1.00  0.00    -0.007 A 
HETATM   30  C   UNL     1      41.199 -16.889   1.277  1.00  0.00     0.014 A 
HETATM   31  C   UNL     1      42.194 -17.866   1.382  1.00  0.00     0.001 A 
HETATM   32  C   UNL     1      43.452 -17.531   1.874  1.00  0.00     0.000 A 
HETATM   33  C   UNL     1      43.717 -16.220   2.266  1.00  0.00     0.001 A 
HETATM   34  C   UNL     1      42.724 -15.241   2.161  1.00  0.00     0.014 A 
ENDBRANCH  26  29
ENDBRANCH   1  24
TORSDOF 6
ENDMDL
MODEL 9
REMARK VINA RESULT:      -8.4      2.514      3.183
REMARK  6 active torsions:
REMARK  status: ('A' for Active; 'I' for Inactive)
REMARK    1  A    between atoms: C_4  and  C_5 
REMARK    2  A    between atoms: C_7  and  N_8 
REMARK    3  A    between atoms: N_11  and  C_13 
REMARK    4  A    between atoms: C_13  and  C_14 
REMARK       I    between atoms: C_14  and  N_15 
REMARK    5  A    between atoms: N_15  and  N_16 
REMARK       I    between atoms: N_16  and  C_17 
REMARK    6  A    between atoms: C_17  and  C_18 
ROOT
HETATM    1  N   UNL     1      40.506 -15.756   3.775  1.00  0.00    -0.357 N 
HETATM    2  C   UNL     1      39.630 -15.044   2.832  1.00  0.00     0.152 C 
HETATM    3  C   UNL     1      40.035 -13.556   2.749  1.00  0.00     0.255 C 
HETATM    4  N   UNL     1      40.023 -12.934   4.152  1.00  0.00    -0.060 N 
HETATM    5  H   UNL     1      39.050 -13.024   4.486  1.00  0.00     0.280 HD
HETATM    6  C   UNL     1      40.931 -13.708   5.107  1.00  0.00     0.255 C 
HETATM    7  C   UNL     1      40.512 -15.193   5.137  1.00  0.00     0.152 C 
ENDROOT
BRANCH   4   8
HETATM    8  C   UNL     1      40.293 -11.433   4.135  1.00  0.00     0.338 C 
BRANCH   8   9
HETATM    9  C   UNL     1      40.725 -10.943   5.521  1.00  0.00     0.262 C 
HETATM   10  N   UNL     1      39.992 -11.449   6.572  1.00  0.00    -0.266 N 
HETATM   11  H   UNL     1      39.422 -12.291   6.450  1.00  0.00     0.190 HD
HETATM   12  O   UNL     1      41.660 -10.148   5.636  1.00  0.00    -0.270 OA
BRANCH  10  13
HETATM   13  N   UNL     1      40.578 -11.390   7.853  1.00  0.00    -0.263 N 
HETATM   14  C   UNL     1      39.876 -10.682   8.812  1.00  0.00     0.270 C 
HETATM   15  O   UNL     1      38.789 -10.172   8.539  1.00  0.00    -0.266 OA
HETATM   16  H   UNL     1      41.518 -11.760   7.973  1.00  0.00     0.190 HD
BRANCH  14  17
HETATM   17  C   UNL     1      40.486 -10.539  10.160  1.00  0.00     0.033 A 
HETATM   18  C   UNL     1      41.849 -10.757  10.401  1.00  0.00     0.018 A 
HETATM   19  C   UNL     1      42.361 -10.619  11.697  1.00  0.00     0.020 A 
HETATM   20  C   UNL     1      41.514 -10.267  12.748  1.00  0.00     0.011 A 
HETATM   21 BR   UNL     1      42.211 -10.086  14.494  1.00  0.00    -0.051 Br
HETATM   22  C   UNL     1      40.156 -10.056  12.520  1.00  0.00     0.020 A 
HETATM   23  C   UNL     1      39.642 -10.196  11.228  1.00  0.00     0.018 A 
ENDBRANCH  14  17
ENDBRANCH  10  13
ENDBRANCH   8   9
ENDBRANCH   4   8
BRANCH   1  24
HETATM   24  C   UNL     1      41.668 -16.341   3.342  1.00  0.00     0.169 A 
HETATM   25  N   UNL     1      41.943 -17.612   3.546  1.00  0.00    -0.223 NA
HETATM   26  C   UNL     1      43.134 -17.980   2.928  1.00  0.00     0.076 A 
HETATM   27  C   UNL     1      43.789 -16.944   2.294  1.00  0.00     0.085 A 
HETATM   28  S   UNL     1      42.895 -15.500   2.457  1.00  0.00    -0.062 SA
BRANCH  26  29
HETATM   29  C   UNL     1      43.598 -19.364   2.927  1.00  0.00    -0.007 A 
HETATM   30  C   UNL     1      43.275 -20.199   1.848  1.00  0.00     0.014 A 
HETATM   31  C   UNL     1      43.737 -21.518   1.802  1.00  0.00     0.001 A 
HETATM   32  C   UNL     1      44.520 -22.019   2.839  1.00  0.00     0.000 A 
HETATM   33  C   UNL     1      44.839 -21.205   3.923  1.00  0.00     0.001 A 
HETATM   34  C   UNL     1      44.380 -19.885   3.970  1.00  0.00     0.014 A 
ENDBRANCH  26  29
ENDBRANCH   1  24
TORSDOF 6
ENDMDL
MODEL 10
REMARK VINA RESULT:      -8.3      4.724     10.280
REMARK  6 active torsions:
REMARK  status: ('A' for Active; 'I' for Inactive)
REMARK    1  A    between atoms: C_4  and  C_5 
REMARK    2  A    between atoms: C_7  and  N_8 
REMARK    3  A    between atoms: N_11  and  C_13 
REMARK    4  A    between atoms: C_13  and  C_14 
REMARK       I    between atoms: C_14  and  N_15 
REMARK    5  A    between atoms: N_15  and  N_16 
REMARK       I    between atoms: N_16  and  C_17 
REMARK    6  A    between atoms: C_17  and  C_18 
ROOT
HETATM    1  N   UNL     1      39.381 -11.852   5.950  1.00  0.00    -0.357 N 
HETATM    2  C   UNL     1      39.742 -13.273   5.828  1.00  0.00     0.152 C 
HETATM    3  C   UNL     1      40.668 -13.485   4.610  1.00  0.00     0.255 C 
HETATM    4  N   UNL     1      39.998 -12.935   3.345  1.00  0.00    -0.060 N 
HETATM    5  H   UNL     1      39.127 -13.480   3.234  1.00  0.00     0.280 HD
HETATM    6  C   UNL     1      39.624 -11.463   3.512  1.00  0.00     0.255 C 
HETATM    7  C   UNL     1      38.724 -11.291   4.755  1.00  0.00     0.152 C 
ENDROOT
BRANCH   4   8
HETATM    8  C   UNL     1      40.801 -13.221   2.079  1.00  0.00     0.338 C 
BRANCH   8   9
HETATM    9  C   UNL     1      41.083 -14.720   1.942  1.00  0.00     0.262 C 
HETATM   10  N   UNL     1      42.416 -15.055   1.848  1.00  0.00    -0.266 N 
HETATM   11  H   UNL     1      43.140 -14.394   2.144  1.00  0.00     0.190 HD
HETATM   12  O   UNL     1      40.152 -15.528   1.914  1.00  0.00    -0.270 OA
BRANCH  10  13
HETATM   13  N   UNL     1      42.766 -16.388   2.144  1.00  0.00    -0.263 N 
HETATM   14  C   UNL     1      43.314 -16.612   3.395  1.00  0.00     0.270 C 
HETATM   15  O   UNL     1      43.446 -15.684   4.192  1.00  0.00    -0.266 OA
HETATM   16  H   UNL     1      42.709 -17.081   1.400  1.00  0.00     0.190 HD
BRANCH  14  17
HETATM   17  C   UNL     1      43.757 -17.991   3.727  1.00  0.00     0.033 A 
HETATM   18  C   UNL     1      43.904 -18.993   2.758  1.00  0.00     0.018 A 
HETATM   19  C   UNL     1      44.313 -20.277   3.136  1.00  0.00     0.020 A 
HETATM   20  C   UNL     1      44.572 -20.560   4.477  1.00  0.00     0.011 A 
HETATM   21 BR   UNL     1      45.119 -22.297   4.981  1.00  0.00    -0.051 Br
HETATM   22  C   UNL     1      44.420 -19.574   5.449  1.00  0.00     0.020 A 
HETATM   23  C   UNL     1      44.010 -18.292   5.074  1.00  0.00     0.018 A 
ENDBRANCH  14  17
ENDBRANCH  10  13
ENDBRANCH   8   9
ENDBRANCH   4   8
BRANCH   1  24
HETATM   24  C   UNL     1      40.156 -10.996   6.689  1.00  0.00     0.169 A 
HETATM   25  N   UNL     1      40.962 -11.412   7.643  1.00  0.00    -0.223 NA
HETATM   26  C   UNL     1      41.704 -10.362   8.174  1.00  0.00     0.076 A 
HETATM   27  C   UNL     1      41.404  -9.126   7.641  1.00  0.00     0.085 A 
HETATM   28  S   UNL     1      40.194  -9.283   6.447  1.00  0.00    -0.062 SA
BRANCH  26  29
HETATM   29  C   UNL     1      42.740 -10.590   9.177  1.00  0.00    -0.007 A 
HETATM   30  C   UNL     1      43.810 -11.447   8.881  1.00  0.00     0.014 A 
HETATM   31  C   UNL     1      44.836 -11.657   9.808  1.00  0.00     0.001 A 
HETATM   32  C   UNL     1      44.800 -11.016  11.044  1.00  0.00     0.000 A 
HETATM   33  C   UNL     1      43.738 -10.170  11.357  1.00  0.00     0.001 A 
HETATM   34  C   UNL     1      42.712  -9.959  10.431  1.00  0.00     0.014 A 
ENDBRANCH  26  29
ENDBRANCH   1  24
TORSDOF 6
ENDMDL
