MODEL 1
REMARK VINA RESULT:      -9.2      0.000      0.000
REMARK  5 active torsions:
REMARK  status: ('A' for Active; 'I' for Inactive)
REMARK    1  A    between atoms: C_2  and  C_3 
REMARK    2  A    between atoms: C_7  and  N_8 
REMARK    3  A    between atoms: C_13  and  N_14 
REMARK       I    between atoms: N_14  and  C_15 
REMARK    4  A    between atoms: C_15  and  C_16 
REMARK       I    between atoms: C_16  and  N_17 
REMARK    5  A    between atoms: N_17  and  C_18 
ROOT
HETATM    1  N   UNL     1      41.997 -10.956   7.084  1.00  0.00    -0.045 N 
HETATM    2  N   UNL     1      41.514  -9.844   6.473  1.00  0.00    -0.156 NA
HETATM    3  C   UNL     1      41.215 -10.258   5.236  1.00  0.00     0.055 A 
HETATM    4  C   UNL     1      40.659  -9.310   4.237  1.00  0.00     0.072 C 
HETATM    5  C   UNL     1      41.492 -11.639   5.055  1.00  0.00     0.079 A 
HETATM    6  C   UNL     1      42.012 -12.067   6.252  1.00  0.00     0.152 A 
ENDROOT
BRANCH   6   7
HETATM    7  N   UNL     1      42.433 -13.321   6.671  1.00  0.00    -0.303 N 
HETATM    8  C   UNL     1      42.929 -14.423   5.925  1.00  0.00     0.315 C 
HETATM    9  O   UNL     1      43.006 -15.492   6.511  1.00  0.00    -0.262 OA
HETATM   10  H   UNL     1      42.361 -13.501   7.677  1.00  0.00     0.171 HD
BRANCH   8  11
HETATM   11  C   UNL     1      43.339 -14.328   4.451  1.00  0.00     0.310 C 
HETATM   12  N   UNL     1      42.647 -15.198   3.624  1.00  0.00    -0.348 N 
HETATM   13  H   UNL     1      42.042 -15.870   4.083  1.00  0.00     0.163 HD
HETATM   14  O   UNL     1      44.237 -13.577   4.102  1.00  0.00    -0.262 OA
BRANCH  12  15
HETATM   15  C   UNL     1      43.076 -15.474   2.263  1.00  0.00     0.085 C 
HETATM   16  C   UNL     1      43.853 -16.794   2.136  1.00  0.00     0.034 C 
HETATM   17  C   UNL     1      42.997 -18.081   2.165  1.00  0.00    -0.045 C 
HETATM   18  C   UNL     1      42.539 -18.431   3.592  1.00  0.00     0.015 C 
HETATM   19  C   UNL     1      43.887 -19.258   1.699  1.00  0.00     0.015 C 
HETATM   20  C   UNL     1      41.805 -17.965   1.187  1.00  0.00     0.013 C 
HETATM   21  C   UNL     1      41.008 -16.650   1.207  1.00  0.00    -0.016 C 
HETATM   22  C   UNL     1      41.911 -15.407   1.270  1.00  0.00     0.029 C 
HETATM   23  C   UNL     1      39.877 -16.638   2.236  1.00  0.00     0.010 C 
ENDBRANCH  12  15
ENDBRANCH   8  11
ENDBRANCH   6   7
BRANCH   1  24
HETATM   24  C   UNL     1      42.398 -10.930   8.429  1.00  0.00     0.732 A 
HETATM   25  N   UNL     1      41.346 -10.902   9.289  1.00  0.00    -0.152 N 
HETATM   26  C   UNL     1      41.541 -10.932  10.634  1.00  0.00     0.268 A 
HETATM   27  H   UNL     1      40.395 -10.913   8.936  1.00  0.00     0.188 HD
HETATM   28  C   UNL     1      42.966 -10.916  11.077  1.00  0.00     0.035 A 
HETATM   29  O   UNL     1      40.603 -10.978  11.421  1.00  0.00    -0.267 OA
HETATM   30  C   UNL     1      43.920 -10.918  10.120  1.00  0.00     0.061 A 
HETATM   31  N   UNL     1      43.650 -10.947   8.766  1.00  0.00    -0.067 NA
HETATM   32  C   UNL     1      45.398 -10.912  10.427  1.00  0.00     0.072 C 
BRANCH  28  33
HETATM   33  C   UNL     1      43.193 -10.860  12.566  1.00  0.00     0.042 C 
HETATM   34  C   UNL     1      43.305  -9.428  13.070  1.00  0.00     0.010 C 
ENDBRANCH  28  33
ENDBRANCH   1  24
TORSDOF 5
ENDMDL
MODEL 2
REMARK VINA RESULT:      -8.8      4.117      8.374
REMARK  5 active torsions:
REMARK  status: ('A' for Active; 'I' for Inactive)
REMARK    1  A    between atoms: C_2  and  C_3 
REMARK    2  A    between atoms: C_7  and  N_8 
REMARK    3  A    between atoms: C_13  and  N_14 
REMARK       I    between atoms: N_14  and  C_15 
REMARK    4  A    between atoms: C_15  and  C_16 
REMARK       I    between atoms: C_16  and  N_17 
REMARK    5  A    between atoms: N_17  and  C_18 
ROOT
HETATM    1  N   UNL     1      42.078 -17.468   2.046  1.00  0.00    -0.045 N 
HETATM    2  N   UNL     1      42.286 -17.165   0.739  1.00  0.00    -0.156 NA
HETATM    3  C   UNL     1      41.316 -16.288   0.452  1.00  0.00     0.055 A 
HETATM    4  C   UNL     1      41.196 -15.717  -0.914  1.00  0.00     0.072 C 
HETATM    5  C   UNL     1      40.493 -16.016   1.577  1.00  0.00     0.079 A 
HETATM    6  C   UNL     1      40.990 -16.799   2.591  1.00  0.00     0.152 A 
ENDROOT
BRANCH   6   7
HETATM    7  N   UNL     1      40.608 -16.928   3.918  1.00  0.00    -0.303 N 
HETATM    8  C   UNL     1      41.010 -16.197   5.067  1.00  0.00     0.315 C 
HETATM    9  O   UNL     1      40.702 -16.668   6.151  1.00  0.00    -0.262 OA
HETATM   10  H   UNL     1      39.944 -17.683   4.118  1.00  0.00     0.171 HD
BRANCH   8  11
HETATM   11  C   UNL     1      41.810 -14.891   5.000  1.00  0.00     0.310 C 
HETATM   12  N   UNL     1      41.172 -13.885   4.293  1.00  0.00    -0.348 N 
HETATM   13  H   UNL     1      40.319 -14.145   3.808  1.00  0.00     0.163 HD
HETATM   14  O   UNL     1      42.924 -14.817   5.494  1.00  0.00    -0.262 OA
BRANCH  12  15
HETATM   15  C   UNL     1      41.867 -12.682   3.866  1.00  0.00     0.085 C 
HETATM   16  C   UNL     1      41.615 -12.338   2.389  1.00  0.00     0.034 C 
HETATM   17  C   UNL     1      40.244 -11.700   2.073  1.00  0.00    -0.045 C 
HETATM   18  C   UNL     1      39.114 -12.745   2.072  1.00  0.00     0.015 C 
HETATM   19  C   UNL     1      40.301 -11.129   0.636  1.00  0.00     0.015 C 
HETATM   20  C   UNL     1      39.951 -10.531   3.042  1.00  0.00     0.013 C 
HETATM   21  C   UNL     1      40.230 -10.772   4.535  1.00  0.00    -0.016 C 
HETATM   22  C   UNL     1      41.566 -11.491   4.782  1.00  0.00     0.029 C 
HETATM   23  C   UNL     1      39.052 -11.396   5.284  1.00  0.00     0.010 C 
ENDBRANCH  12  15
ENDBRANCH   8  11
ENDBRANCH   6   7
BRANCH   1  24
HETATM   24  C   UNL     1      42.926 -18.352   2.731  1.00  0.00     0.732 A 
HETATM   25  N   UNL     1      43.073 -19.541   2.089  1.00  0.00    -0.152 N 
HETATM   26  C   UNL     1      43.903 -20.501   2.574  1.00  0.00     0.268 A 
HETATM   27  H   UNL     1      42.603 -19.707   1.204  1.00  0.00     0.188 HD
HETATM   28  C   UNL     1      44.559 -20.185   3.876  1.00  0.00     0.035 A 
HETATM   29  O   UNL     1      44.099 -21.549   1.971  1.00  0.00    -0.267 OA
HETATM   30  C   UNL     1      44.309 -18.976   4.426  1.00  0.00     0.061 A 
HETATM   31  N   UNL     1      43.498 -18.020   3.846  1.00  0.00    -0.067 NA
HETATM   32  C   UNL     1      44.913 -18.523   5.734  1.00  0.00     0.072 C 
BRANCH  28  33
HETATM   33  C   UNL     1      45.411 -21.277   4.469  1.00  0.00     0.042 C 
HETATM   34  C   UNL     1      44.613 -22.180   5.399  1.00  0.00     0.010 C 
ENDBRANCH  28  33
ENDBRANCH   1  24
TORSDOF 5
ENDMDL
MODEL 3
REMARK VINA RESULT:      -8.7      1.182      2.309
REMARK  5 active torsions:
REMARK  status: ('A' for Active; 'I' for Inactive)
REMARK    1  A    between atoms: C_2  and  C_3 
REMARK    2  A    between atoms: C_7  and  N_8 
REMARK    3  A    between atoms: C_13  and  N_14 
REMARK       I    between atoms: N_14  and  C_15 
REMARK    4  A    between atoms: C_15  and  C_16 
REMARK       I    between atoms: C_16  and  N_17 
REMARK    5  A    between atoms: N_17  and  C_18 
ROOT
HETATM    1  N   UNL     1      41.622 -11.410   7.028  1.00  0.00    -0.045 N 
HETATM    2  N   UNL     1      40.606 -10.636   6.568  1.00  0.00    -0.156 NA
HETATM    3  C   UNL     1      40.345 -11.133   5.353  1.00  0.00     0.055 A 
HETATM    4  C   UNL     1      39.281 -10.536   4.507  1.00  0.00     0.072 C 
HETATM    5  C   UNL     1      41.184 -12.234   5.036  1.00  0.00     0.079 A 
HETATM    6  C   UNL     1      42.012 -12.387   6.121  1.00  0.00     0.152 A 
ENDROOT
BRANCH   6   7
HETATM    7  N   UNL     1      43.010 -13.313   6.388  1.00  0.00    -0.303 N 
HETATM    8  C   UNL     1      42.992 -14.732   6.321  1.00  0.00     0.315 C 
HETATM    9  O   UNL     1      43.933 -15.316   6.836  1.00  0.00    -0.262 OA
HETATM   10  H   UNL     1      43.904 -12.924   6.705  1.00  0.00     0.171 HD
BRANCH   8  11
HETATM   11  C   UNL     1      41.861 -15.531   5.665  1.00  0.00     0.310 C 
HETATM   12  N   UNL     1      42.192 -16.046   4.422  1.00  0.00    -0.348 N 
HETATM   13  H   UNL     1      43.083 -15.752   4.036  1.00  0.00     0.163 HD
HETATM   14  O   UNL     1      40.771 -15.626   6.207  1.00  0.00    -0.262 OA
BRANCH  12  15
HETATM   15  C   UNL     1      41.189 -16.579   3.515  1.00  0.00     0.085 C 
HETATM   16  C   UNL     1      40.492 -15.488   2.687  1.00  0.00     0.034 C 
HETATM   17  C   UNL     1      41.308 -14.919   1.505  1.00  0.00    -0.045 C 
HETATM   18  C   UNL     1      42.391 -13.934   1.981  1.00  0.00     0.015 C 
HETATM   19  C   UNL     1      40.347 -14.100   0.609  1.00  0.00     0.015 C 
HETATM   20  C   UNL     1      41.902 -16.063   0.652  1.00  0.00     0.013 C 
HETATM   21  C   UNL     1      42.568 -17.226   1.405  1.00  0.00    -0.016 C 
HETATM   22  C   UNL     1      41.755 -17.690   2.624  1.00  0.00     0.029 C 
HETATM   23  C   UNL     1      44.047 -16.987   1.712  1.00  0.00     0.010 C 
ENDBRANCH  12  15
ENDBRANCH   8  11
ENDBRANCH   6   7
BRANCH   1  24
HETATM   24  C   UNL     1      42.164 -11.214   8.308  1.00  0.00     0.732 A 
HETATM   25  N   UNL     1      41.211 -11.132   9.274  1.00  0.00    -0.152 N 
HETATM   26  C   UNL     1      41.551 -11.000  10.583  1.00  0.00     0.268 A 
HETATM   27  H   UNL     1      40.229 -11.224   9.034  1.00  0.00     0.188 HD
HETATM   28  C   UNL     1      43.012 -10.872  10.858  1.00  0.00     0.035 A 
HETATM   29  O   UNL     1      40.707 -10.995  11.471  1.00  0.00    -0.267 OA
HETATM   30  C   UNL     1      43.856 -10.943   9.805  1.00  0.00     0.061 A 
HETATM   31  N   UNL     1      43.444 -11.138   8.501  1.00  0.00    -0.067 NA
HETATM   32  C   UNL     1      45.356 -10.838   9.940  1.00  0.00     0.072 C 
BRANCH  28  33
HETATM   33  C   UNL     1      43.395 -10.636  12.296  1.00  0.00     0.042 C 
HETATM   34  C   UNL     1      43.226  -9.177  12.696  1.00  0.00     0.010 C 
ENDBRANCH  28  33
ENDBRANCH   1  24
TORSDOF 5
ENDMDL
MODEL 4
REMARK VINA RESULT:      -8.6      4.641      7.844
REMARK  5 active torsions:
REMARK  status: ('A' for Active; 'I' for Inactive)
REMARK    1  A    between atoms: C_2  and  C_3 
REMARK    2  A    between atoms: C_7  and  N_8 
REMARK    3  A    between atoms: C_13  and  N_14 
REMARK       I    between atoms: N_14  and  C_15 
REMARK    4  A    between atoms: C_15  and  C_16 
REMARK       I    between atoms: C_16  and  N_17 
REMARK    5  A    between atoms: N_17  and  C_18 
ROOT
HETATM    1  N   UNL     1      40.233 -12.483   2.001  1.00  0.00    -0.045 N 
HETATM    2  N   UNL     1      39.002 -11.946   2.203  1.00  0.00    -0.156 NA
HETATM    3  C   UNL     1      39.132 -11.255   3.341  1.00  0.00     0.055 A 
HETATM    4  C   UNL     1      37.976 -10.518   3.912  1.00  0.00     0.072 C 
HETATM    5  C   UNL     1      40.449 -11.335   3.866  1.00  0.00     0.079 A 
HETATM    6  C   UNL     1      41.140 -12.145   2.998  1.00  0.00     0.152 A 
ENDROOT
BRANCH   6   7
HETATM    7  N   UNL     1      42.466 -12.553   2.985  1.00  0.00    -0.303 N 
HETATM    8  C   UNL     1      43.096 -13.657   3.617  1.00  0.00     0.315 C 
HETATM    9  O   UNL     1      44.317 -13.653   3.636  1.00  0.00    -0.262 OA
HETATM   10  H   UNL     1      43.108 -11.958   2.452  1.00  0.00     0.171 HD
BRANCH   8  11
HETATM   11  C   UNL     1      42.324 -14.806   4.275  1.00  0.00     0.310 C 
HETATM   12  N   UNL     1      42.786 -16.062   3.917  1.00  0.00    -0.348 N 
HETATM   13  H   UNL     1      43.491 -16.092   3.188  1.00  0.00     0.163 HD
HETATM   14  O   UNL     1      41.365 -14.580   4.995  1.00  0.00    -0.262 OA
BRANCH  12  15
HETATM   15  C   UNL     1      42.027 -17.271   4.191  1.00  0.00     0.085 C 
HETATM   16  C   UNL     1      42.078 -18.284   3.037  1.00  0.00     0.034 C 
HETATM   17  C   UNL     1      43.388 -19.094   2.913  1.00  0.00    -0.045 C 
HETATM   18  C   UNL     1      44.521 -18.257   2.292  1.00  0.00     0.015 C 
HETATM   19  C   UNL     1      43.136 -20.266   1.934  1.00  0.00     0.015 C 
HETATM   20  C   UNL     1      43.792 -19.690   4.281  1.00  0.00     0.013 C 
HETATM   21  C   UNL     1      43.714 -18.758   5.501  1.00  0.00    -0.016 C 
HETATM   22  C   UNL     1      42.431 -17.912   5.523  1.00  0.00     0.029 C 
HETATM   23  C   UNL     1      44.987 -17.943   5.731  1.00  0.00     0.010 C 
ENDBRANCH  12  15
ENDBRANCH   8  11
ENDBRANCH   6   7
BRANCH   1  24
HETATM   24  C   UNL     1      40.509 -13.267   0.871  1.00  0.00     0.732 A 
HETATM   25  N   UNL     1      40.370 -12.577  -0.292  1.00  0.00    -0.152 N 
HETATM   26  C   UNL     1      40.651 -13.157  -1.489  1.00  0.00     0.268 A 
HETATM   27  H   UNL     1      40.105 -11.597  -0.278  1.00  0.00     0.188 HD
HETATM   28  C   UNL     1      41.035 -14.598  -1.429  1.00  0.00     0.035 A 
HETATM   29  O   UNL     1      40.598 -12.529  -2.539  1.00  0.00    -0.267 OA
HETATM   30  C   UNL     1      41.111 -15.176  -0.210  1.00  0.00     0.061 A 
HETATM   31  N   UNL     1      40.868 -14.508   0.974  1.00  0.00    -0.067 NA
HETATM   32  C   UNL     1      41.496 -16.621  -0.004  1.00  0.00     0.072 C 
BRANCH  28  33
HETATM   33  C   UNL     1      41.263 -15.276  -2.756  1.00  0.00     0.042 C 
HETATM   34  C   UNL     1      39.972 -15.835  -3.337  1.00  0.00     0.010 C 
ENDBRANCH  28  33
ENDBRANCH   1  24
TORSDOF 5
ENDMDL
MODEL 5
REMARK VINA RESULT:      -8.4      4.887      8.108
REMARK  5 active torsions:
REMARK  status: ('A' for Active; 'I' for Inactive)
REMARK    1  A    between atoms: C_2  and  C_3 
REMARK    2  A    between atoms: C_7  and  N_8 
REMARK    3  A    between atoms: C_13  and  N_14 
REMARK       I    between atoms: N_14  and  C_15 
REMARK    4  A    between atoms: C_15  and  C_16 
REMARK       I    between atoms: C_16  and  N_17 
REMARK    5  A    between atoms: N_17  and  C_18 
ROOT
HETATM    1  N   UNL     1      41.686 -16.280   4.041  1.00  0.00    -0.045 N 
HETATM    2  N   UNL     1      41.304 -15.705   5.210  1.00  0.00    -0.156 NA
HETATM    3  C   UNL     1      40.461 -14.736   4.835  1.00  0.00     0.055 A 
HETATM    4  C   UNL     1      39.825 -13.856   5.848  1.00  0.00     0.072 C 
HETATM    5  C   UNL     1      40.289 -14.695   3.426  1.00  0.00     0.079 A 
HETATM    6  C   UNL     1      41.100 -15.687   2.930  1.00  0.00     0.152 A 
ENDROOT
BRANCH   6   7
HETATM    7  N   UNL     1      41.318 -16.128   1.633  1.00  0.00    -0.303 N 
HETATM    8  C   UNL     1      41.333 -15.412   0.407  1.00  0.00     0.315 C 
HETATM    9  O   UNL     1      41.314 -16.079  -0.617  1.00  0.00    -0.262 OA
HETATM   10  H   UNL     1      41.475 -17.136   1.527  1.00  0.00     0.171 HD
BRANCH   8  11
HETATM   11  C   UNL     1      41.350 -13.882   0.323  1.00  0.00     0.310 C 
HETATM   12  N   UNL     1      40.345 -13.358  -0.474  1.00  0.00    -0.348 N 
HETATM   13  H   UNL     1      39.790 -14.027  -0.997  1.00  0.00     0.163 HD
HETATM   14  O   UNL     1      42.224 -13.238   0.882  1.00  0.00    -0.262 OA
BRANCH  12  15
HETATM   15  C   UNL     1      40.354 -11.974  -0.917  1.00  0.00     0.085 C 
HETATM   16  C   UNL     1      41.473 -11.677  -1.929  1.00  0.00     0.034 C 
HETATM   17  C   UNL     1      41.222 -12.173  -3.371  1.00  0.00    -0.045 C 
HETATM   18  C   UNL     1      41.441 -13.691  -3.499  1.00  0.00     0.015 C 
HETATM   19  C   UNL     1      42.270 -11.508  -4.295  1.00  0.00     0.015 C 
HETATM   20  C   UNL     1      39.816 -11.749  -3.856  1.00  0.00     0.013 C 
HETATM   21  C   UNL     1      38.646 -11.958  -2.880  1.00  0.00    -0.016 C 
HETATM   22  C   UNL     1      38.986 -11.531  -1.443  1.00  0.00     0.029 C 
HETATM   23  C   UNL     1      38.014 -13.347  -2.972  1.00  0.00     0.010 C 
ENDBRANCH  12  15
ENDBRANCH   8  11
ENDBRANCH   6   7
BRANCH   1  24
HETATM   24  C   UNL     1      42.563 -17.375   4.021  1.00  0.00     0.732 A 
HETATM   25  N   UNL     1      43.414 -17.384   5.081  1.00  0.00    -0.152 N 
HETATM   26  C   UNL     1      44.299 -18.400   5.261  1.00  0.00     0.268 A 
HETATM   27  H   UNL     1      43.363 -16.655   5.786  1.00  0.00     0.188 HD
HETATM   28  C   UNL     1      44.315 -19.434   4.186  1.00  0.00     0.035 A 
HETATM   29  O   UNL     1      45.024 -18.458   6.247  1.00  0.00    -0.267 OA
HETATM   30  C   UNL     1      43.435 -19.297   3.170  1.00  0.00     0.061 A 
HETATM   31  N   UNL     1      42.520 -18.266   3.081  1.00  0.00    -0.067 NA
HETATM   32  C   UNL     1      43.337 -20.273   2.023  1.00  0.00     0.072 C 
BRANCH  28  33
HETATM   33  C   UNL     1      45.352 -20.518   4.329  1.00  0.00     0.042 C 
HETATM   34  C   UNL     1      44.806 -21.735   5.062  1.00  0.00     0.010 C 
ENDBRANCH  28  33
ENDBRANCH   1  24
TORSDOF 5
ENDMDL
MODEL 6
REMARK VINA RESULT:      -8.2      3.105      8.590
REMARK  5 active torsions:
REMARK  status: ('A' for Active; 'I' for Inactive)
REMARK    1  A    between atoms: C_2  and  C_3 
REMARK    2  A    between atoms: C_7  and  N_8 
REMARK    3  A    between atoms: C_13  and  N_14 
REMARK       I    between atoms: N_14  and  C_15 
REMARK    4  A    between atoms: C_15  and  C_16 
REMARK       I    between atoms: C_16  and  N_17 
REMARK    5  A    between atoms: N_17  and  C_18 
ROOT
HETATM    1  N   UNL     1      42.863 -16.803   2.186  1.00  0.00    -0.045 N 
HETATM    2  N   UNL     1      42.247 -17.061   1.004  1.00  0.00    -0.156 NA
HETATM    3  C   UNL     1      41.832 -15.860   0.585  1.00  0.00     0.055 A 
HETATM    4  C   UNL     1      41.090 -15.723  -0.693  1.00  0.00     0.072 C 
HETATM    5  C   UNL     1      42.193 -14.826   1.490  1.00  0.00     0.079 A 
HETATM    6  C   UNL     1      42.842 -15.456   2.524  1.00  0.00     0.152 A 
ENDROOT
BRANCH   6   7
HETATM    7  N   UNL     1      43.438 -14.953   3.671  1.00  0.00    -0.303 N 
HETATM    8  C   UNL     1      42.867 -14.305   4.799  1.00  0.00     0.315 C 
HETATM    9  O   UNL     1      43.641 -13.751   5.563  1.00  0.00    -0.262 OA
HETATM   10  H   UNL     1      44.458 -15.039   3.716  1.00  0.00     0.171 HD
BRANCH   8  11
HETATM   11  C   UNL     1      41.359 -14.261   5.072  1.00  0.00     0.310 C 
HETATM   12  N   UNL     1      40.796 -13.009   4.880  1.00  0.00    -0.348 N 
HETATM   13  H   UNL     1      41.441 -12.249   4.696  1.00  0.00     0.163 HD
HETATM   14  O   UNL     1      40.770 -15.252   5.473  1.00  0.00    -0.262 OA
BRANCH  12  15
HETATM   15  C   UNL     1      39.462 -12.682   5.354  1.00  0.00     0.085 C 
HETATM   16  C   UNL     1      39.415 -12.414   6.867  1.00  0.00     0.034 C 
HETATM   17  C   UNL     1      39.951 -11.038   7.322  1.00  0.00    -0.045 C 
HETATM   18  C   UNL     1      41.490 -10.994   7.313  1.00  0.00     0.015 C 
HETATM   19  C   UNL     1      39.524 -10.820   8.793  1.00  0.00     0.015 C 
HETATM   20  C   UNL     1      39.335  -9.905   6.470  1.00  0.00     0.013 C 
HETATM   21  C   UNL     1      39.290 -10.118   4.948  1.00  0.00    -0.016 C 
HETATM   22  C   UNL     1      38.836 -11.534   4.558  1.00  0.00     0.029 C 
HETATM   23  C   UNL     1      40.561  -9.664   4.229  1.00  0.00     0.010 C 
ENDBRANCH  12  15
ENDBRANCH   8  11
ENDBRANCH   6   7
BRANCH   1  24
HETATM   24  C   UNL     1      43.465 -17.827   2.932  1.00  0.00     0.732 A 
HETATM   25  N   UNL     1      43.539 -19.000   2.248  1.00  0.00    -0.152 N 
HETATM   26  C   UNL     1      44.143 -20.090   2.790  1.00  0.00     0.268 A 
HETATM   27  H   UNL     1      43.190 -19.061   1.297  1.00  0.00     0.188 HD
HETATM   28  C   UNL     1      44.633 -19.923   4.190  1.00  0.00     0.035 A 
HETATM   29  O   UNL     1      44.279 -21.132   2.161  1.00  0.00    -0.267 OA
HETATM   30  C   UNL     1      44.475 -18.713   4.769  1.00  0.00     0.061 A 
HETATM   31  N   UNL     1      43.903 -17.627   4.136  1.00  0.00    -0.067 NA
HETATM   32  C   UNL     1      44.932 -18.404   6.174  1.00  0.00     0.072 C 
BRANCH  28  33
HETATM   33  C   UNL     1      45.224 -21.152   4.832  1.00  0.00     0.042 C 
HETATM   34  C   UNL     1      44.229 -21.848   5.750  1.00  0.00     0.010 C 
ENDBRANCH  28  33
ENDBRANCH   1  24
TORSDOF 5
ENDMDL
MODEL 7
REMARK VINA RESULT:      -8.2      5.876      9.996
REMARK  5 active torsions:
REMARK  status: ('A' for Active; 'I' for Inactive)
REMARK    1  A    between atoms: C_2  and  C_3 
REMARK    2  A    between atoms: C_7  and  N_8 
REMARK    3  A    between atoms: C_13  and  N_14 
REMARK       I    between atoms: N_14  and  C_15 
REMARK    4  A    between atoms: C_15  and  C_16 
REMARK       I    between atoms: C_16  and  N_17 
REMARK    5  A    between atoms: N_17  and  C_18 
ROOT
HETATM    1  N   UNL     1      41.024 -13.469  -2.979  1.00  0.00    -0.045 N 
HETATM    2  N   UNL     1      40.350 -14.325  -3.790  1.00  0.00    -0.156 NA
HETATM    3  C   UNL     1      40.272 -15.454  -3.077  1.00  0.00     0.055 A 
HETATM    4  C   UNL     1      39.602 -16.655  -3.637  1.00  0.00     0.072 C 
HETATM    5  C   UNL     1      40.883 -15.322  -1.801  1.00  0.00     0.079 A 
HETATM    6  C   UNL     1      41.377 -14.041  -1.764  1.00  0.00     0.152 A 
ENDROOT
BRANCH   6   7
HETATM    7  N   UNL     1      42.043 -13.346  -0.765  1.00  0.00    -0.303 N 
HETATM    8  C   UNL     1      41.872 -13.370   0.645  1.00  0.00     0.315 C 
HETATM    9  O   UNL     1      42.427 -12.486   1.279  1.00  0.00    -0.262 OA
HETATM   10  H   UNL     1      42.763 -12.690  -1.084  1.00  0.00     0.171 HD
BRANCH   8  11
HETATM   11  C   UNL     1      41.028 -14.420   1.375  1.00  0.00     0.310 C 
HETATM   12  N   UNL     1      41.744 -15.545   1.751  1.00  0.00    -0.348 N 
HETATM   13  H   UNL     1      42.698 -15.607   1.413  1.00  0.00     0.163 HD
HETATM   14  O   UNL     1      39.829 -14.254   1.534  1.00  0.00    -0.262 OA
BRANCH  12  15
HETATM   15  C   UNL     1      41.088 -16.767   2.189  1.00  0.00     0.085 C 
HETATM   16  C   UNL     1      41.722 -18.033   1.591  1.00  0.00     0.034 C 
HETATM   17  C   UNL     1      43.057 -18.480   2.230  1.00  0.00    -0.045 C 
HETATM   18  C   UNL     1      44.235 -17.609   1.759  1.00  0.00     0.015 C 
HETATM   19  C   UNL     1      43.363 -19.916   1.742  1.00  0.00     0.015 C 
HETATM   20  C   UNL     1      42.940 -18.511   3.771  1.00  0.00     0.013 C 
HETATM   21  C   UNL     1      42.264 -17.306   4.447  1.00  0.00    -0.016 C 
HETATM   22  C   UNL     1      40.991 -16.850   3.715  1.00  0.00     0.029 C 
HETATM   23  C   UNL     1      43.229 -16.164   4.765  1.00  0.00     0.010 C 
ENDBRANCH  12  15
ENDBRANCH   8  11
ENDBRANCH   6   7
BRANCH   1  24
HETATM   24  C   UNL     1      41.283 -12.147  -3.371  1.00  0.00     0.732 A 
HETATM   25  N   UNL     1      40.609 -11.793  -4.497  1.00  0.00    -0.152 N 
HETATM   26  C   UNL     1      40.692 -10.531  -4.995  1.00  0.00     0.268 A 
HETATM   27  H   UNL     1      39.989 -12.455  -4.953  1.00  0.00     0.188 HD
HETATM   28  C   UNL     1      41.621  -9.615  -4.272  1.00  0.00     0.035 A 
HETATM   29  O   UNL     1      40.038 -10.177  -5.968  1.00  0.00    -0.267 OA
HETATM   30  C   UNL     1      42.253 -10.098  -3.179  1.00  0.00     0.061 A 
HETATM   31  N   UNL     1      42.076 -11.379  -2.693  1.00  0.00    -0.067 NA
HETATM   32  C   UNL     1      43.211  -9.278  -2.349  1.00  0.00     0.072 C 
BRANCH  28  33
HETATM   33  C   UNL     1      41.789  -8.240  -4.866  1.00  0.00     0.042 C 
HETATM   34  C   UNL     1      42.824  -8.227  -5.983  1.00  0.00     0.010 C 
ENDBRANCH  28  33
ENDBRANCH   1  24
TORSDOF 5
ENDMDL
MODEL 8
REMARK VINA RESULT:      -8.2      4.062      7.837
REMARK  5 active torsions:
REMARK  status: ('A' for Active; 'I' for Inactive)
REMARK    1  A    between atoms: C_2  and  C_3 
REMARK    2  A    between atoms: C_7  and  N_8 
REMARK    3  A    between atoms: C_13  and  N_14 
REMARK       I    between atoms: N_14  and  C_15 
REMARK    4  A    between atoms: C_15  and  C_16 
REMARK       I    between atoms: C_16  and  N_17 
REMARK    5  A    between atoms: N_17  and  C_18 
ROOT
HETATM    1  N   UNL     1      43.551 -15.890   5.191  1.00  0.00    -0.045 N 
HETATM    2  N   UNL     1      44.455 -15.503   6.128  1.00  0.00    -0.156 NA
HETATM    3  C   UNL     1      43.908 -14.412   6.676  1.00  0.00     0.055 A 
HETATM    4  C   UNL     1      44.613 -13.676   7.756  1.00  0.00     0.072 C 
HETATM    5  C   UNL     1      42.646 -14.103   6.102  1.00  0.00     0.079 A 
HETATM    6  C   UNL     1      42.441 -15.057   5.135  1.00  0.00     0.152 A 
ENDROOT
BRANCH   6   7
HETATM    7  N   UNL     1      41.374 -15.275   4.276  1.00  0.00    -0.303 N 
HETATM    8  C   UNL     1      40.999 -14.601   3.083  1.00  0.00     0.315 C 
HETATM    9  O   UNL     1      39.884 -14.840   2.647  1.00  0.00    -0.262 OA
HETATM   10  H   UNL     1      40.734 -16.029   4.545  1.00  0.00     0.171 HD
BRANCH   8  11
HETATM   11  C   UNL     1      41.906 -13.600   2.358  1.00  0.00     0.310 C 
HETATM   12  N   UNL     1      41.231 -12.783   1.466  1.00  0.00    -0.348 N 
HETATM   13  H   UNL     1      40.254 -13.003   1.304  1.00  0.00     0.163 HD
HETATM   14  O   UNL     1      43.112 -13.604   2.547  1.00  0.00    -0.262 OA
BRANCH  12  15
HETATM   15  C   UNL     1      41.928 -11.976   0.479  1.00  0.00     0.085 C 
HETATM   16  C   UNL     1      42.258 -12.755  -0.805  1.00  0.00     0.034 C 
HETATM   17  C   UNL     1      41.075 -12.982  -1.774  1.00  0.00    -0.045 C 
HETATM   18  C   UNL     1      40.137 -14.098  -1.280  1.00  0.00     0.015 C 
HETATM   19  C   UNL     1      41.651 -13.472  -3.125  1.00  0.00     0.015 C 
HETATM   20  C   UNL     1      40.317 -11.658  -2.027  1.00  0.00     0.013 C 
HETATM   21  C   UNL     1      39.999 -10.788  -0.800  1.00  0.00    -0.016 C 
HETATM   22  C   UNL     1      41.183 -10.674   0.173  1.00  0.00     0.029 C 
HETATM   23  C   UNL     1      38.680 -11.154  -0.118  1.00  0.00     0.010 C 
ENDBRANCH  12  15
ENDBRANCH   8  11
ENDBRANCH   6   7
BRANCH   1  24
HETATM   24  C   UNL     1      43.759 -17.036   4.410  1.00  0.00     0.732 A 
HETATM   25  N   UNL     1      44.084 -18.126   5.154  1.00  0.00    -0.152 N 
HETATM   26  C   UNL     1      44.266 -19.342   4.574  1.00  0.00     0.268 A 
HETATM   27  H   UNL     1      44.143 -18.058   6.165  1.00  0.00     0.188 HD
HETATM   28  C   UNL     1      44.163 -19.365   3.086  1.00  0.00     0.035 A 
HETATM   29  O   UNL     1      44.492 -20.346   5.238  1.00  0.00    -0.267 OA
HETATM   30  C   UNL     1      43.859 -18.206   2.461  1.00  0.00     0.061 A 
HETATM   31  N   UNL     1      43.628 -17.014   3.120  1.00  0.00    -0.067 NA
HETATM   32  C   UNL     1      43.715 -18.088   0.963  1.00  0.00     0.072 C 
BRANCH  28  33
HETATM   33  C   UNL     1      44.450 -20.688   2.424  1.00  0.00     0.042 C 
HETATM   34  C   UNL     1      43.182 -21.351   1.905  1.00  0.00     0.010 C 
ENDBRANCH  28  33
ENDBRANCH   1  24
TORSDOF 5
ENDMDL
MODEL 9
REMARK VINA RESULT:      -8.1      3.626      6.198
REMARK  5 active torsions:
REMARK  status: ('A' for Active; 'I' for Inactive)
REMARK    1  A    between atoms: C_2  and  C_3 
REMARK    2  A    between atoms: C_7  and  N_8 
REMARK    3  A    between atoms: C_13  and  N_14 
REMARK       I    between atoms: N_14  and  C_15 
REMARK    4  A    between atoms: C_15  and  C_16 
REMARK       I    between atoms: C_16  and  N_17 
REMARK    5  A    between atoms: N_17  and  C_18 
ROOT
HETATM    1  N   UNL     1      41.798 -14.225   5.294  1.00  0.00    -0.045 N 
HETATM    2  N   UNL     1      42.122 -13.040   5.874  1.00  0.00    -0.156 NA
HETATM    3  C   UNL     1      41.222 -12.182   5.382  1.00  0.00     0.055 A 
HETATM    4  C   UNL     1      41.250 -10.750   5.777  1.00  0.00     0.072 C 
HETATM    5  C   UNL     1      40.310 -12.815   4.495  1.00  0.00     0.079 A 
HETATM    6  C   UNL     1      40.709 -14.128   4.438  1.00  0.00     0.152 A 
ENDROOT
BRANCH   6   7
HETATM    7  N   UNL     1      40.180 -15.216   3.760  1.00  0.00    -0.303 N 
HETATM    8  C   UNL     1      40.375 -15.651   2.422  1.00  0.00     0.315 C 
HETATM    9  O   UNL     1      39.607 -16.505   2.006  1.00  0.00    -0.262 OA
HETATM   10  H   UNL     1      39.526 -15.797   4.293  1.00  0.00     0.171 HD
BRANCH   8  11
HETATM   11  C   UNL     1      41.467 -15.091   1.503  1.00  0.00     0.310 C 
HETATM   12  N   UNL     1      41.173 -13.838   0.991  1.00  0.00    -0.348 N 
HETATM   13  H   UNL     1      40.242 -13.481   1.179  1.00  0.00     0.163 HD
HETATM   14  O   UNL     1      42.457 -15.754   1.237  1.00  0.00    -0.262 OA
BRANCH  12  15
HETATM   15  C   UNL     1      41.923 -13.259  -0.111  1.00  0.00     0.085 C 
HETATM   16  C   UNL     1      41.500 -13.815  -1.480  1.00  0.00     0.034 C 
HETATM   17  C   UNL     1      40.172 -13.262  -2.047  1.00  0.00    -0.045 C 
HETATM   18  C   UNL     1      38.949 -13.893  -1.357  1.00  0.00     0.015 C 
HETATM   19  C   UNL     1      40.082 -13.669  -3.538  1.00  0.00     0.015 C 
HETATM   20  C   UNL     1      40.148 -11.718  -1.969  1.00  0.00     0.013 C 
HETATM   21  C   UNL     1      40.614 -11.076  -0.651  1.00  0.00    -0.016 C 
HETATM   22  C   UNL     1      41.887 -11.728  -0.088  1.00  0.00     0.029 C 
HETATM   23  C   UNL     1      39.496 -10.924   0.382  1.00  0.00     0.010 C 
ENDBRANCH  12  15
ENDBRANCH   8  11
ENDBRANCH   6   7
BRANCH   1  24
HETATM   24  C   UNL     1      42.510 -15.397   5.588  1.00  0.00     0.732 A 
HETATM   25  N   UNL     1      42.734 -15.554   6.920  1.00  0.00    -0.152 N 
HETATM   26  C   UNL     1      43.360 -16.661   7.400  1.00  0.00     0.268 A 
HETATM   27  H   UNL     1      42.387 -14.868   7.583  1.00  0.00     0.188 HD
HETATM   28  C   UNL     1      43.840 -17.625   6.366  1.00  0.00     0.035 A 
HETATM   29  O   UNL     1      43.508 -16.850   8.601  1.00  0.00    -0.267 OA
HETATM   30  C   UNL     1      43.577 -17.340   5.072  1.00  0.00     0.061 A 
HETATM   31  N   UNL     1      42.881 -16.220   4.658  1.00  0.00    -0.067 NA
HETATM   32  C   UNL     1      43.996 -18.230   3.928  1.00  0.00     0.072 C 
BRANCH  28  33
HETATM   33  C   UNL     1      44.614 -18.813   6.880  1.00  0.00     0.042 C 
HETATM   34  C   UNL     1      43.711 -20.012   7.132  1.00  0.00     0.010 C 
ENDBRANCH  28  33
ENDBRANCH   1  24
TORSDOF 5
ENDMDL
MODEL 10
REMARK VINA RESULT:      -8.1      3.281      4.648
REMARK  5 active torsions:
REMARK  status: ('A' for Active; 'I' for Inactive)
REMARK    1  A    between atoms: C_2  and  C_3 
REMARK    2  A    between atoms: C_7  and  N_8 
REMARK    3  A    between atoms: C_13  and  N_14 
REMARK       I    between atoms: N_14  and  C_15 
REMARK    4  A    between atoms: C_15  and  C_16 
REMARK       I    between atoms: C_16  and  N_17 
REMARK    5  A    between atoms: N_17  and  C_18 
ROOT
HETATM    1  N   UNL     1      40.425 -12.389   2.731  1.00  0.00    -0.045 N 
HETATM    2  N   UNL     1      39.310 -12.520   1.966  1.00  0.00    -0.156 NA
HETATM    3  C   UNL     1      39.709 -13.283   0.942  1.00  0.00     0.055 A 
HETATM    4  C   UNL     1      38.759 -13.649  -0.140  1.00  0.00     0.072 C 
HETATM    5  C   UNL     1      41.075 -13.655   1.053  1.00  0.00     0.079 A 
HETATM    6  C   UNL     1      41.524 -13.055   2.205  1.00  0.00     0.152 A 
ENDROOT
BRANCH   6   7
HETATM    7  N   UNL     1      42.761 -13.087   2.831  1.00  0.00    -0.303 N 
HETATM    8  C   UNL     1      43.211 -13.847   3.943  1.00  0.00     0.315 C 
HETATM    9  O   UNL     1      44.275 -13.512   4.441  1.00  0.00    -0.262 OA
HETATM   10  H   UNL     1      43.468 -12.449   2.452  1.00  0.00     0.171 HD
BRANCH   8  11
HETATM   11  C   UNL     1      42.425 -15.022   4.536  1.00  0.00     0.310 C 
HETATM   12  N   UNL     1      42.912 -16.263   4.160  1.00  0.00    -0.348 N 
HETATM   13  H   UNL     1      43.645 -16.265   3.459  1.00  0.00     0.163 HD
HETATM   14  O   UNL     1      41.436 -14.825   5.225  1.00  0.00    -0.262 OA
BRANCH  12  15
HETATM   15  C   UNL     1      42.154 -17.485   4.368  1.00  0.00     0.085 C 
HETATM   16  C   UNL     1      42.167 -18.414   3.143  1.00  0.00     0.034 C 
HETATM   17  C   UNL     1      43.469 -19.218   2.925  1.00  0.00    -0.045 C 
HETATM   18  C   UNL     1      44.589 -18.342   2.335  1.00  0.00     0.015 C 
HETATM   19  C   UNL     1      43.183 -20.316   1.873  1.00  0.00     0.015 C 
HETATM   20  C   UNL     1      43.908 -19.911   4.236  1.00  0.00     0.013 C 
HETATM   21  C   UNL     1      43.868 -19.068   5.521  1.00  0.00    -0.016 C 
HETATM   22  C   UNL     1      42.591 -18.221   5.639  1.00  0.00     0.029 C 
HETATM   23  C   UNL     1      45.152 -18.276   5.772  1.00  0.00     0.010 C 
ENDBRANCH  12  15
ENDBRANCH   8  11
ENDBRANCH   6   7
BRANCH   1  24
HETATM   24  C   UNL     1      40.400 -11.667   3.934  1.00  0.00     0.732 A 
HETATM   25  N   UNL     1      39.673 -12.285   4.902  1.00  0.00    -0.152 N 
HETATM   26  C   UNL     1      39.584 -11.761   6.153  1.00  0.00     0.268 A 
HETATM   27  H   UNL     1      39.229 -13.179   4.718  1.00  0.00     0.188 HD
HETATM   28  C   UNL     1      40.263 -10.446   6.348  1.00  0.00     0.035 A 
HETATM   29  O   UNL     1      38.991 -12.340   7.055  1.00  0.00    -0.267 OA
HETATM   30  C   UNL     1      40.932  -9.924   5.297  1.00  0.00     0.061 A 
HETATM   31  N   UNL     1      41.031 -10.542   4.065  1.00  0.00    -0.067 NA
HETATM   32  C   UNL     1      41.669  -8.608   5.358  1.00  0.00     0.072 C 
BRANCH  28  33
HETATM   33  C   UNL     1      40.096  -9.812   7.705  1.00  0.00     0.042 C 
HETATM   34  C   UNL     1      38.910  -8.860   7.746  1.00  0.00     0.010 C 
ENDBRANCH  28  33
ENDBRANCH   1  24
TORSDOF 5
ENDMDL
