MODEL 1
REMARK VINA RESULT:      -9.4      0.000      0.000
REMARK  7 active torsions:
REMARK  status: ('A' for Active; 'I' for Inactive)
REMARK    1  A    between atoms: C_2  and  C_3 
REMARK    2  A    between atoms: C_7  and  N_8 
REMARK    3  A    between atoms: C_10  and  C_11 
REMARK    4  A    between atoms: C_17  and  N_18 
REMARK       I    between atoms: N_18  and  C_19 
REMARK    5  A    between atoms: C_19  and  C_20 
REMARK    6  A    between atoms: C_20  and  O_21 
REMARK    7  A    between atoms: O_21  and  C_22 
ROOT
HETATM    1  N   UNL     1      41.592 -15.668   0.687  1.00  0.00    -0.044 N 
HETATM    2  N   UNL     1      42.666 -16.466   0.964  1.00  0.00    -0.148 NA
HETATM    3  C   UNL     1      42.213 -17.329   1.879  1.00  0.00     0.115 A 
HETATM    4  C   UNL     1      40.856 -17.113   2.189  1.00  0.00     0.087 A 
HETATM    5  C   UNL     1      40.487 -16.006   1.462  1.00  0.00     0.152 A 
ENDROOT
BRANCH   5   6
HETATM    6  N   UNL     1      39.192 -15.513   1.470  1.00  0.00    -0.309 N 
HETATM    7  C   UNL     1      38.800 -14.148   1.675  1.00  0.00     0.247 C 
HETATM    8  O   UNL     1      37.674 -13.870   1.286  1.00  0.00    -0.271 OA
HETATM    9  H   UNL     1      38.418 -16.159   1.365  1.00  0.00     0.170 HD
BRANCH   7  10
HETATM   10  C   UNL     1      39.663 -13.218   2.508  1.00  0.00     0.278 C 
BRANCH  10  11
HETATM   11  O   UNL     1      39.561 -13.654   3.862  1.00  0.00    -0.342 OA
BRANCH  11  12
HETATM   12  C   UNL     1      40.719 -14.065   4.464  1.00  0.00     0.070 A 
HETATM   13  C   UNL     1      40.595 -15.214   5.251  1.00  0.00     0.049 A 
HETATM   14  C   UNL     1      41.701 -15.754   5.932  1.00  0.00    -0.023 A 
HETATM   15  C   UNL     1      42.958 -15.123   5.811  1.00  0.00    -0.026 A 
HETATM   16  C   UNL     1      41.585 -16.904   6.729  1.00  0.00     0.012 A 
HETATM   17  C   UNL     1      43.072 -13.974   5.015  1.00  0.00     0.015 A 
HETATM   18  C   UNL     1      44.065 -15.658   6.489  1.00  0.00     0.012 A 
HETATM   19  C   UNL     1      41.963 -13.449   4.344  1.00  0.00     0.037 A 
HETATM   20  C   UNL     1      43.934 -16.802   7.277  1.00  0.00     0.001 A 
HETATM   21  C   UNL     1      42.694 -17.424   7.398  1.00  0.00     0.001 A 
ENDBRANCH  11  12
ENDBRANCH  10  11
ENDBRANCH   7  10
ENDBRANCH   5   6
BRANCH   1  22
HETATM   22  C   UNL     1      41.703 -14.729  -0.355  1.00  0.00     0.732 A 
HETATM   23  N   UNL     1      41.392 -15.277  -1.563  1.00  0.00    -0.152 N 
HETATM   24  C   UNL     1      41.371 -14.535  -2.699  1.00  0.00     0.268 A 
HETATM   25  H   UNL     1      41.084 -16.244  -1.617  1.00  0.00     0.188 HD
HETATM   26  C   UNL     1      41.834 -13.126  -2.548  1.00  0.00     0.035 A 
HETATM   27  O   UNL     1      40.996 -15.000  -3.768  1.00  0.00    -0.267 OA
HETATM   28  C   UNL     1      42.148 -12.705  -1.303  1.00  0.00     0.061 A 
HETATM   29  N   UNL     1      42.058 -13.500  -0.174  1.00  0.00    -0.067 NA
HETATM   30  C   UNL     1      42.628 -11.307  -1.005  1.00  0.00     0.072 C 
BRANCH  26  31
HETATM   31  C   UNL     1      41.944 -12.335  -3.827  1.00  0.00     0.042 C 
HETATM   32  C   UNL     1      40.691 -11.518  -4.106  1.00  0.00     0.010 C 
ENDBRANCH  26  31
ENDBRANCH   1  22
BRANCH   3  33
HETATM   33  C   UNL     1      43.069 -18.388   2.486  1.00  0.00     0.105 A 
HETATM   34  O   UNL     1      43.524 -19.487   1.811  1.00  0.00    -0.320 OA
HETATM   35  C   UNL     1      44.243 -20.231   2.691  1.00  0.00     0.142 A 
HETATM   36  C   UNL     1      44.277 -19.620   3.922  1.00  0.00     0.027 A 
HETATM   37  C   UNL     1      43.518 -18.433   3.792  1.00  0.00     0.041 A 
ENDBRANCH   3  33
TORSDOF 7
ENDMDL
MODEL 2
REMARK VINA RESULT:      -9.3      2.213      7.045
REMARK  7 active torsions:
REMARK  status: ('A' for Active; 'I' for Inactive)
REMARK    1  A    between atoms: C_2  and  C_3 
REMARK    2  A    between atoms: C_7  and  N_8 
REMARK    3  A    between atoms: C_10  and  C_11 
REMARK    4  A    between atoms: C_17  and  N_18 
REMARK       I    between atoms: N_18  and  C_19 
REMARK    5  A    between atoms: C_19  and  C_20 
REMARK    6  A    between atoms: C_20  and  O_21 
REMARK    7  A    between atoms: O_21  and  C_22 
ROOT
HETATM    1  N   UNL     1      42.110 -13.743   1.689  1.00  0.00    -0.044 N 
HETATM    2  N   UNL     1      42.569 -12.530   1.256  1.00  0.00    -0.148 NA
HETATM    3  C   UNL     1      42.137 -12.442  -0.006  1.00  0.00     0.115 A 
HETATM    4  C   UNL     1      41.391 -13.571  -0.394  1.00  0.00     0.087 A 
HETATM    5  C   UNL     1      41.433 -14.425   0.683  1.00  0.00     0.152 A 
ENDROOT
BRANCH   5   6
HETATM    6  N   UNL     1      40.761 -15.637   0.694  1.00  0.00    -0.309 N 
HETATM    7  C   UNL     1      41.326 -16.923   0.989  1.00  0.00     0.247 C 
HETATM    8  O   UNL     1      40.515 -17.784   1.300  1.00  0.00    -0.271 OA
HETATM    9  H   UNL     1      39.782 -15.661   0.431  1.00  0.00     0.170 HD
BRANCH   7  10
HETATM   10  C   UNL     1      42.792 -17.199   0.711  1.00  0.00     0.278 C 
BRANCH  10  11
HETATM   11  O   UNL     1      43.516 -16.842   1.887  1.00  0.00    -0.342 OA
BRANCH  11  12
HETATM   12  C   UNL     1      43.812 -17.855   2.758  1.00  0.00     0.070 A 
HETATM   13  C   UNL     1      43.927 -19.118   2.171  1.00  0.00     0.049 A 
HETATM   14  C   UNL     1      44.227 -20.256   2.941  1.00  0.00    -0.023 A 
HETATM   15  C   UNL     1      44.419 -20.112   4.333  1.00  0.00    -0.026 A 
HETATM   16  C   UNL     1      44.338 -21.530   2.361  1.00  0.00     0.012 A 
HETATM   17  C   UNL     1      44.307 -18.840   4.911  1.00  0.00     0.015 A 
HETATM   18  C   UNL     1      44.719 -21.246   5.107  1.00  0.00     0.012 A 
HETATM   19  C   UNL     1      44.007 -17.718   4.131  1.00  0.00     0.037 A 
HETATM   20  C   UNL     1      44.826 -22.505   4.516  1.00  0.00     0.001 A 
HETATM   21  C   UNL     1      44.636 -22.647   3.144  1.00  0.00     0.001 A 
ENDBRANCH  11  12
ENDBRANCH  10  11
ENDBRANCH   7  10
ENDBRANCH   5   6
BRANCH   1  22
HETATM   22  C   UNL     1      42.282 -14.082   3.044  1.00  0.00     0.732 A 
HETATM   23  N   UNL     1      43.547 -13.813   3.475  1.00  0.00    -0.152 N 
HETATM   24  C   UNL     1      43.916 -14.003   4.767  1.00  0.00     0.268 A 
HETATM   25  H   UNL     1      44.216 -13.381   2.844  1.00  0.00     0.188 HD
HETATM   26  C   UNL     1      42.886 -14.641   5.636  1.00  0.00     0.035 A 
HETATM   27  O   UNL     1      45.019 -13.670   5.179  1.00  0.00    -0.267 OA
HETATM   28  C   UNL     1      41.677 -14.890   5.086  1.00  0.00     0.061 A 
HETATM   29  N   UNL     1      41.346 -14.585   3.779  1.00  0.00    -0.067 NA
HETATM   30  C   UNL     1      40.544 -15.530   5.849  1.00  0.00     0.072 C 
BRANCH  26  31
HETATM   31  C   UNL     1      43.333 -14.980   7.035  1.00  0.00     0.042 C 
HETATM   32  C   UNL     1      43.282 -16.476   7.307  1.00  0.00     0.010 C 
ENDBRANCH  26  31
ENDBRANCH   1  22
BRANCH   3  33
HETATM   33  C   UNL     1      42.428 -11.270  -0.880  1.00  0.00     0.105 A 
HETATM   34  O   UNL     1      43.538 -10.480  -0.761  1.00  0.00    -0.320 OA
HETATM   35  C   UNL     1      43.444  -9.507  -1.703  1.00  0.00     0.142 A 
HETATM   36  C   UNL     1      42.299  -9.666  -2.446  1.00  0.00     0.027 A 
HETATM   37  C   UNL     1      41.640 -10.801  -1.914  1.00  0.00     0.041 A 
ENDBRANCH   3  33
TORSDOF 7
ENDMDL
MODEL 3
REMARK VINA RESULT:      -9.2      1.953      2.744
REMARK  7 active torsions:
REMARK  status: ('A' for Active; 'I' for Inactive)
REMARK    1  A    between atoms: C_2  and  C_3 
REMARK    2  A    between atoms: C_7  and  N_8 
REMARK    3  A    between atoms: C_10  and  C_11 
REMARK    4  A    between atoms: C_17  and  N_18 
REMARK       I    between atoms: N_18  and  C_19 
REMARK    5  A    between atoms: C_19  and  C_20 
REMARK    6  A    between atoms: C_20  and  O_21 
REMARK    7  A    between atoms: O_21  and  C_22 
ROOT
HETATM    1  N   UNL     1      41.899 -15.700   0.684  1.00  0.00    -0.044 N 
HETATM    2  N   UNL     1      42.162 -17.040   0.636  1.00  0.00    -0.148 NA
HETATM    3  C   UNL     1      42.949 -17.263   1.694  1.00  0.00     0.115 A 
HETATM    4  C   UNL     1      43.187 -16.091   2.437  1.00  0.00     0.087 A 
HETATM    5  C   UNL     1      42.558 -15.084   1.744  1.00  0.00     0.152 A 
ENDROOT
BRANCH   5   6
HETATM    6  N   UNL     1      42.530 -13.776   2.200  1.00  0.00    -0.309 N 
HETATM    7  C   UNL     1      41.774 -13.277   3.313  1.00  0.00     0.247 C 
HETATM    8  O   UNL     1      42.164 -12.209   3.764  1.00  0.00    -0.271 OA
HETATM    9  H   UNL     1      43.050 -13.067   1.695  1.00  0.00     0.170 HD
BRANCH   7  10
HETATM   10  C   UNL     1      40.474 -13.945   3.719  1.00  0.00     0.278 C 
BRANCH  10  11
HETATM   11  O   UNL     1      40.643 -14.409   5.057  1.00  0.00    -0.342 OA
BRANCH  11  12
HETATM   12  C   UNL     1      41.229 -15.637   5.212  1.00  0.00     0.070 A 
HETATM   13  C   UNL     1      42.491 -15.612   5.812  1.00  0.00     0.049 A 
HETATM   14  C   UNL     1      43.215 -16.797   6.035  1.00  0.00    -0.023 A 
HETATM   15  C   UNL     1      42.649 -18.031   5.649  1.00  0.00    -0.026 A 
HETATM   16  C   UNL     1      44.487 -16.782   6.631  1.00  0.00     0.012 A 
HETATM   17  C   UNL     1      41.379 -18.045   5.054  1.00  0.00     0.015 A 
HETATM   18  C   UNL     1      43.368 -19.218   5.870  1.00  0.00     0.012 A 
HETATM   19  C   UNL     1      40.672 -16.858   4.838  1.00  0.00     0.037 A 
HETATM   20  C   UNL     1      44.630 -19.186   6.464  1.00  0.00     0.001 A 
HETATM   21  C   UNL     1      45.189 -17.969   6.843  1.00  0.00     0.001 A 
ENDBRANCH  11  12
ENDBRANCH  10  11
ENDBRANCH   7  10
ENDBRANCH   5   6
BRANCH   1  22
HETATM   22  C   UNL     1      40.971 -15.164  -0.228  1.00  0.00     0.732 A 
HETATM   23  N   UNL     1      41.296 -15.469  -1.517  1.00  0.00    -0.152 N 
HETATM   24  C   UNL     1      40.503 -15.107  -2.557  1.00  0.00     0.268 A 
HETATM   25  H   UNL     1      42.104 -16.054  -1.711  1.00  0.00     0.188 HD
HETATM   26  C   UNL     1      39.336 -14.251  -2.201  1.00  0.00     0.035 A 
HETATM   27  O   UNL     1      40.740 -15.464  -3.704  1.00  0.00    -0.267 OA
HETATM   28  C   UNL     1      39.135 -13.989  -0.890  1.00  0.00     0.061 A 
HETATM   29  N   UNL     1      39.941 -14.470   0.126  1.00  0.00    -0.067 NA
HETATM   30  C   UNL     1      37.994 -13.139  -0.389  1.00  0.00     0.072 C 
BRANCH  26  31
HETATM   31  C   UNL     1      38.529 -13.732  -3.363  1.00  0.00     0.042 C 
HETATM   32  C   UNL     1      37.373 -14.655  -3.717  1.00  0.00     0.010 C 
ENDBRANCH  26  31
ENDBRANCH   1  22
BRANCH   3  33
HETATM   33  C   UNL     1      43.497 -18.610   2.023  1.00  0.00     0.105 A 
HETATM   34  O   UNL     1      44.703 -18.819   2.634  1.00  0.00    -0.320 OA
HETATM   35  C   UNL     1      44.870 -20.162   2.744  1.00  0.00     0.142 A 
HETATM   36  C   UNL     1      43.783 -20.827   2.231  1.00  0.00     0.027 A 
HETATM   37  C   UNL     1      42.897 -19.827   1.763  1.00  0.00     0.041 A 
ENDBRANCH   3  33
TORSDOF 7
ENDMDL
MODEL 4
REMARK VINA RESULT:      -9.1      2.979      6.432
REMARK  7 active torsions:
REMARK  status: ('A' for Active; 'I' for Inactive)
REMARK    1  A    between atoms: C_2  and  C_3 
REMARK    2  A    between atoms: C_7  and  N_8 
REMARK    3  A    between atoms: C_10  and  C_11 
REMARK    4  A    between atoms: C_17  and  N_18 
REMARK       I    between atoms: N_18  and  C_19 
REMARK    5  A    between atoms: C_19  and  C_20 
REMARK    6  A    between atoms: C_20  and  O_21 
REMARK    7  A    between atoms: O_21  and  C_22 
ROOT
HETATM    1  N   UNL     1      39.817 -13.115   4.185  1.00  0.00    -0.044 N 
HETATM    2  N   UNL     1      39.870 -11.766   4.405  1.00  0.00    -0.148 NA
HETATM    3  C   UNL     1      39.881 -11.647   5.737  1.00  0.00     0.115 A 
HETATM    4  C   UNL     1      39.853 -12.897   6.384  1.00  0.00     0.087 A 
HETATM    5  C   UNL     1      39.751 -13.828   5.377  1.00  0.00     0.152 A 
ENDROOT
BRANCH   5   6
HETATM    6  N   UNL     1      39.746 -15.191   5.626  1.00  0.00    -0.309 N 
HETATM    7  C   UNL     1      40.850 -15.976   6.100  1.00  0.00     0.247 C 
HETATM    8  O   UNL     1      40.544 -17.053   6.594  1.00  0.00    -0.271 OA
HETATM    9  H   UNL     1      38.908 -15.726   5.425  1.00  0.00     0.170 HD
BRANCH   7  10
HETATM   10  C   UNL     1      42.276 -15.559   5.793  1.00  0.00     0.278 C 
BRANCH  10  11
HETATM   11  O   UNL     1      42.592 -16.067   4.499  1.00  0.00    -0.342 OA
BRANCH  11  12
HETATM   12  C   UNL     1      43.185 -17.299   4.451  1.00  0.00     0.070 A 
HETATM   13  C   UNL     1      42.917 -18.035   3.292  1.00  0.00     0.049 A 
HETATM   14  C   UNL     1      43.457 -19.319   3.103  1.00  0.00    -0.023 A 
HETATM   15  C   UNL     1      44.289 -19.869   4.102  1.00  0.00    -0.026 A 
HETATM   16  C   UNL     1      43.188 -20.068   1.946  1.00  0.00     0.012 A 
HETATM   17  C   UNL     1      44.557 -19.120   5.258  1.00  0.00     0.015 A 
HETATM   18  C   UNL     1      44.832 -21.152   3.918  1.00  0.00     0.012 A 
HETATM   19  C   UNL     1      44.011 -17.844   5.432  1.00  0.00     0.037 A 
HETATM   20  C   UNL     1      44.556 -21.883   2.763  1.00  0.00     0.001 A 
HETATM   21  C   UNL     1      43.734 -21.342   1.777  1.00  0.00     0.001 A 
ENDBRANCH  11  12
ENDBRANCH  10  11
ENDBRANCH   7  10
ENDBRANCH   5   6
BRANCH   1  22
HETATM   22  C   UNL     1      39.933 -13.585   2.863  1.00  0.00     0.732 A 
HETATM   23  N   UNL     1      41.165 -14.114   2.622  1.00  0.00    -0.152 N 
HETATM   24  C   UNL     1      41.476 -14.685   1.430  1.00  0.00     0.268 A 
HETATM   25  H   UNL     1      41.850 -14.167   3.371  1.00  0.00     0.188 HD
HETATM   26  C   UNL     1      40.426 -14.573   0.378  1.00  0.00     0.035 A 
HETATM   27  O   UNL     1      42.546 -15.249   1.244  1.00  0.00    -0.267 OA
HETATM   28  C   UNL     1      39.255 -13.997   0.728  1.00  0.00     0.061 A 
HETATM   29  N   UNL     1      38.979 -13.517   1.995  1.00  0.00    -0.067 NA
HETATM   30  C   UNL     1      38.107 -13.820  -0.235  1.00  0.00     0.072 C 
BRANCH  26  31
HETATM   31  C   UNL     1      40.814 -15.082  -0.987  1.00  0.00     0.042 C 
HETATM   32  C   UNL     1      41.357 -13.977  -1.879  1.00  0.00     0.010 C 
ENDBRANCH  26  31
ENDBRANCH   1  22
BRANCH   3  33
HETATM   33  C   UNL     1      39.919 -10.328   6.429  1.00  0.00     0.105 A 
HETATM   34  O   UNL     1      38.814  -9.683   6.915  1.00  0.00    -0.320 OA
HETATM   35  C   UNL     1      39.236  -8.509   7.450  1.00  0.00     0.142 A 
HETATM   36  C   UNL     1      40.600  -8.390   7.337  1.00  0.00     0.027 A 
HETATM   37  C   UNL     1      41.042  -9.562   6.676  1.00  0.00     0.041 A 
ENDBRANCH   3  33
TORSDOF 7
ENDMDL
MODEL 5
REMARK VINA RESULT:      -8.9      3.375      6.715
REMARK  7 active torsions:
REMARK  status: ('A' for Active; 'I' for Inactive)
REMARK    1  A    between atoms: C_2  and  C_3 
REMARK    2  A    between atoms: C_7  and  N_8 
REMARK    3  A    between atoms: C_10  and  C_11 
REMARK    4  A    between atoms: C_17  and  N_18 
REMARK       I    between atoms: N_18  and  C_19 
REMARK    5  A    between atoms: C_19  and  C_20 
REMARK    6  A    between atoms: C_20  and  O_21 
REMARK    7  A    between atoms: O_21  and  C_22 
ROOT
HETATM    1  N   UNL     1      39.903 -12.075   4.783  1.00  0.00    -0.044 N 
HETATM    2  N   UNL     1      39.138 -11.634   5.827  1.00  0.00    -0.148 NA
HETATM    3  C   UNL     1      40.025 -11.269   6.758  1.00  0.00     0.115 A 
HETATM    4  C   UNL     1      41.354 -11.450   6.329  1.00  0.00     0.087 A 
HETATM    5  C   UNL     1      41.260 -12.025   5.083  1.00  0.00     0.152 A 
ENDROOT
BRANCH   5   6
HETATM    6  N   UNL     1      42.377 -12.310   4.313  1.00  0.00    -0.309 N 
HETATM    7  C   UNL     1      42.867 -13.616   3.974  1.00  0.00     0.247 C 
HETATM    8  O   UNL     1      43.621 -13.649   3.010  1.00  0.00    -0.271 OA
HETATM    9  H   UNL     1      42.951 -11.547   3.976  1.00  0.00     0.170 HD
BRANCH   7  10
HETATM   10  C   UNL     1      42.617 -14.794   4.896  1.00  0.00     0.278 C 
BRANCH  10  11
HETATM   11  O   UNL     1      41.639 -15.618   4.266  1.00  0.00    -0.342 OA
BRANCH  11  12
HETATM   12  C   UNL     1      42.100 -16.731   3.616  1.00  0.00     0.070 A 
HETATM   13  C   UNL     1      42.921 -17.561   4.385  1.00  0.00     0.049 A 
HETATM   14  C   UNL     1      43.469 -18.741   3.850  1.00  0.00    -0.023 A 
HETATM   15  C   UNL     1      43.177 -19.091   2.514  1.00  0.00    -0.026 A 
HETATM   16  C   UNL     1      44.301 -19.578   4.613  1.00  0.00     0.012 A 
HETATM   17  C   UNL     1      42.348 -18.254   1.754  1.00  0.00     0.015 A 
HETATM   18  C   UNL     1      43.723 -20.268   1.976  1.00  0.00     0.012 A 
HETATM   19  C   UNL     1      41.810 -17.083   2.299  1.00  0.00     0.037 A 
HETATM   20  C   UNL     1      44.547 -21.089   2.746  1.00  0.00     0.001 A 
HETATM   21  C   UNL     1      44.836 -20.744   4.063  1.00  0.00     0.001 A 
ENDBRANCH  11  12
ENDBRANCH  10  11
ENDBRANCH   7  10
ENDBRANCH   5   6
BRANCH   1  22
HETATM   22  C   UNL     1      39.263 -12.407   3.574  1.00  0.00     0.732 A 
HETATM   23  N   UNL     1      39.465 -13.713   3.238  1.00  0.00    -0.152 N 
HETATM   24  C   UNL     1      38.886 -14.265   2.142  1.00  0.00     0.268 A 
HETATM   25  H   UNL     1      39.991 -14.321   3.860  1.00  0.00     0.188 HD
HETATM   26  C   UNL     1      38.129 -13.317   1.276  1.00  0.00     0.035 A 
HETATM   27  O   UNL     1      38.984 -15.459   1.893  1.00  0.00    -0.267 OA
HETATM   28  C   UNL     1      38.024 -12.038   1.698  1.00  0.00     0.061 A 
HETATM   29  N   UNL     1      38.570 -11.567   2.879  1.00  0.00    -0.067 NA
HETATM   30  C   UNL     1      37.287 -10.974   0.922  1.00  0.00     0.072 C 
BRANCH  26  31
HETATM   31  C   UNL     1      37.598 -13.893  -0.012  1.00  0.00     0.042 C 
HETATM   32  C   UNL     1      38.596 -13.765  -1.153  1.00  0.00     0.010 C 
ENDBRANCH  26  31
ENDBRANCH   1  22
BRANCH   3  33
HETATM   33  C   UNL     1      39.624 -10.734   8.091  1.00  0.00     0.105 A 
HETATM   34  O   UNL     1      38.514  -9.964   8.307  1.00  0.00    -0.320 OA
HETATM   35  C   UNL     1      38.494  -9.649   9.627  1.00  0.00     0.142 A 
HETATM   36  C   UNL     1      39.563 -10.219  10.275  1.00  0.00     0.027 A 
HETATM   37  C   UNL     1      40.295 -10.918   9.284  1.00  0.00     0.041 A 
ENDBRANCH   3  33
TORSDOF 7
ENDMDL
MODEL 6
REMARK VINA RESULT:      -8.7      3.217      6.131
REMARK  7 active torsions:
REMARK  status: ('A' for Active; 'I' for Inactive)
REMARK    1  A    between atoms: C_2  and  C_3 
REMARK    2  A    between atoms: C_7  and  N_8 
REMARK    3  A    between atoms: C_10  and  C_11 
REMARK    4  A    between atoms: C_17  and  N_18 
REMARK       I    between atoms: N_18  and  C_19 
REMARK    5  A    between atoms: C_19  and  C_20 
REMARK    6  A    between atoms: C_20  and  O_21 
REMARK    7  A    between atoms: O_21  and  C_22 
ROOT
HETATM    1  N   UNL     1      41.368 -14.318   5.631  1.00  0.00    -0.044 N 
HETATM    2  N   UNL     1      42.250 -14.933   6.475  1.00  0.00    -0.148 NA
HETATM    3  C   UNL     1      42.097 -16.237   6.223  1.00  0.00     0.115 A 
HETATM    4  C   UNL     1      41.142 -16.477   5.216  1.00  0.00     0.087 A 
HETATM    5  C   UNL     1      40.638 -15.240   4.888  1.00  0.00     0.152 A 
ENDROOT
BRANCH   5   6
HETATM    6  N   UNL     1      39.697 -15.066   3.886  1.00  0.00    -0.309 N 
HETATM    7  C   UNL     1      39.905 -15.256   2.479  1.00  0.00     0.247 C 
HETATM    8  O   UNL     1      38.883 -15.408   1.822  1.00  0.00    -0.271 OA
HETATM    9  H   UNL     1      38.772 -14.731   4.131  1.00  0.00     0.170 HD
BRANCH   7  10
HETATM   10  C   UNL     1      41.281 -15.059   1.872  1.00  0.00     0.278 C 
BRANCH  10  11
HETATM   11  O   UNL     1      41.616 -16.266   1.191  1.00  0.00    -0.342 OA
BRANCH  11  12
HETATM   12  C   UNL     1      42.449 -17.131   1.848  1.00  0.00     0.070 A 
HETATM   13  C   UNL     1      42.344 -18.466   1.446  1.00  0.00     0.049 A 
HETATM   14  C   UNL     1      43.137 -19.468   2.033  1.00  0.00    -0.023 A 
HETATM   15  C   UNL     1      44.058 -19.113   3.042  1.00  0.00    -0.026 A 
HETATM   16  C   UNL     1      43.034 -20.813   1.640  1.00  0.00     0.012 A 
HETATM   17  C   UNL     1      44.159 -17.771   3.434  1.00  0.00     0.015 A 
HETATM   18  C   UNL     1      44.852 -20.111   3.632  1.00  0.00     0.012 A 
HETATM   19  C   UNL     1      43.363 -16.785   2.841  1.00  0.00     0.037 A 
HETATM   20  C   UNL     1      44.738 -21.442   3.230  1.00  0.00     0.001 A 
HETATM   21  C   UNL     1      43.829 -21.793   2.235  1.00  0.00     0.001 A 
ENDBRANCH  11  12
ENDBRANCH  10  11
ENDBRANCH   7  10
ENDBRANCH   5   6
BRANCH   1  22
HETATM   22  C   UNL     1      41.382 -12.913   5.552  1.00  0.00     0.732 A 
HETATM   23  N   UNL     1      41.796 -12.346   6.720  1.00  0.00    -0.152 N 
HETATM   24  C   UNL     1      41.946 -11.003   6.847  1.00  0.00     0.268 A 
HETATM   25  H   UNL     1      42.084 -12.935   7.496  1.00  0.00     0.188 HD
HETATM   26  C   UNL     1      41.506 -10.199   5.672  1.00  0.00     0.035 A 
HETATM   27  O   UNL     1      42.412 -10.499   7.861  1.00  0.00    -0.267 OA
HETATM   28  C   UNL     1      41.083 -10.874   4.581  1.00  0.00     0.061 A 
HETATM   29  N   UNL     1      41.042 -12.253   4.494  1.00  0.00    -0.067 NA
HETATM   30  C   UNL     1      40.611 -10.188   3.323  1.00  0.00     0.072 C 
BRANCH  26  31
HETATM   31  C   UNL     1      41.542  -8.703   5.856  1.00  0.00     0.042 C 
HETATM   32  C   UNL     1      40.273  -8.174   6.508  1.00  0.00     0.010 C 
ENDBRANCH  26  31
ENDBRANCH   1  22
BRANCH   3  33
HETATM   33  C   UNL     1      42.864 -17.294   6.941  1.00  0.00     0.105 A 
HETATM   34  O   UNL     1      43.008 -18.578   6.493  1.00  0.00    -0.320 OA
HETATM   35  C   UNL     1      43.742 -19.248   7.417  1.00  0.00     0.142 A 
HETATM   36  C   UNL     1      44.093 -18.413   8.450  1.00  0.00     0.027 A 
HETATM   37  C   UNL     1      43.526 -17.153   8.146  1.00  0.00     0.041 A 
ENDBRANCH   3  33
TORSDOF 7
ENDMDL
MODEL 7
REMARK VINA RESULT:      -8.6      2.114      6.768
REMARK  7 active torsions:
REMARK  status: ('A' for Active; 'I' for Inactive)
REMARK    1  A    between atoms: C_2  and  C_3 
REMARK    2  A    between atoms: C_7  and  N_8 
REMARK    3  A    between atoms: C_10  and  C_11 
REMARK    4  A    between atoms: C_17  and  N_18 
REMARK       I    between atoms: N_18  and  C_19 
REMARK    5  A    between atoms: C_19  and  C_20 
REMARK    6  A    between atoms: C_20  and  O_21 
REMARK    7  A    between atoms: O_21  and  C_22 
ROOT
HETATM    1  N   UNL     1      41.501 -13.549   0.746  1.00  0.00    -0.044 N 
HETATM    2  N   UNL     1      41.911 -12.459   0.030  1.00  0.00    -0.148 NA
HETATM    3  C   UNL     1      41.784 -12.832  -1.247  1.00  0.00     0.115 A 
HETATM    4  C   UNL     1      41.283 -14.142  -1.372  1.00  0.00     0.087 A 
HETATM    5  C   UNL     1      41.163 -14.612  -0.086  1.00  0.00     0.152 A 
ENDROOT
BRANCH   5   6
HETATM    6  N   UNL     1      40.648 -15.867   0.199  1.00  0.00    -0.309 N 
HETATM    7  C   UNL     1      41.344 -16.950   0.833  1.00  0.00     0.247 C 
HETATM    8  O   UNL     1      40.624 -17.815   1.314  1.00  0.00    -0.271 OA
HETATM    9  H   UNL     1      39.704 -16.090  -0.093  1.00  0.00     0.170 HD
BRANCH   7  10
HETATM   10  C   UNL     1      42.850 -17.079   0.699  1.00  0.00     0.278 C 
BRANCH  10  11
HETATM   11  O   UNL     1      43.415 -16.706   1.954  1.00  0.00    -0.342 OA
BRANCH  11  12
HETATM   12  C   UNL     1      43.726 -17.724   2.814  1.00  0.00     0.070 A 
HETATM   13  C   UNL     1      43.905 -18.970   2.208  1.00  0.00     0.049 A 
HETATM   14  C   UNL     1      44.227 -20.110   2.966  1.00  0.00    -0.023 A 
HETATM   15  C   UNL     1      44.377 -19.986   4.364  1.00  0.00    -0.026 A 
HETATM   16  C   UNL     1      44.403 -21.368   2.366  1.00  0.00     0.012 A 
HETATM   17  C   UNL     1      44.201 -18.730   4.962  1.00  0.00     0.015 A 
HETATM   18  C   UNL     1      44.699 -21.122   5.126  1.00  0.00     0.012 A 
HETATM   19  C   UNL     1      43.879 -17.605   4.195  1.00  0.00     0.037 A 
HETATM   20  C   UNL     1      44.870 -22.364   4.515  1.00  0.00     0.001 A 
HETATM   21  C   UNL     1      44.722 -22.487   3.136  1.00  0.00     0.001 A 
ENDBRANCH  11  12
ENDBRANCH  10  11
ENDBRANCH   7  10
ENDBRANCH   5   6
BRANCH   1  22
HETATM   22  C   UNL     1      41.383 -13.431   2.143  1.00  0.00     0.732 A 
HETATM   23  N   UNL     1      41.489 -12.134   2.550  1.00  0.00    -0.152 N 
HETATM   24  C   UNL     1      41.341 -11.781   3.852  1.00  0.00     0.268 A 
HETATM   25  H   UNL     1      41.596 -11.394   1.863  1.00  0.00     0.188 HD
HETATM   26  C   UNL     1      41.187 -12.916   4.806  1.00  0.00     0.035 A 
HETATM   27  O   UNL     1      41.337 -10.610   4.207  1.00  0.00    -0.267 OA
HETATM   28  C   UNL     1      41.128 -14.161   4.286  1.00  0.00     0.061 A 
HETATM   29  N   UNL     1      41.196 -14.436   2.932  1.00  0.00    -0.067 NA
HETATM   30  C   UNL     1      40.972 -15.400   5.134  1.00  0.00     0.072 C 
BRANCH  26  31
HETATM   31  C   UNL     1      41.159 -12.541   6.266  1.00  0.00     0.042 C 
HETATM   32  C   UNL     1      39.773 -12.112   6.723  1.00  0.00     0.010 C 
ENDBRANCH  26  31
ENDBRANCH   1  22
BRANCH   3  33
HETATM   33  C   UNL     1      42.141 -11.942  -2.388  1.00  0.00     0.105 A 
HETATM   34  O   UNL     1      42.606 -10.663  -2.249  1.00  0.00    -0.320 OA
HETATM   35  C   UNL     1      42.793 -10.164  -3.497  1.00  0.00     0.142 A 
HETATM   36  C   UNL     1      42.476 -11.106  -4.445  1.00  0.00     0.027 A 
HETATM   37  C   UNL     1      42.052 -12.253  -3.731  1.00  0.00     0.041 A 
ENDBRANCH   3  33
TORSDOF 7
ENDMDL
MODEL 8
REMARK VINA RESULT:      -8.5      3.047      7.115
REMARK  7 active torsions:
REMARK  status: ('A' for Active; 'I' for Inactive)
REMARK    1  A    between atoms: C_2  and  C_3 
REMARK    2  A    between atoms: C_7  and  N_8 
REMARK    3  A    between atoms: C_10  and  C_11 
REMARK    4  A    between atoms: C_17  and  N_18 
REMARK       I    between atoms: N_18  and  C_19 
REMARK    5  A    between atoms: C_19  and  C_20 
REMARK    6  A    between atoms: C_20  and  O_21 
REMARK    7  A    between atoms: O_21  and  C_22 
ROOT
HETATM    1  N   UNL     1      40.157 -13.486   3.805  1.00  0.00    -0.044 N 
HETATM    2  N   UNL     1      39.892 -13.008   2.551  1.00  0.00    -0.148 NA
HETATM    3  C   UNL     1      39.777 -14.104   1.795  1.00  0.00     0.115 A 
HETATM    4  C   UNL     1      39.948 -15.287   2.540  1.00  0.00     0.087 A 
HETATM    5  C   UNL     1      40.252 -14.874   3.816  1.00  0.00     0.152 A 
ENDROOT
BRANCH   5   6
HETATM    6  N   UNL     1      40.443 -15.767   4.858  1.00  0.00    -0.309 N 
HETATM    7  C   UNL     1      41.613 -15.881   5.680  1.00  0.00     0.247 C 
HETATM    8  O   UNL     1      41.441 -16.458   6.745  1.00  0.00    -0.271 OA
HETATM    9  H   UNL     1      39.722 -16.451   5.059  1.00  0.00     0.170 HD
BRANCH   7  10
HETATM   10  C   UNL     1      42.976 -15.496   5.134  1.00  0.00     0.278 C 
BRANCH  10  11
HETATM   11  O   UNL     1      43.160 -16.220   3.920  1.00  0.00    -0.342 OA
BRANCH  11  12
HETATM   12  C   UNL     1      43.605 -17.509   4.035  1.00  0.00     0.070 A 
HETATM   13  C   UNL     1      43.362 -18.315   2.919  1.00  0.00     0.049 A 
HETATM   14  C   UNL     1      43.761 -19.663   2.894  1.00  0.00    -0.023 A 
HETATM   15  C   UNL     1      44.424 -20.206   4.016  1.00  0.00    -0.026 A 
HETATM   16  C   UNL     1      43.515 -20.483   1.779  1.00  0.00     0.012 A 
HETATM   17  C   UNL     1      44.667 -19.387   5.128  1.00  0.00     0.015 A 
HETATM   18  C   UNL     1      44.824 -21.552   3.995  1.00  0.00     0.012 A 
HETATM   19  C   UNL     1      44.263 -18.048   5.139  1.00  0.00     0.037 A 
HETATM   20  C   UNL     1      44.574 -22.353   2.880  1.00  0.00     0.001 A 
HETATM   21  C   UNL     1      43.919 -21.819   1.774  1.00  0.00     0.001 A 
ENDBRANCH  11  12
ENDBRANCH  10  11
ENDBRANCH   7  10
ENDBRANCH   5   6
BRANCH   1  22
HETATM   22  C   UNL     1      40.197 -12.575   4.877  1.00  0.00     0.732 A 
HETATM   23  N   UNL     1      40.912 -11.457   4.563  1.00  0.00    -0.152 N 
HETATM   24  C   UNL     1      41.027 -10.418   5.428  1.00  0.00     0.268 A 
HETATM   25  H   UNL     1      41.302 -11.350   3.631  1.00  0.00     0.188 HD
HETATM   26  C   UNL     1      40.432 -10.642   6.775  1.00  0.00     0.035 A 
HETATM   27  O   UNL     1      41.583  -9.374   5.112  1.00  0.00    -0.267 OA
HETATM   28  C   UNL     1      39.775 -11.806   6.979  1.00  0.00     0.061 A 
HETATM   29  N   UNL     1      39.622 -12.785   6.014  1.00  0.00    -0.067 NA
HETATM   30  C   UNL     1      39.124 -12.163   8.292  1.00  0.00     0.072 C 
BRANCH  26  31
HETATM   31  C   UNL     1      40.673  -9.549   7.785  1.00  0.00     0.042 C 
HETATM   32  C   UNL     1      41.906  -9.816   8.636  1.00  0.00     0.010 C 
ENDBRANCH  26  31
ENDBRANCH   1  22
BRANCH   3  33
HETATM   33  C   UNL     1      39.501 -14.050   0.331  1.00  0.00     0.105 A 
HETATM   34  O   UNL     1      40.336 -14.553  -0.628  1.00  0.00    -0.320 OA
HETATM   35  C   UNL     1      39.767 -14.297  -1.833  1.00  0.00     0.142 A 
HETATM   36  C   UNL     1      38.564 -13.653  -1.671  1.00  0.00     0.027 A 
HETATM   37  C   UNL     1      38.392 -13.490  -0.275  1.00  0.00     0.041 A 
ENDBRANCH   3  33
TORSDOF 7
ENDMDL
MODEL 9
REMARK VINA RESULT:      -8.5      1.841      4.686
REMARK  7 active torsions:
REMARK  status: ('A' for Active; 'I' for Inactive)
REMARK    1  A    between atoms: C_2  and  C_3 
REMARK    2  A    between atoms: C_7  and  N_8 
REMARK    3  A    between atoms: C_10  and  C_11 
REMARK    4  A    between atoms: C_17  and  N_18 
REMARK       I    between atoms: N_18  and  C_19 
REMARK    5  A    between atoms: C_19  and  C_20 
REMARK    6  A    between atoms: C_20  and  O_21 
REMARK    7  A    between atoms: O_21  and  C_22 
ROOT
HETATM    1  N   UNL     1      42.911 -16.309   1.781  1.00  0.00    -0.044 N 
HETATM    2  N   UNL     1      43.007 -17.594   1.324  1.00  0.00    -0.148 NA
HETATM    3  C   UNL     1      43.426 -18.293   2.383  1.00  0.00     0.115 A 
HETATM    4  C   UNL     1      43.587 -17.485   3.525  1.00  0.00     0.087 A 
HETATM    5  C   UNL     1      43.312 -16.204   3.109  1.00  0.00     0.152 A 
ENDROOT
BRANCH   5   6
HETATM    6  N   UNL     1      43.320 -15.124   3.978  1.00  0.00    -0.309 N 
HETATM    7  C   UNL     1      42.317 -14.809   4.955  1.00  0.00     0.247 C 
HETATM    8  O   UNL     1      42.683 -14.052   5.843  1.00  0.00    -0.271 OA
HETATM    9  H   UNL     1      44.071 -14.447   3.916  1.00  0.00     0.170 HD
BRANCH   7  10
HETATM   10  C   UNL     1      40.876 -15.230   4.739  1.00  0.00     0.278 C 
BRANCH  10  11
HETATM   11  O   UNL     1      40.115 -14.039   4.552  1.00  0.00    -0.342 OA
BRANCH  11  12
HETATM   12  C   UNL     1      39.462 -13.907   3.357  1.00  0.00     0.070 A 
HETATM   13  C   UNL     1      39.126 -12.595   3.013  1.00  0.00     0.049 A 
HETATM   14  C   UNL     1      38.452 -12.305   1.813  1.00  0.00    -0.023 A 
HETATM   15  C   UNL     1      38.115 -13.363   0.941  1.00  0.00    -0.026 A 
HETATM   16  C   UNL     1      38.104 -10.990   1.463  1.00  0.00     0.012 A 
HETATM   17  C   UNL     1      38.462 -14.676   1.293  1.00  0.00     0.015 A 
HETATM   18  C   UNL     1      37.442 -13.079  -0.258  1.00  0.00     0.012 A 
HETATM   19  C   UNL     1      39.132 -14.948   2.490  1.00  0.00     0.037 A 
HETATM   20  C   UNL     1      37.104 -11.768  -0.593  1.00  0.00     0.001 A 
HETATM   21  C   UNL     1      37.434 -10.724   0.267  1.00  0.00     0.001 A 
ENDBRANCH  11  12
ENDBRANCH  10  11
ENDBRANCH   7  10
ENDBRANCH   5   6
BRANCH   1  22
HETATM   22  C   UNL     1      42.355 -15.333   0.932  1.00  0.00     0.732 A 
HETATM   23  N   UNL     1      41.846 -15.886  -0.206  1.00  0.00    -0.152 N 
HETATM   24  C   UNL     1      41.204 -15.135  -1.137  1.00  0.00     0.268 A 
HETATM   25  H   UNL     1      41.864 -16.893  -0.332  1.00  0.00     0.188 HD
HETATM   26  C   UNL     1      41.214 -13.666  -0.888  1.00  0.00     0.035 A 
HETATM   27  O   UNL     1      40.659 -15.641  -2.109  1.00  0.00    -0.267 OA
HETATM   28  C   UNL     1      41.779 -13.234   0.261  1.00  0.00     0.061 A 
HETATM   29  N   UNL     1      42.336 -14.072   1.209  1.00  0.00    -0.067 NA
HETATM   30  C   UNL     1      41.857 -11.776   0.640  1.00  0.00     0.072 C 
BRANCH  26  31
HETATM   31  C   UNL     1      40.624 -12.815  -1.984  1.00  0.00     0.042 C 
HETATM   32  C   UNL     1      41.656 -12.437  -3.036  1.00  0.00     0.010 C 
ENDBRANCH  26  31
ENDBRANCH   1  22
BRANCH   3  33
HETATM   33  C   UNL     1      43.684 -19.760   2.332  1.00  0.00     0.105 A 
HETATM   34  O   UNL     1      42.850 -20.667   1.739  1.00  0.00    -0.320 OA
HETATM   35  C   UNL     1      43.399 -21.896   1.915  1.00  0.00     0.142 A 
HETATM   36  C   UNL     1      44.588 -21.798   2.597  1.00  0.00     0.027 A 
HETATM   37  C   UNL     1      44.772 -20.421   2.869  1.00  0.00     0.041 A 
ENDBRANCH   3  33
TORSDOF 7
ENDMDL
MODEL 10
REMARK VINA RESULT:      -8.5      2.306      4.960
REMARK  7 active torsions:
REMARK  status: ('A' for Active; 'I' for Inactive)
REMARK    1  A    between atoms: C_2  and  C_3 
REMARK    2  A    between atoms: C_7  and  N_8 
REMARK    3  A    between atoms: C_10  and  C_11 
REMARK    4  A    between atoms: C_17  and  N_18 
REMARK       I    between atoms: N_18  and  C_19 
REMARK    5  A    between atoms: C_19  and  C_20 
REMARK    6  A    between atoms: C_20  and  O_21 
REMARK    7  A    between atoms: O_21  and  C_22 
ROOT
HETATM    1  N   UNL     1      40.494 -13.691   1.413  1.00  0.00    -0.044 N 
HETATM    2  N   UNL     1      40.546 -12.727   2.380  1.00  0.00    -0.148 NA
HETATM    3  C   UNL     1      40.270 -13.378   3.515  1.00  0.00     0.115 A 
HETATM    4  C   UNL     1      40.057 -14.754   3.301  1.00  0.00     0.087 A 
HETATM    5  C   UNL     1      40.144 -14.930   1.940  1.00  0.00     0.152 A 
ENDROOT
BRANCH   5   6
HETATM    6  N   UNL     1      40.036 -16.178   1.347  1.00  0.00    -0.309 N 
HETATM    7  C   UNL     1      41.101 -17.116   1.134  1.00  0.00     0.247 C 
HETATM    8  O   UNL     1      40.741 -18.269   0.941  1.00  0.00    -0.271 OA
HETATM    9  H   UNL     1      39.140 -16.471   0.976  1.00  0.00     0.170 HD
BRANCH   7  10
HETATM   10  C   UNL     1      42.527 -16.631   0.956  1.00  0.00     0.278 C 
BRANCH  10  11
HETATM   11  O   UNL     1      43.136 -16.635   2.246  1.00  0.00    -0.342 OA
BRANCH  11  12
HETATM   12  C   UNL     1      43.574 -17.844   2.714  1.00  0.00     0.070 A 
HETATM   13  C   UNL     1      43.367 -18.053   4.081  1.00  0.00     0.049 A 
HETATM   14  C   UNL     1      43.767 -19.249   4.704  1.00  0.00    -0.023 A 
HETATM   15  C   UNL     1      44.382 -20.256   3.929  1.00  0.00    -0.026 A 
HETATM   16  C   UNL     1      43.570 -19.466   6.078  1.00  0.00     0.012 A 
HETATM   17  C   UNL     1      44.579 -20.038   2.558  1.00  0.00     0.015 A 
HETATM   18  C   UNL     1      44.783 -21.452   4.546  1.00  0.00     0.012 A 
HETATM   19  C   UNL     1      44.177 -18.843   1.952  1.00  0.00     0.037 A 
HETATM   20  C   UNL     1      44.580 -21.652   5.912  1.00  0.00     0.001 A 
HETATM   21  C   UNL     1      43.974 -20.659   6.677  1.00  0.00     0.001 A 
ENDBRANCH  11  12
ENDBRANCH  10  11
ENDBRANCH   7  10
ENDBRANCH   5   6
BRANCH   1  22
HETATM   22  C   UNL     1      40.879 -13.350   0.103  1.00  0.00     0.732 A 
HETATM   23  N   UNL     1      41.893 -12.440   0.096  1.00  0.00    -0.152 N 
HETATM   24  C   UNL     1      42.464 -12.017  -1.061  1.00  0.00     0.268 A 
HETATM   25  H   UNL     1      42.299 -12.126   0.972  1.00  0.00     0.188 HD
HETATM   26  C   UNL     1      41.821 -12.517  -2.309  1.00  0.00     0.035 A 
HETATM   27  O   UNL     1      43.439 -11.278  -1.066  1.00  0.00    -0.267 OA
HETATM   28  C   UNL     1      40.799 -13.392  -2.173  1.00  0.00     0.061 A 
HETATM   29  N   UNL     1      40.329 -13.847  -0.955  1.00  0.00    -0.067 NA
HETATM   30  C   UNL     1      40.059 -13.978  -3.350  1.00  0.00     0.072 C 
BRANCH  26  31
HETATM   31  C   UNL     1      42.360 -11.946  -3.595  1.00  0.00     0.042 C 
HETATM   32  C   UNL     1      41.602 -10.704  -4.035  1.00  0.00     0.010 C 
ENDBRANCH  26  31
ENDBRANCH   1  22
BRANCH   3  33
HETATM   33  C   UNL     1      40.203 -12.699   4.841  1.00  0.00     0.105 A 
HETATM   34  O   UNL     1      41.273 -12.117   5.461  1.00  0.00    -0.320 OA
HETATM   35  C   UNL     1      40.834 -11.630   6.650  1.00  0.00     0.142 A 
HETATM   36  C   UNL     1      39.490 -11.871   6.802  1.00  0.00     0.027 A 
HETATM   37  C   UNL     1      39.081 -12.563   5.636  1.00  0.00     0.041 A 
ENDBRANCH   3  33
TORSDOF 7
ENDMDL
