MODEL 1
REMARK VINA RESULT:      -8.8      0.000      0.000
REMARK  2 active torsions:
REMARK  status: ('A' for Active; 'I' for Inactive)
REMARK       I    between atoms: C_2  and  N_3 
REMARK    1  A    between atoms: N_3  and  C_4 
REMARK    2  A    between atoms: C_13  and  N_14 
REMARK       I    between atoms: N_14  and  C_15 
ROOT
HETATM    1  C   UNL     1      43.982 -15.755   6.533  1.00  0.00     0.035 A 
HETATM    2  C   UNL     1      44.637 -16.979   6.654  1.00  0.00     0.038 A 
HETATM    3  C   UNL     1      44.460 -17.931   5.656  1.00  0.00    -0.041 A 
HETATM    4  C   UNL     1      43.630 -17.716   4.534  1.00  0.00    -0.016 A 
HETATM    5  C   UNL     1      43.651 -18.915   3.693  1.00  0.00     0.008 A 
HETATM    6  C   UNL     1      44.570 -19.827   4.278  1.00  0.00    -0.041 A 
HETATM    7  C   UNL     1      44.874 -21.049   3.703  1.00  0.00     0.008 A 
HETATM    8  C   UNL     1      44.233 -21.383   2.517  1.00  0.00     0.003 A 
HETATM    9  C   UNL     1      43.292 -20.511   1.938  1.00  0.00     0.030 A 
HETATM   10  C   UNL     1      42.982 -19.268   2.513  1.00  0.00     0.046 A 
HETATM   11  C   UNL     1      45.122 -19.285   5.578  1.00  0.00     0.079 A 
HETATM   12  C   UNL     1      43.017 -16.481   4.392  1.00  0.00     0.015 A 
HETATM   13  C   UNL     1      43.189 -15.512   5.394  1.00  0.00     0.030 A 
ENDROOT
BRANCH   1  14
HETATM   14  N   UNL     1      44.071 -14.718   7.484  1.00  0.00    -0.328 N 
HETATM   15  C   UNL     1      44.949 -13.648   7.484  1.00  0.00     0.218 C 
HETATM   16  C   UNL     1      44.768 -12.749   8.681  1.00  0.00     0.117 C 
HETATM   17  O   UNL     1      45.823 -13.413   6.655  1.00  0.00    -0.274 OA
HETATM   18  H   UNL     1      43.431 -14.781   8.266  1.00  0.00     0.169 HD
ENDBRANCH   1  14
BRANCH  10  19
HETATM   19  N   UNL     1      41.962 -18.437   2.018  1.00  0.00    -0.327 N 
HETATM   20  C   UNL     1      41.948 -17.362   1.182  1.00  0.00     0.218 C 
HETATM   21  C   UNL     1      43.213 -16.658   0.787  1.00  0.00     0.117 C 
HETATM   22  O   UNL     1      40.855 -16.943   0.790  1.00  0.00    -0.274 OA
HETATM   23  H   UNL     1      41.021 -18.708   2.267  1.00  0.00     0.169 HD
ENDBRANCH  10  19
TORSDOF 2
ENDMDL
MODEL 2
REMARK VINA RESULT:      -8.3      2.248      5.681
REMARK  2 active torsions:
REMARK  status: ('A' for Active; 'I' for Inactive)
REMARK       I    between atoms: C_2  and  N_3 
REMARK    1  A    between atoms: N_3  and  C_4 
REMARK    2  A    between atoms: C_13  and  N_14 
REMARK       I    between atoms: N_14  and  C_15 
ROOT
HETATM    1  C   UNL     1      40.941 -16.121   1.332  1.00  0.00     0.035 A 
HETATM    2  C   UNL     1      41.484 -17.355   0.980  1.00  0.00     0.038 A 
HETATM    3  C   UNL     1      42.332 -17.991   1.880  1.00  0.00    -0.041 A 
HETATM    4  C   UNL     1      42.680 -17.430   3.128  1.00  0.00    -0.016 A 
HETATM    5  C   UNL     1      43.596 -18.342   3.818  1.00  0.00     0.008 A 
HETATM    6  C   UNL     1      43.734 -19.499   3.005  1.00  0.00    -0.041 A 
HETATM    7  C   UNL     1      44.492 -20.592   3.389  1.00  0.00     0.008 A 
HETATM    8  C   UNL     1      45.148 -20.526   4.611  1.00  0.00     0.003 A 
HETATM    9  C   UNL     1      45.056 -19.375   5.416  1.00  0.00     0.030 A 
HETATM   10  C   UNL     1      44.286 -18.265   5.035  1.00  0.00     0.046 A 
HETATM   11  C   UNL     1      42.971 -19.348   1.707  1.00  0.00     0.079 A 
HETATM   12  C   UNL     1      42.101 -16.226   3.497  1.00  0.00     0.015 A 
HETATM   13  C   UNL     1      41.243 -15.575   2.595  1.00  0.00     0.030 A 
ENDROOT
BRANCH   1  14
HETATM   14  N   UNL     1      40.081 -15.374   0.501  1.00  0.00    -0.328 N 
HETATM   15  C   UNL     1      40.438 -14.500  -0.511  1.00  0.00     0.218 C 
HETATM   16  C   UNL     1      39.244 -13.859  -1.172  1.00  0.00     0.117 C 
HETATM   17  O   UNL     1      41.576 -14.205  -0.862  1.00  0.00    -0.274 OA
HETATM   18  H   UNL     1      39.091 -15.478   0.684  1.00  0.00     0.169 HD
ENDBRANCH   1  14
BRANCH  10  19
HETATM   19  N   UNL     1      44.275 -17.063   5.765  1.00  0.00    -0.327 N 
HETATM   20  C   UNL     1      43.569 -16.624   6.844  1.00  0.00     0.218 C 
HETATM   21  C   UNL     1      42.367 -17.367   7.351  1.00  0.00     0.117 C 
HETATM   22  O   UNL     1      43.914 -15.564   7.373  1.00  0.00    -0.274 OA
HETATM   23  H   UNL     1      44.974 -16.385   5.495  1.00  0.00     0.169 HD
ENDBRANCH  10  19
TORSDOF 2
ENDMDL
MODEL 3
REMARK VINA RESULT:      -8.2      3.313      5.622
REMARK  2 active torsions:
REMARK  status: ('A' for Active; 'I' for Inactive)
REMARK       I    between atoms: C_2  and  N_3 
REMARK    1  A    between atoms: N_3  and  C_4 
REMARK    2  A    between atoms: C_13  and  N_14 
REMARK       I    between atoms: N_14  and  C_15 
ROOT
HETATM    1  C   UNL     1      40.734 -16.178   1.418  1.00  0.00     0.035 A 
HETATM    2  C   UNL     1      40.896 -15.968   2.786  1.00  0.00     0.038 A 
HETATM    3  C   UNL     1      41.783 -16.780   3.485  1.00  0.00    -0.041 A 
HETATM    4  C   UNL     1      42.513 -17.820   2.869  1.00  0.00    -0.016 A 
HETATM    5  C   UNL     1      43.334 -18.486   3.883  1.00  0.00     0.008 A 
HETATM    6  C   UNL     1      43.153 -17.783   5.104  1.00  0.00    -0.041 A 
HETATM    7  C   UNL     1      43.832 -18.118   6.263  1.00  0.00     0.008 A 
HETATM    8  C   UNL     1      44.706 -19.195   6.212  1.00  0.00     0.003 A 
HETATM    9  C   UNL     1      44.874 -19.930   5.023  1.00  0.00     0.030 A 
HETATM   10  C   UNL     1      44.192 -19.593   3.843  1.00  0.00     0.046 A 
HETATM   11  C   UNL     1      42.135 -16.675   4.949  1.00  0.00     0.079 A 
HETATM   12  C   UNL     1      42.387 -17.996   1.501  1.00  0.00     0.015 A 
HETATM   13  C   UNL     1      41.493 -17.182   0.785  1.00  0.00     0.030 A 
ENDROOT
BRANCH   1  14
HETATM   14  N   UNL     1      39.856 -15.431   0.606  1.00  0.00    -0.328 N 
HETATM   15  C   UNL     1      40.181 -14.401  -0.259  1.00  0.00     0.218 C 
HETATM   16  C   UNL     1      38.971 -13.817  -0.945  1.00  0.00     0.117 C 
HETATM   17  O   UNL     1      41.298 -13.940  -0.470  1.00  0.00    -0.274 OA
HETATM   18  H   UNL     1      38.875 -15.666   0.687  1.00  0.00     0.169 HD
ENDBRANCH   1  14
BRANCH  10  19
HETATM   19  N   UNL     1      44.254 -20.382   2.680  1.00  0.00    -0.327 N 
HETATM   20  C   UNL     1      44.311 -21.724   2.456  1.00  0.00     0.218 C 
HETATM   21  C   UNL     1      44.585 -22.695   3.568  1.00  0.00     0.117 C 
HETATM   22  O   UNL     1      44.179 -22.127   1.297  1.00  0.00    -0.274 OA
HETATM   23  H   UNL     1      44.179 -19.877   1.808  1.00  0.00     0.169 HD
ENDBRANCH  10  19
TORSDOF 2
ENDMDL
MODEL 4
REMARK VINA RESULT:      -8.0      2.774      5.040
REMARK  2 active torsions:
REMARK  status: ('A' for Active; 'I' for Inactive)
REMARK       I    between atoms: C_2  and  N_3 
REMARK    1  A    between atoms: N_3  and  C_4 
REMARK    2  A    between atoms: C_13  and  N_14 
REMARK       I    between atoms: N_14  and  C_15 
ROOT
HETATM    1  C   UNL     1      41.308 -15.788   3.213  1.00  0.00     0.035 A 
HETATM    2  C   UNL     1      41.930 -16.579   2.249  1.00  0.00     0.038 A 
HETATM    3  C   UNL     1      42.609 -17.721   2.662  1.00  0.00    -0.041 A 
HETATM    4  C   UNL     1      42.709 -18.102   4.017  1.00  0.00    -0.016 A 
HETATM    5  C   UNL     1      43.499 -19.333   4.106  1.00  0.00     0.008 A 
HETATM    6  C   UNL     1      43.806 -19.735   2.779  1.00  0.00    -0.041 A 
HETATM    7  C   UNL     1      44.502 -20.898   2.496  1.00  0.00     0.008 A 
HETATM    8  C   UNL     1      44.919 -21.678   3.566  1.00  0.00     0.003 A 
HETATM    9  C   UNL     1      44.657 -21.281   4.891  1.00  0.00     0.030 A 
HETATM   10  C   UNL     1      43.949 -20.105   5.185  1.00  0.00     0.046 A 
HETATM   11  C   UNL     1      43.295 -18.729   1.771  1.00  0.00     0.079 A 
HETATM   12  C   UNL     1      42.049 -17.341   4.969  1.00  0.00     0.015 A 
HETATM   13  C   UNL     1      41.361 -16.185   4.563  1.00  0.00     0.030 A 
ENDROOT
BRANCH   1  14
HETATM   14  N   UNL     1      40.603 -14.602   2.921  1.00  0.00    -0.328 N 
HETATM   15  C   UNL     1      39.374 -14.485   2.296  1.00  0.00     0.218 C 
HETATM   16  C   UNL     1      38.942 -13.049   2.130  1.00  0.00     0.117 C 
HETATM   17  O   UNL     1      38.675 -15.399   1.868  1.00  0.00    -0.274 OA
HETATM   18  H   UNL     1      41.065 -13.740   3.183  1.00  0.00     0.169 HD
ENDBRANCH   1  14
BRANCH  10  19
HETATM   19  N   UNL     1      43.781 -19.629   6.498  1.00  0.00    -0.327 N 
HETATM   20  C   UNL     1      44.326 -18.599   7.202  1.00  0.00     0.218 C 
HETATM   21  C   UNL     1      45.522 -17.847   6.695  1.00  0.00     0.117 C 
HETATM   22  O   UNL     1      43.839 -18.323   8.302  1.00  0.00    -0.274 OA
HETATM   23  H   UNL     1      43.062 -20.091   7.038  1.00  0.00     0.169 HD
ENDBRANCH  10  19
TORSDOF 2
ENDMDL
MODEL 5
REMARK VINA RESULT:      -7.8      2.776      5.837
REMARK  2 active torsions:
REMARK  status: ('A' for Active; 'I' for Inactive)
REMARK       I    between atoms: C_2  and  N_3 
REMARK    1  A    between atoms: N_3  and  C_4 
REMARK    2  A    between atoms: C_13  and  N_14 
REMARK       I    between atoms: N_14  and  C_15 
ROOT
HETATM    1  C   UNL     1      41.016 -15.914   0.305  1.00  0.00     0.035 A 
HETATM    2  C   UNL     1      42.129 -16.747   0.216  1.00  0.00     0.038 A 
HETATM    3  C   UNL     1      42.565 -17.403   1.362  1.00  0.00    -0.041 A 
HETATM    4  C   UNL     1      41.937 -17.246   2.617  1.00  0.00    -0.016 A 
HETATM    5  C   UNL     1      42.650 -18.055   3.608  1.00  0.00     0.008 A 
HETATM    6  C   UNL     1      43.668 -18.768   2.919  1.00  0.00    -0.041 A 
HETATM    7  C   UNL     1      44.500 -19.675   3.553  1.00  0.00     0.008 A 
HETATM    8  C   UNL     1      44.326 -19.868   4.917  1.00  0.00     0.003 A 
HETATM    9  C   UNL     1      43.348 -19.146   5.627  1.00  0.00     0.030 A 
HETATM   10  C   UNL     1      42.498 -18.228   4.990  1.00  0.00     0.046 A 
HETATM   11  C   UNL     1      43.709 -18.383   1.457  1.00  0.00     0.079 A 
HETATM   12  C   UNL     1      40.802 -16.455   2.694  1.00  0.00     0.015 A 
HETATM   13  C   UNL     1      40.353 -15.787   1.542  1.00  0.00     0.030 A 
ENDROOT
BRANCH   1  14
HETATM   14  N   UNL     1      40.489 -15.186  -0.781  1.00  0.00    -0.328 N 
HETATM   15  C   UNL     1      41.020 -14.052  -1.371  1.00  0.00     0.218 C 
HETATM   16  C   UNL     1      40.164 -13.531  -2.499  1.00  0.00     0.117 C 
HETATM   17  O   UNL     1      42.046 -13.464  -1.046  1.00  0.00    -0.274 OA
HETATM   18  H   UNL     1      39.611 -15.525  -1.154  1.00  0.00     0.169 HD
ENDBRANCH   1  14
BRANCH  10  19
HETATM   19  N   UNL     1      41.598 -17.412   5.698  1.00  0.00    -0.327 N 
HETATM   20  C   UNL     1      41.636 -16.119   6.123  1.00  0.00     0.218 C 
HETATM   21  C   UNL     1      42.908 -15.323   6.103  1.00  0.00     0.117 C 
HETATM   22  O   UNL     1      40.599 -15.624   6.576  1.00  0.00    -0.274 OA
HETATM   23  H   UNL     1      40.695 -17.825   5.890  1.00  0.00     0.169 HD
ENDBRANCH  10  19
TORSDOF 2
ENDMDL
MODEL 6
REMARK VINA RESULT:      -7.8      2.024      3.600
REMARK  2 active torsions:
REMARK  status: ('A' for Active; 'I' for Inactive)
REMARK       I    between atoms: C_2  and  N_3 
REMARK    1  A    between atoms: N_3  and  C_4 
REMARK    2  A    between atoms: C_13  and  N_14 
REMARK       I    between atoms: N_14  and  C_15 
ROOT
HETATM    1  C   UNL     1      44.078 -14.213   7.005  1.00  0.00     0.035 A 
HETATM    2  C   UNL     1      43.802 -13.746   5.722  1.00  0.00     0.038 A 
HETATM    3  C   UNL     1      43.515 -14.671   4.724  1.00  0.00    -0.041 A 
HETATM    4  C   UNL     1      43.510 -16.064   4.952  1.00  0.00    -0.016 A 
HETATM    5  C   UNL     1      43.189 -16.749   3.697  1.00  0.00     0.008 A 
HETATM    6  C   UNL     1      42.920 -15.748   2.726  1.00  0.00    -0.041 A 
HETATM    7  C   UNL     1      42.528 -16.052   1.433  1.00  0.00     0.008 A 
HETATM    8  C   UNL     1      42.415 -17.392   1.091  1.00  0.00     0.003 A 
HETATM    9  C   UNL     1      42.712 -18.402   2.026  1.00  0.00     0.030 A 
HETATM   10  C   UNL     1      43.106 -18.101   3.339  1.00  0.00     0.046 A 
HETATM   11  C   UNL     1      43.138 -14.363   3.295  1.00  0.00     0.079 A 
HETATM   12  C   UNL     1      43.738 -16.524   6.239  1.00  0.00     0.015 A 
HETATM   13  C   UNL     1      44.029 -15.598   7.256  1.00  0.00     0.030 A 
ENDROOT
BRANCH   1  14
HETATM   14  N   UNL     1      44.396 -13.376   8.095  1.00  0.00    -0.328 N 
HETATM   15  C   UNL     1      45.571 -12.675   8.303  1.00  0.00     0.218 C 
HETATM   16  C   UNL     1      45.563 -11.901   9.598  1.00  0.00     0.117 C 
HETATM   17  O   UNL     1      46.560 -12.663   7.577  1.00  0.00    -0.274 OA
HETATM   18  H   UNL     1      43.688 -13.302   8.814  1.00  0.00     0.169 HD
ENDBRANCH   1  14
BRANCH  10  19
HETATM   19  N   UNL     1      43.521 -19.088   4.251  1.00  0.00    -0.327 N 
HETATM   20  C   UNL     1      44.412 -20.115   4.185  1.00  0.00     0.218 C 
HETATM   21  C   UNL     1      45.003 -20.558   2.878  1.00  0.00     0.117 C 
HETATM   22  O   UNL     1      44.690 -20.713   5.228  1.00  0.00    -0.274 OA
HETATM   23  H   UNL     1      43.141 -19.004   5.185  1.00  0.00     0.169 HD
ENDBRANCH  10  19
TORSDOF 2
ENDMDL
MODEL 7
REMARK VINA RESULT:      -7.6      2.421      6.619
REMARK  2 active torsions:
REMARK  status: ('A' for Active; 'I' for Inactive)
REMARK       I    between atoms: C_2  and  N_3 
REMARK    1  A    between atoms: N_3  and  C_4 
REMARK    2  A    between atoms: C_13  and  N_14 
REMARK       I    between atoms: N_14  and  C_15 
ROOT
HETATM    1  C   UNL     1      43.998 -18.995   5.533  1.00  0.00     0.035 A 
HETATM    2  C   UNL     1      43.191 -18.492   4.515  1.00  0.00     0.038 A 
HETATM    3  C   UNL     1      42.888 -17.134   4.515  1.00  0.00    -0.041 A 
HETATM    4  C   UNL     1      43.348 -16.249   5.513  1.00  0.00    -0.016 A 
HETATM    5  C   UNL     1      42.838 -14.906   5.228  1.00  0.00     0.008 A 
HETATM    6  C   UNL     1      42.129 -14.975   3.999  1.00  0.00    -0.041 A 
HETATM    7  C   UNL     1      41.559 -13.862   3.405  1.00  0.00     0.008 A 
HETATM    8  C   UNL     1      41.684 -12.645   4.060  1.00  0.00     0.003 A 
HETATM    9  C   UNL     1      42.350 -12.558   5.297  1.00  0.00     0.030 A 
HETATM   10  C   UNL     1      42.933 -13.682   5.904  1.00  0.00     0.046 A 
HETATM   11  C   UNL     1      42.081 -16.394   3.476  1.00  0.00     0.079 A 
HETATM   12  C   UNL     1      44.190 -16.742   6.498  1.00  0.00     0.015 A 
HETATM   13  C   UNL     1      44.503 -18.112   6.507  1.00  0.00     0.030 A 
ENDROOT
BRANCH   1  14
HETATM   14  N   UNL     1      44.363 -20.352   5.649  1.00  0.00    -0.328 N 
HETATM   15  C   UNL     1      44.927 -21.158   4.675  1.00  0.00     0.218 C 
HETATM   16  C   UNL     1      45.158 -22.570   5.154  1.00  0.00     0.117 C 
HETATM   17  O   UNL     1      45.204 -20.839   3.523  1.00  0.00    -0.274 OA
HETATM   18  H   UNL     1      44.167 -20.787   6.542  1.00  0.00     0.169 HD
ENDBRANCH   1  14
BRANCH  10  19
HETATM   19  N   UNL     1      43.498 -13.642   7.191  1.00  0.00    -0.327 N 
HETATM   20  C   UNL     1      44.761 -13.439   7.657  1.00  0.00     0.218 C 
HETATM   21  C   UNL     1      45.949 -13.458   6.741  1.00  0.00     0.117 C 
HETATM   22  O   UNL     1      44.915 -13.285   8.872  1.00  0.00    -0.274 OA
HETATM   23  H   UNL     1      42.841 -13.712   7.956  1.00  0.00     0.169 HD
ENDBRANCH  10  19
TORSDOF 2
ENDMDL
MODEL 8
REMARK VINA RESULT:      -7.5      2.912      6.174
REMARK  2 active torsions:
REMARK  status: ('A' for Active; 'I' for Inactive)
REMARK       I    between atoms: C_2  and  N_3 
REMARK    1  A    between atoms: N_3  and  C_4 
REMARK    2  A    between atoms: C_13  and  N_14 
REMARK       I    between atoms: N_14  and  C_15 
ROOT
HETATM    1  C   UNL     1      42.605 -16.467   1.038  1.00  0.00     0.035 A 
HETATM    2  C   UNL     1      42.277 -15.717   2.166  1.00  0.00     0.038 A 
HETATM    3  C   UNL     1      42.749 -16.138   3.406  1.00  0.00    -0.041 A 
HETATM    4  C   UNL     1      43.529 -17.303   3.570  1.00  0.00    -0.016 A 
HETATM    5  C   UNL     1      43.841 -17.467   4.992  1.00  0.00     0.008 A 
HETATM    6  C   UNL     1      43.307 -16.341   5.675  1.00  0.00    -0.041 A 
HETATM    7  C   UNL     1      43.472 -16.150   7.036  1.00  0.00     0.008 A 
HETATM    8  C   UNL     1      44.175 -17.115   7.744  1.00  0.00     0.003 A 
HETATM    9  C   UNL     1      44.681 -18.257   7.095  1.00  0.00     0.030 A 
HETATM   10  C   UNL     1      44.522 -18.456   5.715  1.00  0.00     0.046 A 
HETATM   11  C   UNL     1      42.550 -15.437   4.727  1.00  0.00     0.079 A 
HETATM   12  C   UNL     1      43.894 -18.020   2.442  1.00  0.00     0.015 A 
HETATM   13  C   UNL     1      43.423 -17.604   1.185  1.00  0.00     0.030 A 
ENDROOT
BRANCH   1  14
HETATM   14  N   UNL     1      42.176 -16.151  -0.267  1.00  0.00    -0.328 N 
HETATM   15  C   UNL     1      41.084 -15.383  -0.632  1.00  0.00     0.218 C 
HETATM   16  C   UNL     1      40.920 -15.281  -2.128  1.00  0.00     0.117 C 
HETATM   17  O   UNL     1      40.278 -14.844   0.120  1.00  0.00    -0.274 OA
HETATM   18  H   UNL     1      42.722 -16.552  -1.020  1.00  0.00     0.169 HD
ENDBRANCH   1  14
BRANCH  10  19
HETATM   19  N   UNL     1      44.915 -19.641   5.069  1.00  0.00    -0.327 N 
HETATM   20  C   UNL     1      44.608 -20.956   5.248  1.00  0.00     0.218 C 
HETATM   21  C   UNL     1      43.886 -21.433   6.474  1.00  0.00     0.117 C 
HETATM   22  O   UNL     1      44.984 -21.763   4.394  1.00  0.00    -0.274 OA
HETATM   23  H   UNL     1      45.499 -19.519   4.253  1.00  0.00     0.169 HD
ENDBRANCH  10  19
TORSDOF 2
ENDMDL
MODEL 9
REMARK VINA RESULT:      -7.4      3.176      5.996
REMARK  2 active torsions:
REMARK  status: ('A' for Active; 'I' for Inactive)
REMARK       I    between atoms: C_2  and  N_3 
REMARK    1  A    between atoms: N_3  and  C_4 
REMARK    2  A    between atoms: C_13  and  N_14 
REMARK       I    between atoms: N_14  and  C_15 
ROOT
HETATM    1  C   UNL     1      43.727 -19.303   4.047  1.00  0.00     0.035 A 
HETATM    2  C   UNL     1      43.772 -19.041   2.679  1.00  0.00     0.038 A 
HETATM    3  C   UNL     1      43.018 -17.985   2.179  1.00  0.00    -0.041 A 
HETATM    4  C   UNL     1      42.194 -17.180   2.995  1.00  0.00    -0.016 A 
HETATM    5  C   UNL     1      41.530 -16.178   2.157  1.00  0.00     0.008 A 
HETATM    6  C   UNL     1      42.025 -16.337   0.835  1.00  0.00    -0.041 A 
HETATM    7  C   UNL     1      41.644 -15.508  -0.206  1.00  0.00     0.008 A 
HETATM    8  C   UNL     1      40.730 -14.501   0.071  1.00  0.00     0.003 A 
HETATM    9  C   UNL     1      40.197 -14.348   1.365  1.00  0.00     0.030 A 
HETATM   10  C   UNL     1      40.583 -15.182   2.427  1.00  0.00     0.046 A 
HETATM   11  C   UNL     1      42.976 -17.510   0.746  1.00  0.00     0.079 A 
HETATM   12  C   UNL     1      42.188 -17.412   4.362  1.00  0.00     0.015 A 
HETATM   13  C   UNL     1      42.946 -18.477   4.878  1.00  0.00     0.030 A 
ENDROOT
BRANCH   1  14
HETATM   14  N   UNL     1      44.434 -20.352   4.670  1.00  0.00    -0.328 N 
HETATM   15  C   UNL     1      44.663 -21.624   4.174  1.00  0.00     0.218 C 
HETATM   16  C   UNL     1      45.441 -22.490   5.134  1.00  0.00     0.117 C 
HETATM   17  O   UNL     1      44.280 -22.076   3.100  1.00  0.00    -0.274 OA
HETATM   18  H   UNL     1      44.795 -20.152   5.594  1.00  0.00     0.169 HD
ENDBRANCH   1  14
BRANCH  10  19
HETATM   19  N   UNL     1      39.978 -15.123   3.695  1.00  0.00    -0.327 N 
HETATM   20  C   UNL     1      40.243 -14.423   4.832  1.00  0.00     0.218 C 
HETATM   21  C   UNL     1      41.533 -13.676   5.011  1.00  0.00     0.117 C 
HETATM   22  O   UNL     1      39.412 -14.455   5.744  1.00  0.00    -0.274 OA
HETATM   23  H   UNL     1      39.124 -15.655   3.794  1.00  0.00     0.169 HD
ENDBRANCH  10  19
TORSDOF 2
ENDMDL
MODEL 10
REMARK VINA RESULT:      -7.3      3.914      6.813
REMARK  2 active torsions:
REMARK  status: ('A' for Active; 'I' for Inactive)
REMARK       I    between atoms: C_2  and  N_3 
REMARK    1  A    between atoms: N_3  and  C_4 
REMARK    2  A    between atoms: C_13  and  N_14 
REMARK       I    between atoms: N_14  and  C_15 
ROOT
HETATM    1  C   UNL     1      42.868 -17.674   2.432  1.00  0.00     0.035 A 
HETATM    2  C   UNL     1      41.785 -17.063   3.062  1.00  0.00     0.038 A 
HETATM    3  C   UNL     1      40.965 -16.226   2.313  1.00  0.00    -0.041 A 
HETATM    4  C   UNL     1      41.194 -15.954   0.947  1.00  0.00    -0.016 A 
HETATM    5  C   UNL     1      40.164 -15.029   0.469  1.00  0.00     0.008 A 
HETATM    6  C   UNL     1      39.262 -14.808   1.544  1.00  0.00    -0.041 A 
HETATM    7  C   UNL     1      38.132 -14.019   1.416  1.00  0.00     0.008 A 
HETATM    8  C   UNL     1      37.899 -13.417   0.186  1.00  0.00     0.003 A 
HETATM    9  C   UNL     1      38.799 -13.592  -0.882  1.00  0.00     0.030 A 
HETATM   10  C   UNL     1      39.945 -14.394  -0.761  1.00  0.00     0.046 A 
HETATM   11  C   UNL     1      39.720 -15.522   2.796  1.00  0.00     0.079 A 
HETATM   12  C   UNL     1      42.243 -16.599   0.311  1.00  0.00     0.015 A 
HETATM   13  C   UNL     1      43.078 -17.447   1.058  1.00  0.00     0.030 A 
ENDROOT
BRANCH   1  14
HETATM   14  N   UNL     1      43.778 -18.530   3.087  1.00  0.00    -0.328 N 
HETATM   15  C   UNL     1      43.961 -19.885   2.873  1.00  0.00     0.218 C 
HETATM   16  C   UNL     1      45.010 -20.478   3.780  1.00  0.00     0.117 C 
HETATM   17  O   UNL     1      43.354 -20.594   2.077  1.00  0.00    -0.274 OA
HETATM   18  H   UNL     1      44.343 -18.102   3.810  1.00  0.00     0.169 HD
ENDBRANCH   1  14
BRANCH  10  19
HETATM   19  N   UNL     1      40.916 -14.487  -1.773  1.00  0.00    -0.327 N 
HETATM   20  C   UNL     1      40.966 -15.131  -2.971  1.00  0.00     0.218 C 
HETATM   21  C   UNL     1      39.950 -16.170  -3.347  1.00  0.00     0.117 C 
HETATM   22  O   UNL     1      41.905 -14.875  -3.732  1.00  0.00    -0.274 OA
HETATM   23  H   UNL     1      41.737 -13.912  -1.642  1.00  0.00     0.169 HD
ENDBRANCH  10  19
TORSDOF 2
ENDMDL
