MODEL 1
REMARK VINA RESULT:      -7.8      0.000      0.000
REMARK  6 active torsions:
REMARK  status: ('A' for Active; 'I' for Inactive)
REMARK    1  A    between atoms: C_6  and  C_7 
REMARK       I    between atoms: C_7  and  N_8 
REMARK    2  A    between atoms: N_8  and  C_9 
REMARK    3  A    between atoms: C_9  and  C_10 
REMARK    4  A    between atoms: C_10  and  O_11 
REMARK    5  A    between atoms: C_10  and  C_12 
REMARK    6  A    between atoms: C_15  and  O_16 
ROOT
HETATM    1  C   UNL     1      41.382 -14.606  -0.030  1.00  0.00     0.258 C 
HETATM    2  N   UNL     1      42.155 -15.742   0.068  1.00  0.00    -0.350 N 
HETATM    3  O   UNL     1      40.613 -14.241   0.852  1.00  0.00    -0.267 OA
HETATM    4  H   UNL     1      42.829 -15.885  -0.683  1.00  0.00     0.163 HD
ENDROOT
BRANCH   2   5
HETATM    5  C   UNL     1      42.237 -16.550   1.287  1.00  0.00     0.114 C 
HETATM    6  C   UNL     1      41.153 -17.635   1.276  1.00  0.00     0.035 C 
BRANCH   5   7
HETATM    7  C   UNL     1      43.670 -17.143   1.430  1.00  0.00     0.173 C 
BRANCH   7   8
HETATM    8  O   UNL     1      44.071 -17.820   0.233  1.00  0.00    -0.389 OA
HETATM    9  H   UNL     1      44.275 -17.132  -0.425  1.00  0.00     0.210 HD
ENDBRANCH   7   8
BRANCH   7  10
HETATM   10  C   UNL     1      43.817 -18.052   2.633  1.00  0.00    -0.028 A 
HETATM   11  C   UNL     1      44.197 -19.389   2.446  1.00  0.00     0.012 A 
HETATM   12  C   UNL     1      44.366 -20.240   3.540  1.00  0.00     0.037 A 
HETATM   13  C   UNL     1      44.170 -19.776   4.841  1.00  0.00     0.068 A 
HETATM   14  C   UNL     1      43.784 -18.451   5.038  1.00  0.00     0.037 A 
HETATM   15  C   UNL     1      43.607 -17.598   3.942  1.00  0.00     0.012 A 
BRANCH  13  16
HETATM   16  O   UNL     1      44.381 -20.708   5.820  1.00  0.00    -0.356 OA
HETATM   17  C   UNL     1      44.811 -21.994   5.394  1.00  0.00     0.210 C 
ENDBRANCH  13  16
ENDBRANCH   7  10
ENDBRANCH   5   7
ENDBRANCH   2   5
BRANCH   1  18
HETATM   18  C   UNL     1      41.565 -13.855  -1.261  1.00  0.00     0.105 A 
HETATM   19  C   UNL     1      41.192 -14.231  -2.579  1.00  0.00     0.071 A 
HETATM   20  C   UNL     1      40.539 -15.494  -3.013  1.00  0.00     0.073 C 
HETATM   21  N   UNL     1      41.493 -13.292  -3.483  1.00  0.00    -0.170 NA
HETATM   22  N   UNL     1      42.054 -12.292  -2.769  1.00  0.00    -0.225 N 
HETATM   23  C   UNL     1      42.131 -12.599  -1.407  1.00  0.00     0.168 A 
HETATM   24  C   UNL     1      42.522 -11.072  -3.244  1.00  0.00     0.122 A 
HETATM   25  N   UNL     1      42.671 -11.725  -0.492  1.00  0.00    -0.240 NA
HETATM   26  C   UNL     1      43.095 -10.595  -0.976  1.00  0.00     0.120 A 
HETATM   27  C   UNL     1      43.052 -10.174  -2.403  1.00  0.00     0.038 A 
ENDBRANCH   1  18
TORSDOF 6
ENDMDL
MODEL 2
REMARK VINA RESULT:      -7.7      4.186      5.658
REMARK  6 active torsions:
REMARK  status: ('A' for Active; 'I' for Inactive)
REMARK    1  A    between atoms: C_6  and  C_7 
REMARK       I    between atoms: C_7  and  N_8 
REMARK    2  A    between atoms: N_8  and  C_9 
REMARK    3  A    between atoms: C_9  and  C_10 
REMARK    4  A    between atoms: C_10  and  O_11 
REMARK    5  A    between atoms: C_10  and  C_12 
REMARK    6  A    between atoms: C_15  and  O_16 
ROOT
HETATM    1  C   UNL     1      41.996 -16.072   4.582  1.00  0.00     0.258 C 
HETATM    2  N   UNL     1      41.881 -16.002   3.211  1.00  0.00    -0.350 N 
HETATM    3  O   UNL     1      41.979 -17.128   5.203  1.00  0.00    -0.267 OA
HETATM    4  H   UNL     1      42.012 -15.078   2.802  1.00  0.00     0.163 HD
ENDROOT
BRANCH   2   5
HETATM    5  C   UNL     1      41.864 -17.187   2.349  1.00  0.00     0.114 C 
HETATM    6  C   UNL     1      40.950 -16.948   1.141  1.00  0.00     0.035 C 
BRANCH   5   7
HETATM    7  C   UNL     1      43.319 -17.555   1.931  1.00  0.00     0.173 C 
BRANCH   7   8
HETATM    8  O   UNL     1      43.501 -17.415   0.517  1.00  0.00    -0.389 OA
HETATM    9  H   UNL     1      43.203 -18.247   0.111  1.00  0.00     0.210 HD
ENDBRANCH   7   8
BRANCH   7  10
HETATM   10  C   UNL     1      43.734 -18.938   2.389  1.00  0.00    -0.028 A 
HETATM   11  C   UNL     1      44.349 -19.096   3.639  1.00  0.00     0.012 A 
HETATM   12  C   UNL     1      44.716 -20.364   4.096  1.00  0.00     0.037 A 
HETATM   13  C   UNL     1      44.469 -21.499   3.323  1.00  0.00     0.068 A 
HETATM   14  C   UNL     1      43.865 -21.353   2.076  1.00  0.00     0.037 A 
HETATM   15  C   UNL     1      43.502 -20.082   1.613  1.00  0.00     0.012 A 
BRANCH  13  16
HETATM   16  O   UNL     1      44.865 -22.677   3.894  1.00  0.00    -0.356 OA
HETATM   17  C   UNL     1      45.205 -22.636   5.274  1.00  0.00     0.210 C 
ENDBRANCH  13  16
ENDBRANCH   7  10
ENDBRANCH   5   7
ENDBRANCH   2   5
BRANCH   1  18
HETATM   18  C   UNL     1      42.162 -14.786   5.240  1.00  0.00     0.105 A 
HETATM   19  C   UNL     1      43.212 -14.375   6.104  1.00  0.00     0.071 A 
HETATM   20  C   UNL     1      44.383 -15.173   6.555  1.00  0.00     0.073 C 
HETATM   21  N   UNL     1      43.064 -13.113   6.522  1.00  0.00    -0.170 NA
HETATM   22  N   UNL     1      41.928 -12.683   5.932  1.00  0.00    -0.225 N 
HETATM   23  C   UNL     1      41.336 -13.678   5.148  1.00  0.00     0.168 A 
HETATM   24  C   UNL     1      41.348 -11.424   6.028  1.00  0.00     0.122 A 
HETATM   25  N   UNL     1      40.166 -13.462   4.457  1.00  0.00    -0.240 NA
HETATM   26  C   UNL     1      39.656 -12.271   4.572  1.00  0.00     0.120 A 
HETATM   27  C   UNL     1      40.213 -11.146   5.374  1.00  0.00     0.038 A 
ENDBRANCH   1  18
TORSDOF 6
ENDMDL
MODEL 3
REMARK VINA RESULT:      -7.7      4.150      8.423
REMARK  6 active torsions:
REMARK  status: ('A' for Active; 'I' for Inactive)
REMARK    1  A    between atoms: C_6  and  C_7 
REMARK       I    between atoms: C_7  and  N_8 
REMARK    2  A    between atoms: N_8  and  C_9 
REMARK    3  A    between atoms: C_9  and  C_10 
REMARK    4  A    between atoms: C_10  and  O_11 
REMARK    5  A    between atoms: C_10  and  C_12 
REMARK    6  A    between atoms: C_15  and  O_16 
ROOT
HETATM    1  C   UNL     1      43.225 -16.765   3.678  1.00  0.00     0.258 C 
HETATM    2  N   UNL     1      42.357 -16.890   2.616  1.00  0.00    -0.350 N 
HETATM    3  O   UNL     1      43.471 -15.694   4.219  1.00  0.00    -0.267 OA
HETATM    4  H   UNL     1      42.155 -17.844   2.318  1.00  0.00     0.163 HD
ENDROOT
BRANCH   2   5
HETATM    5  C   UNL     1      41.539 -15.781   2.117  1.00  0.00     0.114 C 
HETATM    6  C   UNL     1      41.412 -15.863   0.591  1.00  0.00     0.035 C 
BRANCH   5   7
HETATM    7  C   UNL     1      40.154 -15.785   2.830  1.00  0.00     0.173 C 
BRANCH   7   8
HETATM    8  O   UNL     1      39.088 -15.937   1.886  1.00  0.00    -0.389 OA
HETATM    9  H   UNL     1      38.886 -15.050   1.542  1.00  0.00     0.210 HD
ENDBRANCH   7   8
BRANCH   7  10
HETATM   10  C   UNL     1      39.931 -14.562   3.695  1.00  0.00    -0.028 A 
HETATM   11  C   UNL     1      39.533 -13.357   3.098  1.00  0.00     0.012 A 
HETATM   12  C   UNL     1      39.294 -12.222   3.877  1.00  0.00     0.037 A 
HETATM   13  C   UNL     1      39.437 -12.267   5.265  1.00  0.00     0.068 A 
HETATM   14  C   UNL     1      39.840 -13.457   5.867  1.00  0.00     0.037 A 
HETATM   15  C   UNL     1      40.087 -14.594   5.088  1.00  0.00     0.012 A 
BRANCH  13  16
HETATM   16  O   UNL     1      39.160 -11.092   5.907  1.00  0.00    -0.356 OA
HETATM   17  C   UNL     1      39.681 -10.943   7.221  1.00  0.00     0.210 C 
ENDBRANCH  13  16
ENDBRANCH   7  10
ENDBRANCH   5   7
ENDBRANCH   2   5
BRANCH   1  18
HETATM   18  C   UNL     1      43.816 -18.016   4.125  1.00  0.00     0.105 A 
HETATM   19  C   UNL     1      44.419 -18.299   5.379  1.00  0.00     0.071 A 
HETATM   20  C   UNL     1      44.604 -17.374   6.528  1.00  0.00     0.073 C 
HETATM   21  N   UNL     1      44.847 -19.564   5.466  1.00  0.00    -0.170 NA
HETATM   22  N   UNL     1      44.521 -20.122   4.280  1.00  0.00    -0.225 N 
HETATM   23  C   UNL     1      43.900 -19.207   3.424  1.00  0.00     0.168 A 
HETATM   24  C   UNL     1      44.732 -21.435   3.876  1.00  0.00     0.122 A 
HETATM   25  N   UNL     1      43.485 -19.558   2.159  1.00  0.00    -0.240 NA
HETATM   26  C   UNL     1      43.700 -20.796   1.820  1.00  0.00     0.120 A 
HETATM   27  C   UNL     1      44.345 -21.842   2.660  1.00  0.00     0.038 A 
ENDBRANCH   1  18
TORSDOF 6
ENDMDL
MODEL 4
REMARK VINA RESULT:      -7.6      3.996      7.971
REMARK  6 active torsions:
REMARK  status: ('A' for Active; 'I' for Inactive)
REMARK    1  A    between atoms: C_6  and  C_7 
REMARK       I    between atoms: C_7  and  N_8 
REMARK    2  A    between atoms: N_8  and  C_9 
REMARK    3  A    between atoms: C_9  and  C_10 
REMARK    4  A    between atoms: C_10  and  O_11 
REMARK    5  A    between atoms: C_10  and  C_12 
REMARK    6  A    between atoms: C_15  and  O_16 
ROOT
HETATM    1  C   UNL     1      43.666 -17.786   2.405  1.00  0.00     0.258 C 
HETATM    2  N   UNL     1      42.327 -17.464   2.368  1.00  0.00    -0.350 N 
HETATM    3  O   UNL     1      44.494 -17.296   1.646  1.00  0.00    -0.267 OA
HETATM    4  H   UNL     1      41.756 -17.859   3.114  1.00  0.00     0.163 HD
ENDROOT
BRANCH   2   5
HETATM    5  C   UNL     1      41.783 -16.406   1.513  1.00  0.00     0.114 C 
HETATM    6  C   UNL     1      41.008 -17.021   0.341  1.00  0.00     0.035 C 
BRANCH   5   7
HETATM    7  C   UNL     1      40.906 -15.440   2.364  1.00  0.00     0.173 C 
BRANCH   7   8
HETATM    8  O   UNL     1      40.301 -14.434   1.543  1.00  0.00    -0.389 OA
HETATM    9  H   UNL     1      39.339 -14.503   1.676  1.00  0.00     0.210 HD
ENDBRANCH   7   8
BRANCH   7  10
HETATM   10  C   UNL     1      41.666 -14.808   3.512  1.00  0.00    -0.028 A 
HETATM   11  C   UNL     1      41.115 -14.832   4.801  1.00  0.00     0.012 A 
HETATM   12  C   UNL     1      41.809 -14.281   5.881  1.00  0.00     0.037 A 
HETATM   13  C   UNL     1      43.067 -13.705   5.701  1.00  0.00     0.068 A 
HETATM   14  C   UNL     1      43.620 -13.669   4.423  1.00  0.00     0.037 A 
HETATM   15  C   UNL     1      42.924 -14.215   3.337  1.00  0.00     0.012 A 
BRANCH  13  16
HETATM   16  O   UNL     1      43.641 -13.215   6.842  1.00  0.00    -0.356 OA
HETATM   17  C   UNL     1      44.734 -13.952   7.374  1.00  0.00     0.210 C 
ENDBRANCH  13  16
ENDBRANCH   7  10
ENDBRANCH   5   7
ENDBRANCH   2   5
BRANCH   1  18
HETATM   18  C   UNL     1      44.028 -18.745   3.436  1.00  0.00     0.105 A 
HETATM   19  C   UNL     1      44.217 -18.508   4.824  1.00  0.00     0.071 A 
HETATM   20  C   UNL     1      44.104 -17.214   5.548  1.00  0.00     0.073 C 
HETATM   21  N   UNL     1      44.529 -19.622   5.495  1.00  0.00    -0.170 NA
HETATM   22  N   UNL     1      44.538 -20.598   4.561  1.00  0.00    -0.225 N 
HETATM   23  C   UNL     1      44.250 -20.104   3.285  1.00  0.00     0.168 A 
HETATM   24  C   UNL     1      44.786 -21.952   4.753  1.00  0.00     0.122 A 
HETATM   25  N   UNL     1      44.209 -20.922   2.178  1.00  0.00    -0.240 NA
HETATM   26  C   UNL     1      44.446 -22.182   2.401  1.00  0.00     0.120 A 
HETATM   27  C   UNL     1      44.755 -22.802   3.719  1.00  0.00     0.038 A 
ENDBRANCH   1  18
TORSDOF 6
ENDMDL
MODEL 5
REMARK VINA RESULT:      -7.5      3.233      8.277
REMARK  6 active torsions:
REMARK  status: ('A' for Active; 'I' for Inactive)
REMARK    1  A    between atoms: C_6  and  C_7 
REMARK       I    between atoms: C_7  and  N_8 
REMARK    2  A    between atoms: N_8  and  C_9 
REMARK    3  A    between atoms: C_9  and  C_10 
REMARK    4  A    between atoms: C_10  and  O_11 
REMARK    5  A    between atoms: C_10  and  C_12 
REMARK    6  A    between atoms: C_15  and  O_16 
ROOT
HETATM    1  C   UNL     1      41.576 -16.881   3.056  1.00  0.00     0.258 C 
HETATM    2  N   UNL     1      41.875 -15.546   3.214  1.00  0.00    -0.350 N 
HETATM    3  O   UNL     1      40.667 -17.284   2.340  1.00  0.00    -0.267 OA
HETATM    4  H   UNL     1      42.716 -15.341   3.752  1.00  0.00     0.163 HD
ENDROOT
BRANCH   2   5
HETATM    5  C   UNL     1      41.227 -14.484   2.438  1.00  0.00     0.114 C 
HETATM    6  C   UNL     1      40.649 -13.420   3.380  1.00  0.00     0.035 C 
BRANCH   5   7
HETATM    7  C   UNL     1      42.238 -13.887   1.415  1.00  0.00     0.173 C 
BRANCH   7   8
HETATM    8  O   UNL     1      42.450 -12.490   1.654  1.00  0.00    -0.389 OA
HETATM    9  H   UNL     1      41.760 -12.013   1.160  1.00  0.00     0.210 HD
ENDBRANCH   7   8
BRANCH   7  10
HETATM   10  C   UNL     1      41.835 -14.129  -0.025  1.00  0.00    -0.028 A 
HETATM   11  C   UNL     1      41.298 -15.371  -0.392  1.00  0.00     0.012 A 
HETATM   12  C   UNL     1      40.893 -15.610  -1.708  1.00  0.00     0.037 A 
HETATM   13  C   UNL     1      41.003 -14.614  -2.679  1.00  0.00     0.068 A 
HETATM   14  C   UNL     1      41.542 -13.378  -2.326  1.00  0.00     0.037 A 
HETATM   15  C   UNL     1      41.956 -13.139  -1.010  1.00  0.00     0.012 A 
BRANCH  13  16
HETATM   16  O   UNL     1      40.558 -14.974  -3.921  1.00  0.00    -0.356 OA
HETATM   17  C   UNL     1      39.384 -15.774  -3.971  1.00  0.00     0.210 C 
ENDBRANCH  13  16
ENDBRANCH   7  10
ENDBRANCH   5   7
ENDBRANCH   2   5
BRANCH   1  18
HETATM   18  C   UNL     1      42.443 -17.785   3.793  1.00  0.00     0.105 A 
HETATM   19  C   UNL     1      43.274 -18.815   3.278  1.00  0.00     0.071 A 
HETATM   20  C   UNL     1      43.439 -19.224   1.858  1.00  0.00     0.073 C 
HETATM   21  N   UNL     1      43.958 -19.449   4.238  1.00  0.00    -0.170 NA
HETATM   22  N   UNL     1      43.592 -18.836   5.384  1.00  0.00    -0.225 N 
HETATM   23  C   UNL     1      42.657 -17.821   5.161  1.00  0.00     0.168 A 
HETATM   24  C   UNL     1      44.041 -19.111   6.671  1.00  0.00     0.122 A 
HETATM   25  N   UNL     1      42.141 -17.066   6.190  1.00  0.00    -0.240 NA
HETATM   26  C   UNL     1      42.588 -17.353   7.378  1.00  0.00     0.120 A 
HETATM   27  C   UNL     1      43.584 -18.407   7.715  1.00  0.00     0.038 A 
ENDBRANCH   1  18
TORSDOF 6
ENDMDL
MODEL 6
REMARK VINA RESULT:      -7.5      3.623      8.220
REMARK  6 active torsions:
REMARK  status: ('A' for Active; 'I' for Inactive)
REMARK    1  A    between atoms: C_6  and  C_7 
REMARK       I    between atoms: C_7  and  N_8 
REMARK    2  A    between atoms: N_8  and  C_9 
REMARK    3  A    between atoms: C_9  and  C_10 
REMARK    4  A    between atoms: C_10  and  O_11 
REMARK    5  A    between atoms: C_10  and  C_12 
REMARK    6  A    between atoms: C_15  and  O_16 
ROOT
HETATM    1  C   UNL     1      42.886 -16.807   4.846  1.00  0.00     0.258 C 
HETATM    2  N   UNL     1      42.902 -15.978   3.746  1.00  0.00    -0.350 N 
HETATM    3  O   UNL     1      42.261 -16.553   5.868  1.00  0.00    -0.267 OA
HETATM    4  H   UNL     1      43.374 -16.346   2.921  1.00  0.00     0.163 HD
ENDROOT
BRANCH   2   5
HETATM    5  C   UNL     1      42.067 -14.779   3.638  1.00  0.00     0.114 C 
HETATM    6  C   UNL     1      42.825 -13.673   2.893  1.00  0.00     0.035 C 
BRANCH   5   7
HETATM    7  C   UNL     1      40.716 -15.139   2.952  1.00  0.00     0.173 C 
BRANCH   7   8
HETATM    8  O   UNL     1      40.223 -16.403   3.415  1.00  0.00    -0.389 OA
HETATM    9  H   UNL     1      39.253 -16.369   3.347  1.00  0.00     0.210 HD
ENDBRANCH   7   8
BRANCH   7  10
HETATM   10  C   UNL     1      40.795 -15.117   1.440  1.00  0.00    -0.028 A 
HETATM   11  C   UNL     1      41.367 -16.204   0.763  1.00  0.00     0.012 A 
HETATM   12  C   UNL     1      41.427 -16.221  -0.633  1.00  0.00     0.037 A 
HETATM   13  C   UNL     1      40.911 -15.162  -1.381  1.00  0.00     0.068 A 
HETATM   14  C   UNL     1      40.348 -14.073  -0.718  1.00  0.00     0.037 A 
HETATM   15  C   UNL     1      40.293 -14.051   0.681  1.00  0.00     0.012 A 
BRANCH  13  16
HETATM   16  O   UNL     1      41.023 -15.311  -2.736  1.00  0.00    -0.356 OA
HETATM   17  C   UNL     1      39.819 -15.545  -3.454  1.00  0.00     0.210 C 
ENDBRANCH  13  16
ENDBRANCH   7  10
ENDBRANCH   5   7
ENDBRANCH   2   5
BRANCH   1  18
HETATM   18  C   UNL     1      43.658 -18.030   4.691  1.00  0.00     0.105 A 
HETATM   19  C   UNL     1      44.635 -18.565   5.572  1.00  0.00     0.071 A 
HETATM   20  C   UNL     1      45.113 -17.989   6.857  1.00  0.00     0.073 C 
HETATM   21  N   UNL     1      45.141 -19.723   5.131  1.00  0.00    -0.170 NA
HETATM   22  N   UNL     1      44.497 -19.961   3.969  1.00  0.00    -0.225 N 
HETATM   23  C   UNL     1      43.590 -18.945   3.654  1.00  0.00     0.168 A 
HETATM   24  C   UNL     1      44.648 -21.057   3.127  1.00  0.00     0.122 A 
HETATM   25  N   UNL     1      42.825 -18.979   2.510  1.00  0.00    -0.240 NA
HETATM   26  C   UNL     1      42.995 -20.021   1.750  1.00  0.00     0.120 A 
HETATM   27  C   UNL     1      43.928 -21.154   2.001  1.00  0.00     0.038 A 
ENDBRANCH   1  18
TORSDOF 6
ENDMDL
MODEL 7
REMARK VINA RESULT:      -7.5      3.888      8.853
REMARK  6 active torsions:
REMARK  status: ('A' for Active; 'I' for Inactive)
REMARK    1  A    between atoms: C_6  and  C_7 
REMARK       I    between atoms: C_7  and  N_8 
REMARK    2  A    between atoms: N_8  and  C_9 
REMARK    3  A    between atoms: C_9  and  C_10 
REMARK    4  A    between atoms: C_10  and  O_11 
REMARK    5  A    between atoms: C_10  and  C_12 
REMARK    6  A    between atoms: C_15  and  O_16 
ROOT
HETATM    1  C   UNL     1      43.231 -16.772   3.649  1.00  0.00     0.258 C 
HETATM    2  N   UNL     1      42.501 -16.875   2.486  1.00  0.00    -0.350 N 
HETATM    3  O   UNL     1      43.366 -15.722   4.266  1.00  0.00    -0.267 OA
HETATM    4  H   UNL     1      42.377 -17.819   2.122  1.00  0.00     0.163 HD
ENDROOT
BRANCH   2   5
HETATM    5  C   UNL     1      41.702 -15.773   1.944  1.00  0.00     0.114 C 
HETATM    6  C   UNL     1      41.714 -15.815   0.411  1.00  0.00     0.035 C 
BRANCH   5   7
HETATM    7  C   UNL     1      40.259 -15.831   2.529  1.00  0.00     0.173 C 
BRANCH   7   8
HETATM    8  O   UNL     1      39.572 -17.010   2.091  1.00  0.00    -0.389 OA
HETATM    9  H   UNL     1      40.219 -17.736   2.109  1.00  0.00     0.210 HD
ENDBRANCH   7   8
BRANCH   7  10
HETATM   10  C   UNL     1      39.446 -14.591   2.220  1.00  0.00    -0.028 A 
HETATM   11  C   UNL     1      39.740 -13.390   2.880  1.00  0.00     0.012 A 
HETATM   12  C   UNL     1      39.022 -12.226   2.593  1.00  0.00     0.037 A 
HETATM   13  C   UNL     1      38.006 -12.234   1.636  1.00  0.00     0.068 A 
HETATM   14  C   UNL     1      37.700 -13.424   0.980  1.00  0.00     0.037 A 
HETATM   15  C   UNL     1      38.414 -14.594   1.271  1.00  0.00     0.012 A 
BRANCH  13  16
HETATM   16  O   UNL     1      37.393 -11.026   1.443  1.00  0.00    -0.356 OA
HETATM   17  C   UNL     1      36.081 -11.056   0.897  1.00  0.00     0.210 C 
ENDBRANCH  13  16
ENDBRANCH   7  10
ENDBRANCH   5   7
ENDBRANCH   2   5
BRANCH   1  18
HETATM   18  C   UNL     1      43.818 -18.022   4.106  1.00  0.00     0.105 A 
HETATM   19  C   UNL     1      44.418 -18.299   5.363  1.00  0.00     0.071 A 
HETATM   20  C   UNL     1      44.605 -17.366   6.506  1.00  0.00     0.073 C 
HETATM   21  N   UNL     1      44.842 -19.564   5.459  1.00  0.00    -0.170 NA
HETATM   22  N   UNL     1      44.516 -20.129   4.276  1.00  0.00    -0.225 N 
HETATM   23  C   UNL     1      43.900 -19.219   3.413  1.00  0.00     0.168 A 
HETATM   24  C   UNL     1      44.724 -21.446   3.881  1.00  0.00     0.122 A 
HETATM   25  N   UNL     1      43.486 -19.577   2.150  1.00  0.00    -0.240 NA
HETATM   26  C   UNL     1      43.697 -20.817   1.820  1.00  0.00     0.120 A 
HETATM   27  C   UNL     1      44.338 -21.860   2.667  1.00  0.00     0.038 A 
ENDBRANCH   1  18
TORSDOF 6
ENDMDL
MODEL 8
REMARK VINA RESULT:      -7.4      3.220      8.274
REMARK  6 active torsions:
REMARK  status: ('A' for Active; 'I' for Inactive)
REMARK    1  A    between atoms: C_6  and  C_7 
REMARK       I    between atoms: C_7  and  N_8 
REMARK    2  A    between atoms: N_8  and  C_9 
REMARK    3  A    between atoms: C_9  and  C_10 
REMARK    4  A    between atoms: C_10  and  O_11 
REMARK    5  A    between atoms: C_10  and  C_12 
REMARK    6  A    between atoms: C_15  and  O_16 
ROOT
HETATM    1  C   UNL     1      41.201 -16.536   3.189  1.00  0.00     0.258 C 
HETATM    2  N   UNL     1      41.533 -15.201   3.264  1.00  0.00    -0.350 N 
HETATM    3  O   UNL     1      40.344 -16.972   2.430  1.00  0.00    -0.267 OA
HETATM    4  H   UNL     1      42.330 -14.975   3.857  1.00  0.00     0.163 HD
ENDROOT
BRANCH   2   5
HETATM    5  C   UNL     1      40.993 -14.191   2.350  1.00  0.00     0.114 C 
HETATM    6  C   UNL     1      40.453 -12.995   3.144  1.00  0.00     0.035 C 
BRANCH   5   7
HETATM    7  C   UNL     1      42.084 -13.777   1.318  1.00  0.00     0.173 C 
BRANCH   7   8
HETATM    8  O   UNL     1      42.449 -12.400   1.477  1.00  0.00    -0.389 OA
HETATM    9  H   UNL     1      42.278 -12.169   2.407  1.00  0.00     0.210 HD
ENDBRANCH   7   8
BRANCH   7  10
HETATM   10  C   UNL     1      41.682 -14.062  -0.114  1.00  0.00    -0.028 A 
HETATM   11  C   UNL     1      41.330 -15.367  -0.486  1.00  0.00     0.012 A 
HETATM   12  C   UNL     1      40.929 -15.650  -1.794  1.00  0.00     0.037 A 
HETATM   13  C   UNL     1      40.861 -14.638  -2.753  1.00  0.00     0.068 A 
HETATM   14  C   UNL     1      41.216 -13.339  -2.396  1.00  0.00     0.037 A 
HETATM   15  C   UNL     1      41.625 -13.054  -1.087  1.00  0.00     0.012 A 
BRANCH  13  16
HETATM   16  O   UNL     1      40.442 -15.049  -3.988  1.00  0.00    -0.356 OA
HETATM   17  C   UNL     1      39.212 -15.761  -4.042  1.00  0.00     0.210 C 
ENDBRANCH  13  16
ENDBRANCH   7  10
ENDBRANCH   5   7
ENDBRANCH   2   5
BRANCH   1  18
HETATM   18  C   UNL     1      41.968 -17.399   4.073  1.00  0.00     0.105 A 
HETATM   19  C   UNL     1      41.902 -17.481   5.489  1.00  0.00     0.071 A 
HETATM   20  C   UNL     1      41.041 -16.688   6.406  1.00  0.00     0.073 C 
HETATM   21  N   UNL     1      42.738 -18.399   5.987  1.00  0.00    -0.170 NA
HETATM   22  N   UNL     1      43.350 -18.932   4.908  1.00  0.00    -0.225 N 
HETATM   23  C   UNL     1      42.919 -18.341   3.716  1.00  0.00     0.168 A 
HETATM   24  C   UNL     1      44.298 -19.948   4.888  1.00  0.00     0.122 A 
HETATM   25  N   UNL     1      43.414 -18.725   2.491  1.00  0.00    -0.240 NA
HETATM   26  C   UNL     1      44.297 -19.680   2.516  1.00  0.00     0.120 A 
HETATM   27  C   UNL     1      44.813 -20.374   3.727  1.00  0.00     0.038 A 
ENDBRANCH   1  18
TORSDOF 6
ENDMDL
MODEL 9
REMARK VINA RESULT:      -7.3      3.984      8.560
REMARK  6 active torsions:
REMARK  status: ('A' for Active; 'I' for Inactive)
REMARK    1  A    between atoms: C_6  and  C_7 
REMARK       I    between atoms: C_7  and  N_8 
REMARK    2  A    between atoms: N_8  and  C_9 
REMARK    3  A    between atoms: C_9  and  C_10 
REMARK    4  A    between atoms: C_10  and  O_11 
REMARK    5  A    between atoms: C_10  and  C_12 
REMARK    6  A    between atoms: C_15  and  O_16 
ROOT
HETATM    1  C   UNL     1      43.597 -16.255   5.958  1.00  0.00     0.258 C 
HETATM    2  N   UNL     1      42.543 -15.739   5.236  1.00  0.00    -0.350 N 
HETATM    3  O   UNL     1      44.215 -15.608   6.795  1.00  0.00    -0.267 OA
HETATM    4  H   UNL     1      42.044 -16.403   4.645  1.00  0.00     0.163 HD
ENDROOT
BRANCH   2   5
HETATM    5  C   UNL     1      41.972 -14.414   5.492  1.00  0.00     0.114 C 
HETATM    6  C   UNL     1      42.668 -13.361   4.620  1.00  0.00     0.035 C 
BRANCH   5   7
HETATM    7  C   UNL     1      40.431 -14.452   5.262  1.00  0.00     0.173 C 
BRANCH   7   8
HETATM    8  O   UNL     1      39.848 -15.613   5.866  1.00  0.00    -0.389 OA
HETATM    9  H   UNL     1      39.005 -15.331   6.263  1.00  0.00     0.210 HD
ENDBRANCH   7   8
BRANCH   7  10
HETATM   10  C   UNL     1      40.049 -14.362   3.799  1.00  0.00    -0.028 A 
HETATM   11  C   UNL     1      39.495 -13.174   3.302  1.00  0.00     0.012 A 
HETATM   12  C   UNL     1      39.160 -13.056   1.951  1.00  0.00     0.037 A 
HETATM   13  C   UNL     1      39.380 -14.114   1.067  1.00  0.00     0.068 A 
HETATM   14  C   UNL     1      39.922 -15.302   1.552  1.00  0.00     0.037 A 
HETATM   15  C   UNL     1      40.253 -15.425   2.908  1.00  0.00     0.012 A 
BRANCH  13  16
HETATM   16  O   UNL     1      39.019 -13.861  -0.228  1.00  0.00    -0.356 OA
HETATM   17  C   UNL     1      39.934 -14.270  -1.236  1.00  0.00     0.210 C 
ENDBRANCH  13  16
ENDBRANCH   7  10
ENDBRANCH   5   7
ENDBRANCH   2   5
BRANCH   1  18
HETATM   18  C   UNL     1      43.907 -17.644   5.665  1.00  0.00     0.105 A 
HETATM   19  C   UNL     1      44.150 -18.700   6.584  1.00  0.00     0.071 A 
HETATM   20  C   UNL     1      44.162 -18.626   8.069  1.00  0.00     0.073 C 
HETATM   21  N   UNL     1      44.389 -19.865   5.972  1.00  0.00    -0.170 NA
HETATM   22  N   UNL     1      44.294 -19.590   4.653  1.00  0.00    -0.225 N 
HETATM   23  C   UNL     1      44.014 -18.240   4.419  1.00  0.00     0.168 A 
HETATM   24  C   UNL     1      44.438 -20.475   3.591  1.00  0.00     0.122 A 
HETATM   25  N   UNL     1      43.878 -17.734   3.146  1.00  0.00    -0.240 NA
HETATM   26  C   UNL     1      44.018 -18.595   2.181  1.00  0.00     0.120 A 
HETATM   27  C   UNL     1      44.310 -20.047   2.328  1.00  0.00     0.038 A 
ENDBRANCH   1  18
TORSDOF 6
ENDMDL
MODEL 10
REMARK VINA RESULT:      -7.2      4.069      8.525
REMARK  6 active torsions:
REMARK  status: ('A' for Active; 'I' for Inactive)
REMARK    1  A    between atoms: C_6  and  C_7 
REMARK       I    between atoms: C_7  and  N_8 
REMARK    2  A    between atoms: N_8  and  C_9 
REMARK    3  A    between atoms: C_9  and  C_10 
REMARK    4  A    between atoms: C_10  and  O_11 
REMARK    5  A    between atoms: C_10  and  C_12 
REMARK    6  A    between atoms: C_15  and  O_16 
ROOT
HETATM    1  C   UNL     1      42.490 -17.204   4.835  1.00  0.00     0.258 C 
HETATM    2  N   UNL     1      43.205 -16.034   4.710  1.00  0.00    -0.350 N 
HETATM    3  O   UNL     1      41.267 -17.238   4.915  1.00  0.00    -0.267 OA
HETATM    4  H   UNL     1      44.205 -16.141   4.549  1.00  0.00     0.163 HD
ENDROOT
BRANCH   2   5
HETATM    5  C   UNL     1      42.570 -14.726   4.525  1.00  0.00     0.114 C 
HETATM    6  C   UNL     1      43.120 -13.723   5.546  1.00  0.00     0.035 C 
BRANCH   5   7
HETATM    7  C   UNL     1      42.769 -14.248   3.055  1.00  0.00     0.173 C 
BRANCH   7   8
HETATM    8  O   UNL     1      43.417 -12.971   3.011  1.00  0.00    -0.389 OA
HETATM    9  H   UNL     1      43.662 -12.747   3.926  1.00  0.00     0.210 HD
ENDBRANCH   7   8
BRANCH   7  10
HETATM   10  C   UNL     1      41.478 -14.221   2.263  1.00  0.00    -0.028 A 
HETATM   11  C   UNL     1      41.517 -13.943   0.889  1.00  0.00     0.012 A 
HETATM   12  C   UNL     1      40.344 -13.940   0.130  1.00  0.00     0.037 A 
HETATM   13  C   UNL     1      39.112 -14.222   0.722  1.00  0.00     0.068 A 
HETATM   14  C   UNL     1      39.061 -14.491   2.088  1.00  0.00     0.037 A 
HETATM   15  C   UNL     1      40.235 -14.489   2.852  1.00  0.00     0.012 A 
BRANCH  13  16
HETATM   16  O   UNL     1      38.047 -14.197  -0.135  1.00  0.00    -0.356 OA
HETATM   17  C   UNL     1      38.305 -13.759  -1.462  1.00  0.00     0.210 C 
ENDBRANCH  13  16
ENDBRANCH   7  10
ENDBRANCH   5   7
ENDBRANCH   2   5
BRANCH   1  18
HETATM   18  C   UNL     1      43.302 -18.410   4.842  1.00  0.00     0.105 A 
HETATM   19  C   UNL     1      44.034 -18.965   5.925  1.00  0.00     0.071 A 
HETATM   20  C   UNL     1      44.156 -18.432   7.308  1.00  0.00     0.073 C 
HETATM   21  N   UNL     1      44.662 -20.098   5.590  1.00  0.00    -0.170 NA
HETATM   22  N   UNL     1      44.341 -20.301   4.294  1.00  0.00    -0.225 N 
HETATM   23  C   UNL     1      43.522 -19.286   3.792  1.00  0.00     0.168 A 
HETATM   24  C   UNL     1      44.727 -21.363   3.483  1.00  0.00     0.122 A 
HETATM   25  N   UNL     1      43.075 -19.287   2.490  1.00  0.00    -0.240 NA
HETATM   26  C   UNL     1      43.457 -20.297   1.765  1.00  0.00     0.120 A 
HETATM   27  C   UNL     1      44.320 -21.426   2.209  1.00  0.00     0.038 A 
ENDBRANCH   1  18
TORSDOF 6
ENDMDL
