MODEL 1
REMARK VINA RESULT:      -8.4      0.000      0.000
REMARK  4 active torsions:
REMARK  status: ('A' for Active; 'I' for Inactive)
REMARK    1  A    between atoms: N_8  and  C_10 
REMARK    2  A    between atoms: C_10  and  C_11 
REMARK    3  A    between atoms: C_14  and  C_15 
REMARK    4  A    between atoms: C_22  and  C_23 
ROOT
HETATM    1  C   UNL     1      43.622 -17.715   1.045  1.00  0.00     0.269 C 
HETATM    2  N   UNL     1      42.965 -16.963   2.185  1.00  0.00    -0.073 N 
HETATM    3  H   UNL     1      43.008 -15.972   1.915  1.00  0.00     0.279 HD
HETATM    4  C   UNL     1      43.719 -17.151   3.473  1.00  0.00     0.244 C 
HETATM    5  C   UNL     1      43.118 -16.291   4.617  1.00  0.00    -0.013 C 
HETATM    6  C   UNL     1      43.805 -16.722   5.947  1.00  0.00     0.039 C 
HETATM    7  C   UNL     1      43.461 -15.838   7.146  1.00  0.00     0.236 C 
HETATM    8  N   UNL     1      43.756 -14.394   6.844  1.00  0.00    -0.064 N 
HETATM    9  H   UNL     1      43.347 -13.871   7.638  1.00  0.00     0.280 HD
HETATM   10  C   UNL     1      43.086 -13.895   5.599  1.00  0.00     0.236 C 
HETATM   11  C   UNL     1      43.445 -14.786   4.406  1.00  0.00     0.039 C 
HETATM   12  C   UNL     1      41.591 -16.585   4.707  1.00  0.00     0.022 C 
HETATM   13  C   UNL     1      40.798 -16.495   3.375  1.00  0.00     0.045 C 
HETATM   14  C   UNL     1      41.502 -17.353   2.306  1.00  0.00     0.243 C 
ENDROOT
BRANCH  13  15
HETATM   15  C   UNL     1      40.441 -15.064   2.984  1.00  0.00    -0.052 A 
HETATM   16  C   UNL     1      40.576 -14.548   1.685  1.00  0.00     0.007 A 
HETATM   17  C   UNL     1      40.230 -13.224   1.395  1.00  0.00     0.001 A 
HETATM   18  C   UNL     1      39.717 -12.397   2.389  1.00  0.00     0.000 A 
HETATM   19  C   UNL     1      39.528 -12.900   3.671  1.00  0.00     0.001 A 
HETATM   20  C   UNL     1      39.874 -14.220   3.961  1.00  0.00     0.007 A 
ENDBRANCH  13  15
BRANCH   8  21
HETATM   21  C   UNL     1      45.239 -14.005   6.963  1.00  0.00     0.317 C 
BRANCH  21  22
HETATM   22  C   UNL     1      45.472 -12.871   7.900  1.00  0.00     0.181 A 
HETATM   23  N   UNL     1      46.358 -11.904   7.661  1.00  0.00    -0.109 NA
HETATM   24  O   UNL     1      46.272 -11.113   8.811  1.00  0.00    -0.196 OA
HETATM   25  C   UNL     1      45.360 -11.713   9.640  1.00  0.00     0.177 A 
HETATM   26  N   UNL     1      44.860 -12.824   9.126  1.00  0.00    -0.207 NA
BRANCH  25  27
HETATM   27  C   UNL     1      44.998 -11.149  11.004  1.00  0.00     0.065 A 
HETATM   28  C   UNL     1      43.897 -10.111  11.093  1.00  0.00     0.013 A 
HETATM   29  C   UNL     1      43.645 -11.489  11.598  1.00  0.00     0.013 A 
ENDBRANCH  25  27
ENDBRANCH  21  22
ENDBRANCH   8  21
TORSDOF 4
ENDMDL
MODEL 2
REMARK VINA RESULT:      -8.3      3.998      8.962
REMARK  4 active torsions:
REMARK  status: ('A' for Active; 'I' for Inactive)
REMARK    1  A    between atoms: N_8  and  C_10 
REMARK    2  A    between atoms: C_10  and  C_11 
REMARK    3  A    between atoms: C_14  and  C_15 
REMARK    4  A    between atoms: C_22  and  C_23 
ROOT
HETATM    1  C   UNL     1      44.351 -15.165   7.029  1.00  0.00     0.269 C 
HETATM    2  N   UNL     1      43.616 -15.914   5.936  1.00  0.00    -0.073 N 
HETATM    3  H   UNL     1      44.347 -16.226   5.284  1.00  0.00     0.279 HD
HETATM    4  C   UNL     1      42.660 -15.014   5.201  1.00  0.00     0.244 C 
HETATM    5  C   UNL     1      41.991 -15.746   4.006  1.00  0.00    -0.013 C 
HETATM    6  C   UNL     1      40.861 -14.825   3.458  1.00  0.00     0.039 C 
HETATM    7  C   UNL     1      40.226 -15.317   2.156  1.00  0.00     0.236 C 
HETATM    8  N   UNL     1      41.278 -15.545   1.106  1.00  0.00    -0.064 N 
HETATM    9  H   UNL     1      40.779 -16.021   0.333  1.00  0.00     0.280 HD
HETATM   10  C   UNL     1      42.377 -16.464   1.548  1.00  0.00     0.236 C 
HETATM   11  C   UNL     1      43.007 -15.955   2.848  1.00  0.00     0.039 C 
HETATM   12  C   UNL     1      41.366 -17.074   4.527  1.00  0.00     0.022 C 
HETATM   13  C   UNL     1      42.299 -17.982   5.374  1.00  0.00     0.045 C 
HETATM   14  C   UNL     1      42.934 -17.147   6.502  1.00  0.00     0.243 C 
ENDROOT
BRANCH  13  15
HETATM   15  C   UNL     1      43.245 -18.827   4.525  1.00  0.00    -0.052 A 
HETATM   16  C   UNL     1      44.467 -19.343   4.989  1.00  0.00     0.007 A 
HETATM   17  C   UNL     1      45.288 -20.110   4.156  1.00  0.00     0.001 A 
HETATM   18  C   UNL     1      44.894 -20.402   2.855  1.00  0.00     0.000 A 
HETATM   19  C   UNL     1      43.667 -19.944   2.389  1.00  0.00     0.001 A 
HETATM   20  C   UNL     1      42.848 -19.177   3.219  1.00  0.00     0.007 A 
ENDBRANCH  13  15
BRANCH   8  21
HETATM   21  C   UNL     1      41.767 -14.269   0.402  1.00  0.00     0.317 C 
BRANCH  21  22
HETATM   22  C   UNL     1      41.022 -13.971  -0.853  1.00  0.00     0.181 A 
HETATM   23  N   UNL     1      40.559 -12.757  -1.151  1.00  0.00    -0.109 NA
HETATM   24  O   UNL     1      39.896 -12.965  -2.364  1.00  0.00    -0.196 OA
HETATM   25  C   UNL     1      40.004 -14.301  -2.653  1.00  0.00     0.177 A 
HETATM   26  N   UNL     1      40.669 -14.969  -1.726  1.00  0.00    -0.207 NA
BRANCH  25  27
HETATM   27  C   UNL     1      39.397 -14.922  -3.900  1.00  0.00     0.065 A 
HETATM   28  C   UNL     1      39.087 -16.406  -3.898  1.00  0.00     0.013 A 
HETATM   29  C   UNL     1      37.968 -15.424  -3.843  1.00  0.00     0.013 A 
ENDBRANCH  25  27
ENDBRANCH  21  22
ENDBRANCH   8  21
TORSDOF 4
ENDMDL
MODEL 3
REMARK VINA RESULT:      -8.0      5.248      7.955
REMARK  4 active torsions:
REMARK  status: ('A' for Active; 'I' for Inactive)
REMARK    1  A    between atoms: N_8  and  C_10 
REMARK    2  A    between atoms: C_10  and  C_11 
REMARK    3  A    between atoms: C_14  and  C_15 
REMARK    4  A    between atoms: C_22  and  C_23 
ROOT
HETATM    1  C   UNL     1      36.820 -11.749   0.804  1.00  0.00     0.269 C 
HETATM    2  N   UNL     1      38.091 -12.462   0.389  1.00  0.00    -0.073 N 
HETATM    3  H   UNL     1      37.784 -13.373   0.025  1.00  0.00     0.279 HD
HETATM    4  C   UNL     1      39.003 -12.689   1.565  1.00  0.00     0.244 C 
HETATM    5  C   UNL     1      40.251 -13.521   1.167  1.00  0.00    -0.013 C 
HETATM    6  C   UNL     1      41.237 -13.504   2.373  1.00  0.00     0.039 C 
HETATM    7  C   UNL     1      42.438 -14.437   2.215  1.00  0.00     0.236 C 
HETATM    8  N   UNL     1      41.985 -15.841   1.922  1.00  0.00    -0.064 N 
HETATM    9  H   UNL     1      42.853 -16.351   1.677  1.00  0.00     0.280 HD
HETATM   10  C   UNL     1      41.070 -15.940   0.739  1.00  0.00     0.236 C 
HETATM   11  C   UNL     1      39.869 -15.006   0.915  1.00  0.00     0.039 C 
HETATM   12  C   UNL     1      40.928 -12.840  -0.060  1.00  0.00     0.022 C 
HETATM   13  C   UNL     1      39.995 -12.503  -1.255  1.00  0.00     0.045 C 
HETATM   14  C   UNL     1      38.777 -11.713  -0.741  1.00  0.00     0.243 C 
ENDROOT
BRANCH  13  15
HETATM   15  C   UNL     1      39.710 -13.704  -2.151  1.00  0.00    -0.052 A 
HETATM   16  C   UNL     1      38.444 -14.006  -2.681  1.00  0.00     0.007 A 
HETATM   17  C   UNL     1      38.252 -15.126  -3.496  1.00  0.00     0.001 A 
HETATM   18  C   UNL     1      39.323 -15.951  -3.822  1.00  0.00     0.000 A 
HETATM   19  C   UNL     1      40.594 -15.646  -3.351  1.00  0.00     0.001 A 
HETATM   20  C   UNL     1      40.786 -14.529  -2.536  1.00  0.00     0.007 A 
ENDBRANCH  13  15
BRANCH   8  21
HETATM   21  C   UNL     1      41.515 -16.632   3.153  1.00  0.00     0.317 C 
BRANCH  21  22
HETATM   22  C   UNL     1      42.353 -17.831   3.434  1.00  0.00     0.181 A 
HETATM   23  N   UNL     1      42.667 -18.222   4.669  1.00  0.00    -0.109 NA
HETATM   24  O   UNL     1      43.493 -19.328   4.444  1.00  0.00    -0.196 OA
HETATM   25  C   UNL     1      43.615 -19.464   3.085  1.00  0.00     0.177 A 
HETATM   26  N   UNL     1      42.948 -18.536   2.420  1.00  0.00    -0.207 NA
BRANCH  25  27
HETATM   27  C   UNL     1      44.451 -20.559   2.443  1.00  0.00     0.065 A 
HETATM   28  C   UNL     1      44.428 -21.945   3.055  1.00  0.00     0.013 A 
HETATM   29  C   UNL     1      43.742 -21.708   1.754  1.00  0.00     0.013 A 
ENDBRANCH  25  27
ENDBRANCH  21  22
ENDBRANCH   8  21
TORSDOF 4
ENDMDL
MODEL 4
REMARK VINA RESULT:      -7.6      4.961      7.052
REMARK  4 active torsions:
REMARK  status: ('A' for Active; 'I' for Inactive)
REMARK    1  A    between atoms: N_8  and  C_10 
REMARK    2  A    between atoms: C_10  and  C_11 
REMARK    3  A    between atoms: C_14  and  C_15 
REMARK    4  A    between atoms: C_22  and  C_23 
ROOT
HETATM    1  C   UNL     1      40.750 -13.535  -2.829  1.00  0.00     0.269 C 
HETATM    2  N   UNL     1      40.410 -13.689  -1.361  1.00  0.00    -0.073 N 
HETATM    3  H   UNL     1      40.901 -12.919  -0.888  1.00  0.00     0.279 HD
HETATM    4  C   UNL     1      40.913 -14.997  -0.814  1.00  0.00     0.244 C 
HETATM    5  C   UNL     1      40.670 -15.108   0.715  1.00  0.00    -0.013 C 
HETATM    6  C   UNL     1      41.004 -16.568   1.144  1.00  0.00     0.039 C 
HETATM    7  C   UNL     1      40.998 -16.795   2.656  1.00  0.00     0.236 C 
HETATM    8  N   UNL     1      41.916 -15.820   3.343  1.00  0.00    -0.064 N 
HETATM    9  H   UNL     1      41.723 -15.945   4.352  1.00  0.00     0.280 HD
HETATM   10  C   UNL     1      41.621 -14.388   3.014  1.00  0.00     0.236 C 
HETATM   11  C   UNL     1      41.637 -14.175   1.497  1.00  0.00     0.039 C 
HETATM   12  C   UNL     1      39.166 -14.819   0.999  1.00  0.00     0.022 C 
HETATM   13  C   UNL     1      38.589 -13.523   0.367  1.00  0.00     0.045 C 
HETATM   14  C   UNL     1      38.919 -13.500  -1.137  1.00  0.00     0.243 C 
ENDROOT
BRANCH  13  15
HETATM   15  C   UNL     1      38.923 -12.266   1.165  1.00  0.00    -0.052 A 
HETATM   16  C   UNL     1      39.432 -11.087   0.596  1.00  0.00     0.007 A 
HETATM   17  C   UNL     1      39.718  -9.969   1.387  1.00  0.00     0.001 A 
HETATM   18  C   UNL     1      39.475  -9.996   2.756  1.00  0.00     0.000 A 
HETATM   19  C   UNL     1      38.924 -11.133   3.335  1.00  0.00     0.001 A 
HETATM   20  C   UNL     1      38.641 -12.249   2.546  1.00  0.00     0.007 A 
ENDBRANCH  13  15
BRANCH   8  21
HETATM   21  C   UNL     1      43.407 -16.190   3.278  1.00  0.00     0.317 C 
BRANCH  21  22
HETATM   22  C   UNL     1      43.659 -17.643   3.485  1.00  0.00     0.181 A 
HETATM   23  N   UNL     1      43.548 -18.235   4.674  1.00  0.00    -0.109 NA
HETATM   24  O   UNL     1      43.925 -19.554   4.402  1.00  0.00    -0.196 OA
HETATM   25  C   UNL     1      44.257 -19.606   3.072  1.00  0.00     0.177 A 
HETATM   26  N   UNL     1      44.135 -18.435   2.472  1.00  0.00    -0.207 NA
BRANCH  25  27
HETATM   27  C   UNL     1      44.729 -20.882   2.396  1.00  0.00     0.065 A 
HETATM   28  C   UNL     1      44.357 -22.215   3.014  1.00  0.00     0.013 A 
HETATM   29  C   UNL     1      43.701 -21.788   1.746  1.00  0.00     0.013 A 
ENDBRANCH  25  27
ENDBRANCH  21  22
ENDBRANCH   8  21
TORSDOF 4
ENDMDL
MODEL 5
REMARK VINA RESULT:      -7.5      5.081      7.918
REMARK  4 active torsions:
REMARK  status: ('A' for Active; 'I' for Inactive)
REMARK    1  A    between atoms: N_8  and  C_10 
REMARK    2  A    between atoms: C_10  and  C_11 
REMARK    3  A    between atoms: C_14  and  C_15 
REMARK    4  A    between atoms: C_22  and  C_23 
ROOT
HETATM    1  C   UNL     1      36.610 -12.023   0.442  1.00  0.00     0.269 C 
HETATM    2  N   UNL     1      38.095 -12.320   0.471  1.00  0.00    -0.073 N 
HETATM    3  H   UNL     1      38.264 -12.929  -0.340  1.00  0.00     0.279 HD
HETATM    4  C   UNL     1      38.483 -13.057   1.724  1.00  0.00     0.244 C 
HETATM    5  C   UNL     1      39.981 -13.466   1.705  1.00  0.00    -0.013 C 
HETATM    6  C   UNL     1      40.344 -14.006   3.120  1.00  0.00     0.039 C 
HETATM    7  C   UNL     1      41.737 -14.629   3.216  1.00  0.00     0.236 C 
HETATM    8  N   UNL     1      41.910 -15.705   2.180  1.00  0.00    -0.064 N 
HETATM    9  H   UNL     1      42.916 -15.947   2.218  1.00  0.00     0.280 HD
HETATM   10  C   UNL     1      41.624 -15.242   0.783  1.00  0.00     0.236 C 
HETATM   11  C   UNL     1      40.224 -14.627   0.701  1.00  0.00     0.039 C 
HETATM   12  C   UNL     1      40.835 -12.199   1.403  1.00  0.00     0.022 C 
HETATM   13  C   UNL     1      40.401 -11.360   0.171  1.00  0.00     0.045 C 
HETATM   14  C   UNL     1      38.896 -11.045   0.275  1.00  0.00     0.243 C 
ENDROOT
BRANCH  13  15
HETATM   15  C   UNL     1      40.893 -11.937  -1.153  1.00  0.00    -0.052 A 
HETATM   16  C   UNL     1      40.077 -12.125  -2.281  1.00  0.00     0.007 A 
HETATM   17  C   UNL     1      40.594 -12.662  -3.464  1.00  0.00     0.001 A 
HETATM   18  C   UNL     1      41.941 -12.996  -3.555  1.00  0.00     0.000 A 
HETATM   19  C   UNL     1      42.779 -12.774  -2.470  1.00  0.00     0.001 A 
HETATM   20  C   UNL     1      42.264 -12.240  -1.288  1.00  0.00     0.007 A 
ENDBRANCH  13  15
BRANCH   8  21
HETATM   21  C   UNL     1      41.266 -17.053   2.543  1.00  0.00     0.317 C 
BRANCH  21  22
HETATM   22  C   UNL     1      42.256 -18.071   2.995  1.00  0.00     0.181 A 
HETATM   23  N   UNL     1      42.679 -18.161   4.256  1.00  0.00    -0.109 NA
HETATM   24  O   UNL     1      43.618 -19.195   4.196  1.00  0.00    -0.196 OA
HETATM   25  C   UNL     1      43.684 -19.597   2.887  1.00  0.00     0.177 A 
HETATM   26  N   UNL     1      42.877 -18.905   2.101  1.00  0.00    -0.207 NA
BRANCH  25  27
HETATM   27  C   UNL     1      44.610 -20.707   2.418  1.00  0.00     0.065 A 
HETATM   28  C   UNL     1      44.450 -22.090   3.016  1.00  0.00     0.013 A 
HETATM   29  C   UNL     1      44.028 -21.849   1.608  1.00  0.00     0.013 A 
ENDBRANCH  25  27
ENDBRANCH  21  22
ENDBRANCH   8  21
TORSDOF 4
ENDMDL
MODEL 6
REMARK VINA RESULT:      -7.5      1.689      2.557
REMARK  4 active torsions:
REMARK  status: ('A' for Active; 'I' for Inactive)
REMARK    1  A    between atoms: N_8  and  C_10 
REMARK    2  A    between atoms: C_10  and  C_11 
REMARK    3  A    between atoms: C_14  and  C_15 
REMARK    4  A    between atoms: C_22  and  C_23 
ROOT
HETATM    1  C   UNL     1      41.731 -13.884  -0.094  1.00  0.00     0.269 C 
HETATM    2  N   UNL     1      41.349 -13.739   1.365  1.00  0.00    -0.073 N 
HETATM    3  H   UNL     1      41.700 -12.814   1.645  1.00  0.00     0.279 HD
HETATM    4  C   UNL     1      42.012 -14.790   2.213  1.00  0.00     0.244 C 
HETATM    5  C   UNL     1      41.718 -14.575   3.722  1.00  0.00    -0.013 C 
HETATM    6  C   UNL     1      42.241 -15.825   4.491  1.00  0.00     0.039 C 
HETATM    7  C   UNL     1      42.198 -15.689   6.013  1.00  0.00     0.236 C 
HETATM    8  N   UNL     1      42.931 -14.452   6.456  1.00  0.00    -0.064 N 
HETATM    9  H   UNL     1      42.711 -14.364   7.465  1.00  0.00     0.280 HD
HETATM   10  C   UNL     1      42.446 -13.199   5.792  1.00  0.00     0.236 C 
HETATM   11  C   UNL     1      42.500 -13.348   4.268  1.00  0.00     0.039 C 
HETATM   12  C   UNL     1      40.176 -14.460   3.914  1.00  0.00     0.022 C 
HETATM   13  C   UNL     1      39.445 -13.453   2.985  1.00  0.00     0.045 C 
HETATM   14  C   UNL     1      39.838 -13.733   1.522  1.00  0.00     0.243 C 
ENDROOT
BRANCH  13  15
HETATM   15  C   UNL     1      39.555 -12.007   3.462  1.00  0.00    -0.052 A 
HETATM   16  C   UNL     1      39.955 -10.938   2.645  1.00  0.00     0.007 A 
HETATM   17  C   UNL     1      40.035  -9.635   3.148  1.00  0.00     0.001 A 
HETATM   18  C   UNL     1      39.691  -9.370   4.469  1.00  0.00     0.000 A 
HETATM   19  C   UNL     1      39.244 -10.402   5.284  1.00  0.00     0.001 A 
HETATM   20  C   UNL     1      39.166 -11.702   4.783  1.00  0.00     0.007 A 
ENDBRANCH  13  15
BRANCH   8  21
HETATM   21  C   UNL     1      44.461 -14.594   6.497  1.00  0.00     0.317 C 
BRANCH  21  22
HETATM   22  C   UNL     1      45.120 -13.579   7.366  1.00  0.00     0.181 A 
HETATM   23  N   UNL     1      46.232 -12.935   7.012  1.00  0.00    -0.109 NA
HETATM   24  O   UNL     1      46.504 -12.146   8.134  1.00  0.00    -0.196 OA
HETATM   25  C   UNL     1      45.536 -12.427   9.063  1.00  0.00     0.177 A 
HETATM   26  N   UNL     1      44.673 -13.335   8.639  1.00  0.00    -0.207 NA
BRANCH  25  27
HETATM   27  C   UNL     1      45.497 -11.767  10.431  1.00  0.00     0.065 A 
HETATM   28  C   UNL     1      44.577 -10.582  10.642  1.00  0.00     0.013 A 
HETATM   29  C   UNL     1      44.238 -11.891  11.266  1.00  0.00     0.013 A 
ENDBRANCH  25  27
ENDBRANCH  21  22
ENDBRANCH   8  21
TORSDOF 4
ENDMDL
MODEL 7
REMARK VINA RESULT:      -7.4      4.272      7.320
REMARK  4 active torsions:
REMARK  status: ('A' for Active; 'I' for Inactive)
REMARK    1  A    between atoms: N_8  and  C_10 
REMARK    2  A    between atoms: C_10  and  C_11 
REMARK    3  A    between atoms: C_14  and  C_15 
REMARK    4  A    between atoms: C_22  and  C_23 
ROOT
HETATM    1  C   UNL     1      39.905 -10.571   5.613  1.00  0.00     0.269 C 
HETATM    2  N   UNL     1      40.270 -11.460   4.442  1.00  0.00    -0.073 N 
HETATM    3  H   UNL     1      39.407 -11.969   4.211  1.00  0.00     0.279 HD
HETATM    4  C   UNL     1      41.336 -12.454   4.818  1.00  0.00     0.244 C 
HETATM    5  C   UNL     1      41.629 -13.442   3.657  1.00  0.00    -0.013 C 
HETATM    6  C   UNL     1      42.890 -14.270   4.047  1.00  0.00     0.039 C 
HETATM    7  C   UNL     1      43.203 -15.423   3.092  1.00  0.00     0.236 C 
HETATM    8  N   UNL     1      42.008 -16.323   2.937  1.00  0.00    -0.064 N 
HETATM    9  H   UNL     1      42.261 -16.965   2.165  1.00  0.00     0.280 HD
HETATM   10  C   UNL     1      40.764 -15.600   2.515  1.00  0.00     0.236 C 
HETATM   11  C   UNL     1      40.461 -14.452   3.484  1.00  0.00     0.039 C 
HETATM   12  C   UNL     1      41.931 -12.618   2.370  1.00  0.00     0.022 C 
HETATM   13  C   UNL     1      40.899 -11.517   2.007  1.00  0.00     0.045 C 
HETATM   14  C   UNL     1      40.657 -10.621   3.236  1.00  0.00     0.243 C 
ENDROOT
BRANCH  13  15
HETATM   15  C   UNL     1      39.662 -12.063   1.298  1.00  0.00    -0.052 A 
HETATM   16  C   UNL     1      38.345 -11.712   1.635  1.00  0.00     0.007 A 
HETATM   17  C   UNL     1      37.255 -12.252   0.944  1.00  0.00     0.001 A 
HETATM   18  C   UNL     1      37.459 -13.131  -0.114  1.00  0.00     0.000 A 
HETATM   19  C   UNL     1      38.755 -13.455  -0.499  1.00  0.00     0.001 A 
HETATM   20  C   UNL     1      39.842 -12.917   0.191  1.00  0.00     0.007 A 
ENDBRANCH  13  15
BRANCH   8  21
HETATM   21  C   UNL     1      41.799 -17.316   4.093  1.00  0.00     0.317 C 
BRANCH  21  22
HETATM   22  C   UNL     1      42.801 -18.419   4.104  1.00  0.00     0.181 A 
HETATM   23  N   UNL     1      43.517 -18.737   5.182  1.00  0.00    -0.109 NA
HETATM   24  O   UNL     1      44.342 -19.765   4.716  1.00  0.00    -0.196 OA
HETATM   25  C   UNL     1      44.054 -19.934   3.387  1.00  0.00     0.177 A 
HETATM   26  N   UNL     1      43.124 -19.098   2.957  1.00  0.00    -0.207 NA
BRANCH  25  27
HETATM   27  C   UNL     1      44.758 -20.966   2.521  1.00  0.00     0.065 A 
HETATM   28  C   UNL     1      44.571 -22.435   2.841  1.00  0.00     0.013 A 
HETATM   29  C   UNL     1      43.923 -21.862   1.628  1.00  0.00     0.013 A 
ENDBRANCH  25  27
ENDBRANCH  21  22
ENDBRANCH   8  21
TORSDOF 4
ENDMDL
MODEL 8
REMARK VINA RESULT:      -7.2      3.255      5.174
REMARK  4 active torsions:
REMARK  status: ('A' for Active; 'I' for Inactive)
REMARK    1  A    between atoms: N_8  and  C_10 
REMARK    2  A    between atoms: C_10  and  C_11 
REMARK    3  A    between atoms: C_14  and  C_15 
REMARK    4  A    between atoms: C_22  and  C_23 
ROOT
HETATM    1  C   UNL     1      40.910 -17.776   0.993  1.00  0.00     0.269 C 
HETATM    2  N   UNL     1      41.567 -17.107   2.182  1.00  0.00    -0.073 N 
HETATM    3  H   UNL     1      41.268 -17.655   2.999  1.00  0.00     0.279 HD
HETATM    4  C   UNL     1      41.093 -15.689   2.347  1.00  0.00     0.244 C 
HETATM    5  C   UNL     1      41.675 -15.038   3.630  1.00  0.00    -0.013 C 
HETATM    6  C   UNL     1      41.324 -13.520   3.593  1.00  0.00     0.039 C 
HETATM    7  C   UNL     1      41.662 -12.767   4.880  1.00  0.00     0.236 C 
HETATM    8  N   UNL     1      41.018 -13.428   6.068  1.00  0.00    -0.064 N 
HETATM    9  H   UNL     1      41.429 -12.951   6.890  1.00  0.00     0.280 HD
HETATM   10  C   UNL     1      41.351 -14.884   6.195  1.00  0.00     0.236 C 
HETATM   11  C   UNL     1      41.001 -15.626   4.902  1.00  0.00     0.039 C 
HETATM   12  C   UNL     1      43.223 -15.210   3.615  1.00  0.00     0.022 C 
HETATM   13  C   UNL     1      43.748 -16.647   3.350  1.00  0.00     0.045 C 
HETATM   14  C   UNL     1      43.080 -17.207   2.080  1.00  0.00     0.243 C 
ENDROOT
BRANCH  13  15
HETATM   15  C   UNL     1      43.719 -17.535   4.592  1.00  0.00    -0.052 A 
HETATM   16  C   UNL     1      43.360 -18.892   4.578  1.00  0.00     0.007 A 
HETATM   17  C   UNL     1      43.353 -19.648   5.755  1.00  0.00     0.001 A 
HETATM   18  C   UNL     1      43.732 -19.072   6.963  1.00  0.00     0.000 A 
HETATM   19  C   UNL     1      44.139 -17.744   6.994  1.00  0.00     0.001 A 
HETATM   20  C   UNL     1      44.144 -16.989   5.820  1.00  0.00     0.007 A 
ENDBRANCH  13  15
BRANCH   8  21
HETATM   21  C   UNL     1      39.526 -13.103   6.251  1.00  0.00     0.317 C 
BRANCH  21  22
HETATM   22  C   UNL     1      39.291 -11.831   6.990  1.00  0.00     0.181 A 
HETATM   23  N   UNL     1      39.096 -10.663   6.378  1.00  0.00    -0.109 NA
HETATM   24  O   UNL     1      38.980  -9.768   7.446  1.00  0.00    -0.196 OA
HETATM   25  C   UNL     1      39.153 -10.495   8.595  1.00  0.00     0.177 A 
HETATM   26  N   UNL     1      39.380 -11.776   8.357  1.00  0.00    -0.207 NA
BRANCH  25  27
HETATM   27  C   UNL     1      39.105  -9.866   9.978  1.00  0.00     0.065 A 
HETATM   28  C   UNL     1      39.969 -10.455  11.075  1.00  0.00     0.013 A 
HETATM   29  C   UNL     1      40.331  -9.134  10.489  1.00  0.00     0.013 A 
ENDBRANCH  25  27
ENDBRANCH  21  22
ENDBRANCH   8  21
TORSDOF 4
ENDMDL
MODEL 9
REMARK VINA RESULT:      -7.2      4.763      7.272
REMARK  4 active torsions:
REMARK  status: ('A' for Active; 'I' for Inactive)
REMARK    1  A    between atoms: N_8  and  C_10 
REMARK    2  A    between atoms: C_10  and  C_11 
REMARK    3  A    between atoms: C_14  and  C_15 
REMARK    4  A    between atoms: C_22  and  C_23 
ROOT
HETATM    1  C   UNL     1      38.853  -9.997  -1.002  1.00  0.00     0.269 C 
HETATM    2  N   UNL     1      39.588 -11.321  -1.034  1.00  0.00    -0.073 N 
HETATM    3  H   UNL     1      38.856 -12.034  -1.148  1.00  0.00     0.279 HD
HETATM    4  C   UNL     1      40.318 -11.575   0.257  1.00  0.00     0.244 C 
HETATM    5  C   UNL     1      40.977 -12.980   0.274  1.00  0.00    -0.013 C 
HETATM    6  C   UNL     1      41.893 -13.061   1.531  1.00  0.00     0.039 C 
HETATM    7  C   UNL     1      42.470 -14.451   1.799  1.00  0.00     0.236 C 
HETATM    8  N   UNL     1      41.372 -15.476   1.879  1.00  0.00    -0.064 N 
HETATM    9  H   UNL     1      41.864 -16.387   1.901  1.00  0.00     0.280 HD
HETATM   10  C   UNL     1      40.477 -15.489   0.677  1.00  0.00     0.236 C 
HETATM   11  C   UNL     1      39.901 -14.092   0.426  1.00  0.00     0.039 C 
HETATM   12  C   UNL     1      41.848 -13.134  -1.009  1.00  0.00     0.022 C 
HETATM   13  C   UNL     1      41.152 -12.785  -2.353  1.00  0.00     0.045 C 
HETATM   14  C   UNL     1      40.504 -11.392  -2.243  1.00  0.00     0.243 C 
ENDROOT
BRANCH  13  15
HETATM   15  C   UNL     1      40.273 -13.914  -2.884  1.00  0.00    -0.052 A 
HETATM   16  C   UNL     1      38.944 -13.743  -3.303  1.00  0.00     0.007 A 
HETATM   17  C   UNL     1      38.193 -14.823  -3.779  1.00  0.00     0.001 A 
HETATM   18  C   UNL     1      38.763 -16.088  -3.873  1.00  0.00     0.000 A 
HETATM   19  C   UNL     1      40.092 -16.273  -3.512  1.00  0.00     0.001 A 
HETATM   20  C   UNL     1      40.840 -15.196  -3.035  1.00  0.00     0.007 A 
ENDBRANCH  13  15
BRANCH   8  21
HETATM   21  C   UNL     1      40.626 -15.511   3.223  1.00  0.00     0.317 C 
BRANCH  21  22
HETATM   22  C   UNL     1      41.342 -16.291   4.270  1.00  0.00     0.181 A 
HETATM   23  N   UNL     1      41.446 -15.882   5.535  1.00  0.00    -0.109 NA
HETATM   24  O   UNL     1      42.231 -16.880   6.121  1.00  0.00    -0.196 OA
HETATM   25  C   UNL     1      42.545 -17.773   5.129  1.00  0.00     0.177 A 
HETATM   26  N   UNL     1      42.040 -17.430   3.957  1.00  0.00    -0.207 NA
BRANCH  25  27
HETATM   27  C   UNL     1      43.402 -19.004   5.376  1.00  0.00     0.065 A 
HETATM   28  C   UNL     1      44.344 -19.466   4.282  1.00  0.00     0.013 A 
HETATM   29  C   UNL     1      44.902 -18.833   5.510  1.00  0.00     0.013 A 
ENDBRANCH  25  27
ENDBRANCH  21  22
ENDBRANCH   8  21
TORSDOF 4
ENDMDL
MODEL 10
REMARK VINA RESULT:      -7.2      4.178      7.453
REMARK  4 active torsions:
REMARK  status: ('A' for Active; 'I' for Inactive)
REMARK    1  A    between atoms: N_8  and  C_10 
REMARK    2  A    between atoms: C_10  and  C_11 
REMARK    3  A    between atoms: C_14  and  C_15 
REMARK    4  A    between atoms: C_22  and  C_23 
ROOT
HETATM    1  C   UNL     1      40.780  -9.722   0.544  1.00  0.00     0.269 C 
HETATM    2  N   UNL     1      40.442 -10.835   1.516  1.00  0.00    -0.073 N 
HETATM    3  H   UNL     1      41.060 -10.684   2.323  1.00  0.00     0.279 HD
HETATM    4  C   UNL     1      40.733 -12.188   0.924  1.00  0.00     0.244 C 
HETATM    5  C   UNL     1      40.500 -13.324   1.956  1.00  0.00    -0.013 C 
HETATM    6  C   UNL     1      40.597 -14.681   1.197  1.00  0.00     0.039 C 
HETATM    7  C   UNL     1      40.578 -15.911   2.106  1.00  0.00     0.236 C 
HETATM    8  N   UNL     1      41.653 -15.813   3.154  1.00  0.00    -0.064 N 
HETATM    9  H   UNL     1      41.459 -16.596   3.803  1.00  0.00     0.280 HD
HETATM   10  C   UNL     1      41.592 -14.550   3.958  1.00  0.00     0.236 C 
HETATM   11  C   UNL     1      41.618 -13.328   3.035  1.00  0.00     0.039 C 
HETATM   12  C   UNL     1      39.068 -13.166   2.550  1.00  0.00     0.022 C 
HETATM   13  C   UNL     1      38.701 -11.754   3.081  1.00  0.00     0.045 C 
HETATM   14  C   UNL     1      39.007 -10.707   1.994  1.00  0.00     0.243 C 
ENDROOT
BRANCH  13  15
HETATM   15  C   UNL     1      39.249 -11.478   4.479  1.00  0.00    -0.052 A 
HETATM   16  C   UNL     1      39.903 -10.290   4.844  1.00  0.00     0.007 A 
HETATM   17  C   UNL     1      40.383 -10.102   6.145  1.00  0.00     0.001 A 
HETATM   18  C   UNL     1      40.194 -11.083   7.113  1.00  0.00     0.000 A 
HETATM   19  C   UNL     1      39.506 -12.245   6.788  1.00  0.00     0.001 A 
HETATM   20  C   UNL     1      39.029 -12.434   5.490  1.00  0.00     0.007 A 
ENDBRANCH  13  15
BRANCH   8  21
HETATM   21  C   UNL     1      43.063 -16.181   2.660  1.00  0.00     0.317 C 
BRANCH  21  22
HETATM   22  C   UNL     1      43.475 -17.560   3.043  1.00  0.00     0.181 A 
HETATM   23  N   UNL     1      43.530 -17.974   4.309  1.00  0.00    -0.109 NA
HETATM   24  O   UNL     1      44.010 -19.282   4.187  1.00  0.00    -0.196 OA
HETATM   25  C   UNL     1      44.226 -19.504   2.851  1.00  0.00     0.177 A 
HETATM   26  N   UNL     1      43.936 -18.450   2.108  1.00  0.00    -0.207 NA
BRANCH  25  27
HETATM   27  C   UNL     1      44.761 -20.822   2.316  1.00  0.00     0.065 A 
HETATM   28  C   UNL     1      44.419 -22.100   3.055  1.00  0.00     0.013 A 
HETATM   29  C   UNL     1      43.783 -21.825   1.737  1.00  0.00     0.013 A 
ENDBRANCH  25  27
ENDBRANCH  21  22
ENDBRANCH   8  21
TORSDOF 4
ENDMDL
