MODEL 1
REMARK VINA RESULT:      -9.0      0.000      0.000
REMARK  3 active torsions:
REMARK  status: ('A' for Active; 'I' for Inactive)
REMARK    1  A    between atoms: O_2  and  C_3 
REMARK    2  A    between atoms: C_6  and  C_7 
REMARK       I    between atoms: C_7  and  N_8 
REMARK    3  A    between atoms: C_11  and  C_12 
ROOT
HETATM    1  C   UNL     1      40.874 -14.252   0.810  1.00  0.00     0.274 C 
HETATM    2  N   UNL     1      41.551 -15.173   1.626  1.00  0.00    -0.343 N 
HETATM    3  C   UNL     1      40.701 -16.156   2.288  1.00  0.00     0.154 C 
HETATM    4  C   UNL     1      41.484 -17.260   2.926  1.00  0.00     0.001 C 
HETATM    5  C   UNL     1      42.825 -17.315   2.999  1.00  0.00    -0.046 C 
HETATM    6  C   UNL     1      43.663 -16.200   2.423  1.00  0.00     0.059 C 
HETATM    7  C   UNL     1      42.846 -14.915   2.264  1.00  0.00     0.131 C 
HETATM    8  O   UNL     1      39.647 -14.294   0.677  1.00  0.00    -0.266 OA
ENDROOT
BRANCH   1   9
HETATM    9  C   UNL     1      41.594 -13.177   0.073  1.00  0.00     0.147 A 
HETATM   10  N   UNL     1      42.057 -12.109   0.761  1.00  0.00    -0.142 NA
HETATM   11  N   UNL     1      42.755 -11.127   0.101  1.00  0.00    -0.124 NA
HETATM   12  C   UNL     1      42.999 -11.253  -1.222  1.00  0.00     0.185 A 
HETATM   13  C   UNL     1      42.564 -12.343  -1.948  1.00  0.00     0.062 A 
HETATM   14  C   UNL     1      41.846 -13.333  -1.284  1.00  0.00     0.043 A 
BRANCH  12  15
HETATM   15  O   UNL     1      43.702 -10.288  -1.913  1.00  0.00    -0.338 OA
HETATM   16  C   UNL     1      44.034  -9.158  -1.113  1.00  0.00     0.211 C 
ENDBRANCH  12  15
ENDBRANCH   1   9
BRANCH   5  17
HETATM   17  C   UNL     1      43.548 -18.381   3.624  1.00  0.00    -0.002 A 
HETATM   18  C   UNL     1      43.771 -19.707   3.132  1.00  0.00     0.003 A 
HETATM   19  C   UNL     1      44.562 -20.367   4.075  1.00  0.00     0.043 A 
HETATM   20  C   UNL     1      43.375 -20.422   1.979  1.00  0.00     0.014 A 
HETATM   21  C   UNL     1      44.989 -21.692   3.916  1.00  0.00     0.030 A 
HETATM   22  N   UNL     1      44.797 -19.479   5.100  1.00  0.00    -0.364 N 
HETATM   23  C   UNL     1      44.592 -22.369   2.759  1.00  0.00     0.002 A 
HETATM   24  C   UNL     1      43.793 -21.746   1.804  1.00  0.00     0.001 A 
HETATM   25  H   UNL     1      45.347 -19.688   5.921  1.00  0.00     0.165 HD
HETATM   26  C   UNL     1      44.185 -18.281   4.844  1.00  0.00     0.101 A 
ENDBRANCH   5  17
TORSDOF 3
ENDMDL
MODEL 2
REMARK VINA RESULT:      -8.6      3.779      4.928
REMARK  3 active torsions:
REMARK  status: ('A' for Active; 'I' for Inactive)
REMARK    1  A    between atoms: O_2  and  C_3 
REMARK    2  A    between atoms: C_6  and  C_7 
REMARK       I    between atoms: C_7  and  N_8 
REMARK    3  A    between atoms: C_11  and  C_12 
ROOT
HETATM    1  C   UNL     1      41.712 -13.081   3.665  1.00  0.00     0.274 C 
HETATM    2  N   UNL     1      42.106 -14.423   3.784  1.00  0.00    -0.343 N 
HETATM    3  C   UNL     1      42.819 -14.964   2.632  1.00  0.00     0.154 C 
HETATM    4  C   UNL     1      43.440 -16.297   2.911  1.00  0.00     0.001 C 
HETATM    5  C   UNL     1      43.286 -17.000   4.047  1.00  0.00    -0.046 C 
HETATM    6  C   UNL     1      42.421 -16.463   5.160  1.00  0.00     0.059 C 
HETATM    7  C   UNL     1      41.439 -15.408   4.643  1.00  0.00     0.131 C 
HETATM    8  O   UNL     1      41.963 -12.427   2.648  1.00  0.00    -0.266 OA
ENDROOT
BRANCH   1   9
HETATM    9  C   UNL     1      40.965 -12.382   4.746  1.00  0.00     0.147 A 
HETATM   10  N   UNL     1      39.628 -12.223   4.622  1.00  0.00    -0.142 NA
HETATM   11  N   UNL     1      38.920 -11.613   5.629  1.00  0.00    -0.124 NA
HETATM   12  C   UNL     1      39.561 -11.206   6.747  1.00  0.00     0.185 A 
HETATM   13  C   UNL     1      40.920 -11.378   6.917  1.00  0.00     0.062 A 
HETATM   14  C   UNL     1      41.641 -11.984   5.893  1.00  0.00     0.043 A 
BRANCH  12  15
HETATM   15  O   UNL     1      38.879 -10.595   7.779  1.00  0.00    -0.338 OA
HETATM   16  C   UNL     1      39.376 -10.950   9.064  1.00  0.00     0.211 C 
ENDBRANCH  12  15
ENDBRANCH   1   9
BRANCH   5  17
HETATM   17  C   UNL     1      43.885 -18.278   4.282  1.00  0.00    -0.002 A 
HETATM   18  C   UNL     1      43.858 -19.437   3.440  1.00  0.00     0.003 A 
HETATM   19  C   UNL     1      44.614 -20.424   4.076  1.00  0.00     0.043 A 
HETATM   20  C   UNL     1      43.261 -19.752   2.199  1.00  0.00     0.014 A 
HETATM   21  C   UNL     1      44.816 -21.697   3.528  1.00  0.00     0.030 A 
HETATM   22  N   UNL     1      45.068 -19.888   5.260  1.00  0.00    -0.364 N 
HETATM   23  C   UNL     1      44.223 -21.976   2.293  1.00  0.00     0.002 A 
HETATM   24  C   UNL     1      43.453 -21.019   1.638  1.00  0.00     0.001 A 
HETATM   25  H   UNL     1      45.646 -20.381   5.925  1.00  0.00     0.165 HD
HETATM   26  C   UNL     1      44.630 -18.598   5.398  1.00  0.00     0.101 A 
ENDBRANCH   5  17
TORSDOF 3
ENDMDL
MODEL 3
REMARK VINA RESULT:      -8.5      2.156      3.169
REMARK  3 active torsions:
REMARK  status: ('A' for Active; 'I' for Inactive)
REMARK    1  A    between atoms: O_2  and  C_3 
REMARK    2  A    between atoms: C_6  and  C_7 
REMARK       I    between atoms: C_7  and  N_8 
REMARK    3  A    between atoms: C_11  and  C_12 
ROOT
HETATM    1  C   UNL     1      41.427 -13.727   1.234  1.00  0.00     0.274 C 
HETATM    2  N   UNL     1      42.104 -14.853   1.727  1.00  0.00    -0.343 N 
HETATM    3  C   UNL     1      43.094 -14.577   2.762  1.00  0.00     0.154 C 
HETATM    4  C   UNL     1      43.592 -15.820   3.431  1.00  0.00     0.001 C 
HETATM    5  C   UNL     1      43.270 -17.074   3.071  1.00  0.00    -0.046 C 
HETATM    6  C   UNL     1      42.351 -17.316   1.899  1.00  0.00     0.059 C 
HETATM    7  C   UNL     1      42.298 -16.097   0.974  1.00  0.00     0.131 C 
HETATM    8  O   UNL     1      41.668 -12.594   1.663  1.00  0.00    -0.266 OA
ENDROOT
BRANCH   1   9
HETATM    9  C   UNL     1      40.394 -13.835   0.167  1.00  0.00     0.147 A 
HETATM   10  N   UNL     1      39.096 -13.970   0.524  1.00  0.00    -0.142 NA
HETATM   11  N   UNL     1      38.128 -14.033  -0.449  1.00  0.00    -0.124 NA
HETATM   12  C   UNL     1      38.478 -13.930  -1.750  1.00  0.00     0.185 A 
HETATM   13  C   UNL     1      39.790 -13.764  -2.147  1.00  0.00     0.062 A 
HETATM   14  C   UNL     1      40.774 -13.712  -1.164  1.00  0.00     0.043 A 
BRANCH  12  15
HETATM   15  O   UNL     1      37.530 -13.984  -2.751  1.00  0.00    -0.338 OA
HETATM   16  C   UNL     1      37.587 -15.187  -3.510  1.00  0.00     0.211 C 
ENDBRANCH  12  15
ENDBRANCH   1   9
BRANCH   5  17
HETATM   17  C   UNL     1      43.770 -18.246   3.724  1.00  0.00    -0.002 A 
HETATM   18  C   UNL     1      43.909 -19.567   3.188  1.00  0.00     0.003 A 
HETATM   19  C   UNL     1      44.477 -20.358   4.188  1.00  0.00     0.043 A 
HETATM   20  C   UNL     1      43.604 -20.176   1.950  1.00  0.00     0.014 A 
HETATM   21  C   UNL     1      44.769 -21.716   4.009  1.00  0.00     0.030 A 
HETATM   22  N   UNL     1      44.661 -19.552   5.288  1.00  0.00    -0.364 N 
HETATM   23  C   UNL     1      44.468 -22.289   2.769  1.00  0.00     0.002 A 
HETATM   24  C   UNL     1      43.890 -21.532   1.754  1.00  0.00     0.001 A 
HETATM   25  H   UNL     1      45.060 -19.861   6.163  1.00  0.00     0.165 HD
HETATM   26  C   UNL     1      44.233 -18.278   5.023  1.00  0.00     0.101 A 
ENDBRANCH   5  17
TORSDOF 3
ENDMDL
MODEL 4
REMARK VINA RESULT:      -8.4      2.457      3.356
REMARK  3 active torsions:
REMARK  status: ('A' for Active; 'I' for Inactive)
REMARK    1  A    between atoms: O_2  and  C_3 
REMARK    2  A    between atoms: C_6  and  C_7 
REMARK       I    between atoms: C_7  and  N_8 
REMARK    3  A    between atoms: C_11  and  C_12 
ROOT
HETATM    1  C   UNL     1      40.195 -14.401  -0.056  1.00  0.00     0.274 C 
HETATM    2  N   UNL     1      40.790 -15.404   0.726  1.00  0.00    -0.343 N 
HETATM    3  C   UNL     1      41.664 -16.319   0.000  1.00  0.00     0.154 C 
HETATM    4  C   UNL     1      42.467 -17.194   0.911  1.00  0.00     0.001 C 
HETATM    5  C   UNL     1      42.343 -17.239   2.248  1.00  0.00    -0.046 C 
HETATM    6  C   UNL     1      41.322 -16.375   2.946  1.00  0.00     0.059 C 
HETATM    7  C   UNL     1      40.226 -15.918   1.979  1.00  0.00     0.131 C 
HETATM    8  O   UNL     1      40.415 -14.319  -1.269  1.00  0.00    -0.266 OA
ENDROOT
BRANCH   1   9
HETATM    9  C   UNL     1      39.268 -13.394   0.529  1.00  0.00     0.147 A 
HETATM   10  N   UNL     1      39.784 -12.345   1.208  1.00  0.00    -0.142 NA
HETATM   11  N   UNL     1      38.943 -11.388   1.721  1.00  0.00    -0.124 NA
HETATM   12  C   UNL     1      37.611 -11.488   1.517  1.00  0.00     0.185 A 
HETATM   13  C   UNL     1      37.054 -12.532   0.805  1.00  0.00     0.062 A 
HETATM   14  C   UNL     1      37.903 -13.509   0.295  1.00  0.00     0.043 A 
BRANCH  12  15
HETATM   15  O   UNL     1      36.739 -10.541   2.014  1.00  0.00    -0.338 OA
HETATM   16  C   UNL     1      37.369  -9.601   2.877  1.00  0.00     0.211 C 
ENDBRANCH  12  15
ENDBRANCH   1   9
BRANCH   5  17
HETATM   17  C   UNL     1      43.120 -18.094   3.094  1.00  0.00    -0.002 A 
HETATM   18  C   UNL     1      43.511 -19.452   2.859  1.00  0.00     0.003 A 
HETATM   19  C   UNL     1      44.290 -19.848   3.948  1.00  0.00     0.043 A 
HETATM   20  C   UNL     1      43.278 -20.392   1.831  1.00  0.00     0.014 A 
HETATM   21  C   UNL     1      44.860 -21.124   4.052  1.00  0.00     0.030 A 
HETATM   22  N   UNL     1      44.356 -18.778   4.811  1.00  0.00    -0.364 N 
HETATM   23  C   UNL     1      44.622 -22.029   3.013  1.00  0.00     0.002 A 
HETATM   24  C   UNL     1      43.839 -21.672   1.918  1.00  0.00     0.001 A 
HETATM   25  H   UNL     1      44.860 -18.781   5.686  1.00  0.00     0.165 HD
HETATM   26  C   UNL     1      43.649 -17.718   4.311  1.00  0.00     0.101 A 
ENDBRANCH   5  17
TORSDOF 3
ENDMDL
MODEL 5
REMARK VINA RESULT:      -8.0      3.939      4.603
REMARK  3 active torsions:
REMARK  status: ('A' for Active; 'I' for Inactive)
REMARK    1  A    between atoms: O_2  and  C_3 
REMARK    2  A    between atoms: C_6  and  C_7 
REMARK       I    between atoms: C_7  and  N_8 
REMARK    3  A    between atoms: C_11  and  C_12 
ROOT
HETATM    1  C   UNL     1      42.834 -13.853   6.069  1.00  0.00     0.274 C 
HETATM    2  N   UNL     1      43.184 -15.189   5.819  1.00  0.00    -0.343 N 
HETATM    3  C   UNL     1      44.371 -15.662   6.522  1.00  0.00     0.154 C 
HETATM    4  C   UNL     1      44.546 -17.145   6.428  1.00  0.00     0.001 C 
HETATM    5  C   UNL     1      43.779 -17.970   5.695  1.00  0.00    -0.046 C 
HETATM    6  C   UNL     1      42.645 -17.416   4.867  1.00  0.00     0.059 C 
HETATM    7  C   UNL     1      42.832 -15.921   4.597  1.00  0.00     0.131 C 
HETATM    8  O   UNL     1      43.499 -13.149   6.835  1.00  0.00    -0.266 OA
ENDROOT
BRANCH   1   9
HETATM    9  C   UNL     1      41.656 -13.214   5.422  1.00  0.00     0.147 A 
HETATM   10  N   UNL     1      40.425 -13.440   5.935  1.00  0.00    -0.142 NA
HETATM   11  N   UNL     1      39.331 -12.827   5.371  1.00  0.00    -0.124 NA
HETATM   12  C   UNL     1      39.500 -11.982   4.330  1.00  0.00     0.185 A 
HETATM   13  C   UNL     1      40.746 -11.709   3.801  1.00  0.00     0.062 A 
HETATM   14  C   UNL     1      41.853 -12.337   4.362  1.00  0.00     0.043 A 
BRANCH  12  15
HETATM   15  O   UNL     1      38.424 -11.346   3.745  1.00  0.00    -0.338 OA
HETATM   16  C   UNL     1      38.808 -10.366   2.787  1.00  0.00     0.211 C 
ENDBRANCH  12  15
ENDBRANCH   1   9
BRANCH   5  17
HETATM   17  C   UNL     1      43.976 -19.385   5.616  1.00  0.00    -0.002 A 
HETATM   18  C   UNL     1      44.189 -20.186   4.448  1.00  0.00     0.003 A 
HETATM   19  C   UNL     1      44.367 -21.502   4.879  1.00  0.00     0.043 A 
HETATM   20  C   UNL     1      44.244 -19.927   3.060  1.00  0.00     0.014 A 
HETATM   21  C   UNL     1      44.613 -22.564   3.998  1.00  0.00     0.030 A 
HETATM   22  N   UNL     1      44.253 -21.499   6.250  1.00  0.00    -0.364 N 
HETATM   23  C   UNL     1      44.674 -22.275   2.632  1.00  0.00     0.002 A 
HETATM   24  C   UNL     1      44.489 -20.976   2.166  1.00  0.00     0.001 A 
HETATM   25  H   UNL     1      44.342 -22.319   6.832  1.00  0.00     0.165 HD
HETATM   26  C   UNL     1      44.011 -20.230   6.706  1.00  0.00     0.101 A 
ENDBRANCH   5  17
TORSDOF 3
ENDMDL
MODEL 6
REMARK VINA RESULT:      -7.9      3.465      8.535
REMARK  3 active torsions:
REMARK  status: ('A' for Active; 'I' for Inactive)
REMARK    1  A    between atoms: O_2  and  C_3 
REMARK    2  A    between atoms: C_6  and  C_7 
REMARK       I    between atoms: C_7  and  N_8 
REMARK    3  A    between atoms: C_11  and  C_12 
ROOT
HETATM    1  C   UNL     1      43.292 -16.658   5.162  1.00  0.00     0.274 C 
HETATM    2  N   UNL     1      42.290 -16.242   4.271  1.00  0.00    -0.343 N 
HETATM    3  C   UNL     1      41.957 -14.823   4.332  1.00  0.00     0.154 C 
HETATM    4  C   UNL     1      41.084 -14.385   3.198  1.00  0.00     0.001 C 
HETATM    5  C   UNL     1      40.555 -15.200   2.270  1.00  0.00    -0.046 C 
HETATM    6  C   UNL     1      40.811 -16.685   2.329  1.00  0.00     0.059 C 
HETATM    7  C   UNL     1      41.246 -17.120   3.731  1.00  0.00     0.131 C 
HETATM    8  O   UNL     1      43.838 -15.861   5.931  1.00  0.00    -0.266 OA
ENDROOT
BRANCH   1   9
HETATM    9  C   UNL     1      43.740 -18.076   5.233  1.00  0.00     0.147 A 
HETATM   10  N   UNL     1      43.540 -18.769   6.377  1.00  0.00    -0.142 NA
HETATM   11  N   UNL     1      43.915 -20.089   6.445  1.00  0.00    -0.124 NA
HETATM   12  C   UNL     1      44.451 -20.690   5.360  1.00  0.00     0.185 A 
HETATM   13  C   UNL     1      44.644 -20.019   4.169  1.00  0.00     0.062 A 
HETATM   14  C   UNL     1      44.277 -18.678   4.102  1.00  0.00     0.043 A 
BRANCH  12  15
HETATM   15  O   UNL     1      44.833 -22.015   5.394  1.00  0.00    -0.338 OA
HETATM   16  C   UNL     1      44.651 -22.681   4.149  1.00  0.00     0.211 C 
ENDBRANCH  12  15
ENDBRANCH   1   9
BRANCH   5  17
HETATM   17  C   UNL     1      39.715 -14.753   1.200  1.00  0.00    -0.002 A 
HETATM   18  C   UNL     1      40.084 -14.471  -0.155  1.00  0.00     0.003 A 
HETATM   19  C   UNL     1      38.917 -14.105  -0.829  1.00  0.00     0.043 A 
HETATM   20  C   UNL     1      41.296 -14.482  -0.881  1.00  0.00     0.014 A 
HETATM   21  C   UNL     1      38.898 -13.770  -2.190  1.00  0.00     0.030 A 
HETATM   22  N   UNL     1      37.888 -14.152   0.084  1.00  0.00    -0.364 N 
HETATM   23  C   UNL     1      40.111 -13.802  -2.885  1.00  0.00     0.002 A 
HETATM   24  C   UNL     1      41.295 -14.150  -2.241  1.00  0.00     0.001 A 
HETATM   25  H   UNL     1      36.925 -13.938  -0.130  1.00  0.00     0.165 HD
HETATM   26  C   UNL     1      38.358 -14.535   1.312  1.00  0.00     0.101 A 
ENDBRANCH   5  17
TORSDOF 3
ENDMDL
MODEL 7
REMARK VINA RESULT:      -7.9      1.876      2.521
REMARK  3 active torsions:
REMARK  status: ('A' for Active; 'I' for Inactive)
REMARK    1  A    between atoms: O_2  and  C_3 
REMARK    2  A    between atoms: C_6  and  C_7 
REMARK       I    between atoms: C_7  and  N_8 
REMARK    3  A    between atoms: C_11  and  C_12 
ROOT
HETATM    1  C   UNL     1      42.139 -13.453   3.709  1.00  0.00     0.274 C 
HETATM    2  N   UNL     1      42.721 -14.715   3.905  1.00  0.00    -0.343 N 
HETATM    3  C   UNL     1      43.140 -14.999   5.273  1.00  0.00     0.154 C 
HETATM    4  C   UNL     1      43.506 -16.435   5.478  1.00  0.00     0.001 C 
HETATM    5  C   UNL     1      43.563 -17.366   4.510  1.00  0.00    -0.046 C 
HETATM    6  C   UNL     1      43.258 -16.993   3.080  1.00  0.00     0.059 C 
HETATM    7  C   UNL     1      43.400 -15.484   2.856  1.00  0.00     0.131 C 
HETATM    8  O   UNL     1      42.001 -12.658   4.644  1.00  0.00    -0.266 OA
ENDROOT
BRANCH   1   9
HETATM    9  C   UNL     1      41.668 -13.003   2.370  1.00  0.00     0.147 A 
HETATM   10  N   UNL     1      42.562 -12.466   1.508  1.00  0.00    -0.142 NA
HETATM   11  N   UNL     1      42.150 -12.081   0.255  1.00  0.00    -0.124 NA
HETATM   12  C   UNL     1      40.864 -12.271  -0.114  1.00  0.00     0.185 A 
HETATM   13  C   UNL     1      39.933 -12.841   0.731  1.00  0.00     0.062 A 
HETATM   14  C   UNL     1      40.345 -13.220   2.005  1.00  0.00     0.043 A 
BRANCH  12  15
HETATM   15  O   UNL     1      40.419 -11.901  -1.367  1.00  0.00    -0.338 OA
HETATM   16  C   UNL     1      41.123 -12.546  -2.423  1.00  0.00     0.211 C 
ENDBRANCH  12  15
ENDBRANCH   1   9
BRANCH   5  17
HETATM   17  C   UNL     1      43.926 -18.732   4.735  1.00  0.00    -0.002 A 
HETATM   18  C   UNL     1      44.022 -19.791   3.775  1.00  0.00     0.003 A 
HETATM   19  C   UNL     1      44.449 -20.929   4.463  1.00  0.00     0.043 A 
HETATM   20  C   UNL     1      43.784 -19.902   2.387  1.00  0.00     0.014 A 
HETATM   21  C   UNL     1      44.665 -22.162   3.832  1.00  0.00     0.030 A 
HETATM   22  N   UNL     1      44.592 -20.576   5.785  1.00  0.00    -0.364 N 
HETATM   23  C   UNL     1      44.433 -22.238   2.455  1.00  0.00     0.002 A 
HETATM   24  C   UNL     1      43.995 -21.126   1.741  1.00  0.00     0.001 A 
HETATM   25  H   UNL     1      44.894 -21.205   6.515  1.00  0.00     0.165 HD
HETATM   26  C   UNL     1      44.273 -19.255   5.962  1.00  0.00     0.101 A 
ENDBRANCH   5  17
TORSDOF 3
ENDMDL
MODEL 8
REMARK VINA RESULT:      -7.5      2.551      3.320
REMARK  3 active torsions:
REMARK  status: ('A' for Active; 'I' for Inactive)
REMARK    1  A    between atoms: O_2  and  C_3 
REMARK    2  A    between atoms: C_6  and  C_7 
REMARK       I    between atoms: C_7  and  N_8 
REMARK    3  A    between atoms: C_11  and  C_12 
ROOT
HETATM    1  C   UNL     1      40.471 -14.790  -0.311  1.00  0.00     0.274 C 
HETATM    2  N   UNL     1      40.844 -15.645   0.737  1.00  0.00    -0.343 N 
HETATM    3  C   UNL     1      41.727 -16.743   0.358  1.00  0.00     0.154 C 
HETATM    4  C   UNL     1      42.299 -17.459   1.541  1.00  0.00     0.001 C 
HETATM    5  C   UNL     1      41.973 -17.220   2.823  1.00  0.00    -0.046 C 
HETATM    6  C   UNL     1      40.945 -16.168   3.161  1.00  0.00     0.059 C 
HETATM    7  C   UNL     1      40.054 -15.854   1.955  1.00  0.00     0.131 C 
HETATM    8  O   UNL     1      40.876 -14.974  -1.464  1.00  0.00    -0.266 OA
ENDROOT
BRANCH   1   9
HETATM    9  C   UNL     1      39.565 -13.629  -0.095  1.00  0.00     0.147 A 
HETATM   10  N   UNL     1      40.073 -12.492   0.435  1.00  0.00    -0.142 NA
HETATM   11  N   UNL     1      39.258 -11.400   0.606  1.00  0.00    -0.124 NA
HETATM   12  C   UNL     1      37.965 -11.461   0.216  1.00  0.00     0.185 A 
HETATM   13  C   UNL     1      37.423 -12.596  -0.352  1.00  0.00     0.062 A 
HETATM   14  C   UNL     1      38.243 -13.708  -0.515  1.00  0.00     0.043 A 
BRANCH  12  15
HETATM   15  O   UNL     1      37.122 -10.380   0.369  1.00  0.00    -0.338 OA
HETATM   16  C   UNL     1      36.010 -10.654   1.215  1.00  0.00     0.211 C 
ENDBRANCH  12  15
ENDBRANCH   1   9
BRANCH   5  17
HETATM   17  C   UNL     1      42.530 -17.928   3.934  1.00  0.00    -0.002 A 
HETATM   18  C   UNL     1      43.373 -19.086   3.913  1.00  0.00     0.003 A 
HETATM   19  C   UNL     1      43.690 -19.387   5.239  1.00  0.00     0.043 A 
HETATM   20  C   UNL     1      43.897 -19.918   2.898  1.00  0.00     0.014 A 
HETATM   21  C   UNL     1      44.515 -20.461   5.599  1.00  0.00     0.030 A 
HETATM   22  N   UNL     1      43.055 -18.457   6.030  1.00  0.00    -0.364 N 
HETATM   23  C   UNL     1      45.029 -21.259   4.572  1.00  0.00     0.002 A 
HETATM   24  C   UNL     1      44.723 -20.995   3.240  1.00  0.00     0.001 A 
HETATM   25  H   UNL     1      43.111 -18.431   7.038  1.00  0.00     0.165 HD
HETATM   26  C   UNL     1      42.347 -17.577   5.255  1.00  0.00     0.101 A 
ENDBRANCH   5  17
TORSDOF 3
ENDMDL
MODEL 9
REMARK VINA RESULT:      -7.5      2.944      8.635
REMARK  3 active torsions:
REMARK  status: ('A' for Active; 'I' for Inactive)
REMARK    1  A    between atoms: O_2  and  C_3 
REMARK    2  A    between atoms: C_6  and  C_7 
REMARK       I    between atoms: C_7  and  N_8 
REMARK    3  A    between atoms: C_11  and  C_12 
ROOT
HETATM    1  C   UNL     1      42.240 -16.875   4.138  1.00  0.00     0.274 C 
HETATM    2  N   UNL     1      41.910 -16.471   2.835  1.00  0.00    -0.343 N 
HETATM    3  C   UNL     1      41.087 -15.270   2.748  1.00  0.00     0.154 C 
HETATM    4  C   UNL     1      40.985 -14.740   1.352  1.00  0.00     0.001 C 
HETATM    5  C   UNL     1      41.488 -15.338   0.258  1.00  0.00    -0.046 C 
HETATM    6  C   UNL     1      42.210 -16.657   0.379  1.00  0.00     0.059 C 
HETATM    7  C   UNL     1      41.844 -17.375   1.681  1.00  0.00     0.131 C 
HETATM    8  O   UNL     1      41.852 -16.240   5.124  1.00  0.00    -0.266 OA
ENDROOT
BRANCH   1   9
HETATM    9  C   UNL     1      43.064 -18.087   4.401  1.00  0.00     0.147 A 
HETATM   10  N   UNL     1      42.963 -18.699   5.603  1.00  0.00    -0.142 NA
HETATM   11  N   UNL     1      43.689 -19.840   5.847  1.00  0.00    -0.124 NA
HETATM   12  C   UNL     1      44.472 -20.355   4.874  1.00  0.00     0.185 A 
HETATM   13  C   UNL     1      44.576 -19.771   3.627  1.00  0.00     0.062 A 
HETATM   14  C   UNL     1      43.852 -18.609   3.382  1.00  0.00     0.043 A 
BRANCH  12  15
HETATM   15  O   UNL     1      45.209 -21.503   5.085  1.00  0.00    -0.338 OA
HETATM   16  C   UNL     1      44.699 -22.631   4.382  1.00  0.00     0.211 C 
ENDBRANCH  12  15
ENDBRANCH   1   9
BRANCH   5  17
HETATM   17  C   UNL     1      41.366 -14.812  -1.067  1.00  0.00    -0.002 A 
HETATM   18  C   UNL     1      41.812 -13.543  -1.559  1.00  0.00     0.003 A 
HETATM   19  C   UNL     1      41.505 -13.500  -2.921  1.00  0.00     0.043 A 
HETATM   20  C   UNL     1      42.444 -12.418  -0.985  1.00  0.00     0.014 A 
HETATM   21  C   UNL     1      41.811 -12.402  -3.736  1.00  0.00     0.030 A 
HETATM   22  N   UNL     1      40.886 -14.689  -3.235  1.00  0.00    -0.364 N 
HETATM   23  C   UNL     1      42.448 -11.309  -3.141  1.00  0.00     0.002 A 
HETATM   24  C   UNL     1      42.758 -11.312  -1.784  1.00  0.00     0.001 A 
HETATM   25  H   UNL     1      40.556 -14.935  -4.157  1.00  0.00     0.165 HD
HETATM   26  C   UNL     1      40.791 -15.485  -2.125  1.00  0.00     0.101 A 
ENDBRANCH   5  17
TORSDOF 3
ENDMDL
MODEL 10
REMARK VINA RESULT:      -7.4      3.580      8.850
REMARK  3 active torsions:
REMARK  status: ('A' for Active; 'I' for Inactive)
REMARK    1  A    between atoms: O_2  and  C_3 
REMARK    2  A    between atoms: C_6  and  C_7 
REMARK       I    between atoms: C_7  and  N_8 
REMARK    3  A    between atoms: C_11  and  C_12 
ROOT
HETATM    1  C   UNL     1      43.219 -16.608   5.155  1.00  0.00     0.274 C 
HETATM    2  N   UNL     1      42.371 -16.217   4.107  1.00  0.00    -0.343 N 
HETATM    3  C   UNL     1      42.021 -14.801   4.089  1.00  0.00     0.154 C 
HETATM    4  C   UNL     1      41.340 -14.390   2.821  1.00  0.00     0.001 C 
HETATM    5  C   UNL     1      40.975 -15.226   1.834  1.00  0.00    -0.046 C 
HETATM    6  C   UNL     1      41.230 -16.707   1.959  1.00  0.00     0.059 C 
HETATM    7  C   UNL     1      41.435 -17.115   3.421  1.00  0.00     0.131 C 
HETATM    8  O   UNL     1      43.628 -15.793   5.988  1.00  0.00    -0.266 OA
ENDROOT
BRANCH   1   9
HETATM    9  C   UNL     1      43.662 -18.020   5.323  1.00  0.00     0.147 A 
HETATM   10  N   UNL     1      43.329 -18.680   6.455  1.00  0.00    -0.142 NA
HETATM   11  N   UNL     1      43.698 -19.995   6.608  1.00  0.00    -0.124 NA
HETATM   12  C   UNL     1      44.363 -20.623   5.614  1.00  0.00     0.185 A 
HETATM   13  C   UNL     1      44.694 -19.987   4.434  1.00  0.00     0.062 A 
HETATM   14  C   UNL     1      44.332 -18.652   4.282  1.00  0.00     0.043 A 
BRANCH  12  15
HETATM   15  O   UNL     1      44.742 -21.944   5.733  1.00  0.00    -0.338 OA
HETATM   16  C   UNL     1      44.737 -22.642   4.492  1.00  0.00     0.211 C 
ENDBRANCH  12  15
ENDBRANCH   1   9
BRANCH   5  17
HETATM   17  C   UNL     1      40.315 -14.805   0.635  1.00  0.00    -0.002 A 
HETATM   18  C   UNL     1      39.200 -13.915   0.504  1.00  0.00     0.003 A 
HETATM   19  C   UNL     1      38.940 -13.782  -0.862  1.00  0.00     0.043 A 
HETATM   20  C   UNL     1      38.377 -13.210   1.410  1.00  0.00     0.014 A 
HETATM   21  C   UNL     1      37.916 -12.970  -1.365  1.00  0.00     0.030 A 
HETATM   22  N   UNL     1      39.852 -14.569  -1.527  1.00  0.00    -0.364 N 
HETATM   23  C   UNL     1      37.125 -12.275  -0.445  1.00  0.00     0.002 A 
HETATM   24  C   UNL     1      37.349 -12.394   0.924  1.00  0.00     0.001 A 
HETATM   25  H   UNL     1      39.900 -14.663  -2.532  1.00  0.00     0.165 HD
HETATM   26  C   UNL     1      40.682 -15.196  -0.636  1.00  0.00     0.101 A 
ENDBRANCH   5  17
TORSDOF 3
ENDMDL
