MODEL 1
REMARK VINA RESULT:      -8.9      0.000      0.000
REMARK  8 active torsions:
REMARK  status: ('A' for Active; 'I' for Inactive)
REMARK    1  A    between atoms: C_5  and  C_6 
REMARK       I    between atoms: C_6  and  N_7 
REMARK    2  A    between atoms: N_7  and  N_8 
REMARK       I    between atoms: N_8  and  C_9 
REMARK    3  A    between atoms: C_9  and  C_10 
REMARK    4  A    between atoms: C_10  and  C_11 
REMARK    5  A    between atoms: C_11  and  N_12 
REMARK    6  A    between atoms: N_12  and  C_13 
REMARK    7  A    between atoms: C_14  and  N_15 
REMARK    8  A    between atoms: C_19  and  C_20 
ROOT
HETATM    1  C   UNL     1      42.443 -15.785   4.013  1.00  0.00     0.102 C 
ENDROOT
BRANCH   1   2
HETATM    2  C   UNL     1      43.254 -14.516   3.787  1.00  0.00     0.119 C 
BRANCH   2   3
HETATM    3  C   UNL     1      43.180 -13.676   5.034  1.00  0.00     0.237 C 
HETATM    4  N   UNL     1      43.874 -14.188   6.108  1.00  0.00    -0.267 N 
HETATM    5  H   UNL     1      44.501 -14.990   6.065  1.00  0.00     0.190 HD
HETATM    6  O   UNL     1      42.496 -12.657   5.108  1.00  0.00    -0.272 OA
BRANCH   4   7
HETATM    7  N   UNL     1      43.823 -13.494   7.318  1.00  0.00    -0.262 N 
HETATM    8  C   UNL     1      44.990 -13.001   7.861  1.00  0.00     0.286 C 
HETATM    9  O   UNL     1      46.073 -13.137   7.291  1.00  0.00    -0.264 OA
HETATM   10  H   UNL     1      42.909 -13.389   7.752  1.00  0.00     0.190 HD
BRANCH   8  11
HETATM   11  C   UNL     1      44.852 -12.325   9.130  1.00  0.00     0.102 A 
HETATM   12  N   UNL     1      43.921 -12.732  10.065  1.00  0.00    -0.361 N 
HETATM   13  C   UNL     1      43.980 -11.936  11.175  1.00  0.00     0.088 A 
HETATM   14  H   UNL     1      43.291 -13.514   9.925  1.00  0.00     0.165 HD
HETATM   15  C   UNL     1      44.959 -10.995  10.966  1.00  0.00     0.019 A 
HETATM   16  C   UNL     1      45.510 -11.237   9.683  1.00  0.00     0.036 A 
ENDBRANCH   8  11
ENDBRANCH   4   7
ENDBRANCH   2   3
ENDBRANCH   1   2
BRANCH   1  17
HETATM   17  N   UNL     1      43.251 -16.780   4.720  1.00  0.00    -0.290 NA
HETATM   18  H   UNL     1      43.000 -16.856   5.714  1.00  0.00     0.127 HD
BRANCH  17  19
HETATM   19  C   UNL     1      43.458 -18.050   4.152  1.00  0.00     0.041 A 
HETATM   20  C   UNL     1      44.174 -19.071   4.822  1.00  0.00     0.124 A 
HETATM   21  C   UNL     1      44.462 -20.310   4.214  1.00  0.00     0.054 A 
HETATM   22  C   UNL     1      44.063 -20.560   2.896  1.00  0.00     0.050 A 
HETATM   23  C   UNL     1      43.386 -19.549   2.206  1.00  0.00     0.018 A 
HETATM   24  C   UNL     1      43.105 -18.318   2.819  1.00  0.00     0.027 A 
BRANCH  20  25
HETATM   25  N   UNL     1      44.627 -18.885   6.205  1.00  0.00    -0.114 N 
HETATM   26  O   UNL     1      44.080 -19.561   7.092  1.00  0.00    -0.532 OA
HETATM   27  O   UNL     1      45.551 -18.083   6.401  1.00  0.00    -0.532 OA
ENDBRANCH  20  25
BRANCH  22  28
HETATM   28  C   UNL     1      44.353 -21.877   2.216  1.00  0.00     0.417 C 
HETATM   29  F   UNL     1      45.456 -21.844   1.420  1.00  0.00    -0.166 F 
HETATM   30  F   UNL     1      44.566 -22.881   3.110  1.00  0.00    -0.166 F 
HETATM   31  F   UNL     1      43.328 -22.289   1.422  1.00  0.00    -0.166 F 
ENDBRANCH  22  28
ENDBRANCH  17  19
ENDBRANCH   1  17
TORSDOF 8
ENDMDL
MODEL 2
REMARK VINA RESULT:      -8.3      1.739      2.177
REMARK  8 active torsions:
REMARK  status: ('A' for Active; 'I' for Inactive)
REMARK    1  A    between atoms: C_5  and  C_6 
REMARK       I    between atoms: C_6  and  N_7 
REMARK    2  A    between atoms: N_7  and  N_8 
REMARK       I    between atoms: N_8  and  C_9 
REMARK    3  A    between atoms: C_9  and  C_10 
REMARK    4  A    between atoms: C_10  and  C_11 
REMARK    5  A    between atoms: C_11  and  N_12 
REMARK    6  A    between atoms: N_12  and  C_13 
REMARK    7  A    between atoms: C_14  and  N_15 
REMARK    8  A    between atoms: C_19  and  C_20 
ROOT
HETATM    1  C   UNL     1      41.009 -14.717   3.419  1.00  0.00     0.102 C 
ENDROOT
BRANCH   1   2
HETATM    2  C   UNL     1      42.482 -14.512   3.748  1.00  0.00     0.119 C 
BRANCH   2   3
HETATM    3  C   UNL     1      42.578 -13.658   4.984  1.00  0.00     0.237 C 
HETATM    4  N   UNL     1      43.377 -14.181   5.977  1.00  0.00    -0.267 N 
HETATM    5  H   UNL     1      43.971 -15.002   5.873  1.00  0.00     0.190 HD
HETATM    6  O   UNL     1      41.938 -12.618   5.124  1.00  0.00    -0.272 OA
BRANCH   4   7
HETATM    7  N   UNL     1      43.487 -13.474   7.176  1.00  0.00    -0.262 N 
HETATM    8  C   UNL     1      44.740 -13.201   7.683  1.00  0.00     0.286 C 
HETATM    9  O   UNL     1      45.763 -13.543   7.090  1.00  0.00    -0.264 OA
HETATM   10  H   UNL     1      42.621 -13.196   7.630  1.00  0.00     0.190 HD
BRANCH   8  11
HETATM   11  C   UNL     1      44.763 -12.495   8.943  1.00  0.00     0.102 A 
HETATM   12  N   UNL     1      44.029 -12.934  10.027  1.00  0.00    -0.361 N 
HETATM   13  C   UNL     1      44.212 -12.100  11.095  1.00  0.00     0.088 A 
HETATM   14  H   UNL     1      43.443 -13.760  10.010  1.00  0.00     0.165 HD
HETATM   15  C   UNL     1      45.075 -11.102  10.708  1.00  0.00     0.019 A 
HETATM   16  C   UNL     1      45.424 -11.348   9.357  1.00  0.00     0.036 A 
ENDBRANCH   8  11
ENDBRANCH   4   7
ENDBRANCH   2   3
ENDBRANCH   1   2
BRANCH   1  17
HETATM   17  N   UNL     1      40.585 -16.058   3.826  1.00  0.00    -0.290 NA
HETATM   18  H   UNL     1      39.716 -16.352   3.363  1.00  0.00     0.127 HD
BRANCH  17  19
HETATM   19  C   UNL     1      41.518 -17.109   3.864  1.00  0.00     0.041 A 
HETATM   20  C   UNL     1      42.081 -17.577   5.076  1.00  0.00     0.124 A 
HETATM   21  C   UNL     1      43.086 -18.566   5.105  1.00  0.00     0.054 A 
HETATM   22  C   UNL     1      43.583 -19.104   3.912  1.00  0.00     0.050 A 
HETATM   23  C   UNL     1      43.063 -18.627   2.704  1.00  0.00     0.018 A 
HETATM   24  C   UNL     1      42.064 -17.642   2.684  1.00  0.00     0.027 A 
BRANCH  20  25
HETATM   25  N   UNL     1      41.615 -17.062   6.367  1.00  0.00    -0.114 N 
HETATM   26  O   UNL     1      40.390 -17.040   6.576  1.00  0.00    -0.532 OA
HETATM   27  O   UNL     1      42.475 -16.705   7.185  1.00  0.00    -0.532 OA
ENDBRANCH  20  25
BRANCH  22  28
HETATM   28  C   UNL     1      44.657 -20.165   3.908  1.00  0.00     0.417 C 
HETATM   29  F   UNL     1      44.216 -21.383   4.324  1.00  0.00    -0.166 F 
HETATM   30  F   UNL     1      45.181 -20.360   2.667  1.00  0.00    -0.166 F 
HETATM   31  F   UNL     1      45.705 -19.848   4.715  1.00  0.00    -0.166 F 
ENDBRANCH  22  28
ENDBRANCH  17  19
ENDBRANCH   1  17
TORSDOF 8
ENDMDL
MODEL 3
REMARK VINA RESULT:      -8.3      3.374      6.487
REMARK  8 active torsions:
REMARK  status: ('A' for Active; 'I' for Inactive)
REMARK    1  A    between atoms: C_5  and  C_6 
REMARK       I    between atoms: C_6  and  N_7 
REMARK    2  A    between atoms: N_7  and  N_8 
REMARK       I    between atoms: N_8  and  C_9 
REMARK    3  A    between atoms: C_9  and  C_10 
REMARK    4  A    between atoms: C_10  and  C_11 
REMARK    5  A    between atoms: C_11  and  N_12 
REMARK    6  A    between atoms: N_12  and  C_13 
REMARK    7  A    between atoms: C_14  and  N_15 
REMARK    8  A    between atoms: C_19  and  C_20 
ROOT
HETATM    1  C   UNL     1      42.535 -16.024   5.203  1.00  0.00     0.102 C 
ENDROOT
BRANCH   1   2
HETATM    2  C   UNL     1      42.284 -14.568   4.835  1.00  0.00     0.119 C 
BRANCH   2   3
HETATM    3  C   UNL     1      42.504 -14.407   3.354  1.00  0.00     0.237 C 
HETATM    4  N   UNL     1      41.602 -15.089   2.568  1.00  0.00    -0.267 N 
HETATM    5  H   UNL     1      40.769 -15.563   2.915  1.00  0.00     0.190 HD
HETATM    6  O   UNL     1      43.452 -13.780   2.888  1.00  0.00    -0.272 OA
BRANCH   4   7
HETATM    7  N   UNL     1      41.758 -15.030   1.181  1.00  0.00    -0.262 N 
HETATM    8  C   UNL     1      40.663 -14.754   0.392  1.00  0.00     0.286 C 
HETATM    9  O   UNL     1      39.555 -14.532   0.881  1.00  0.00    -0.264 OA
HETATM   10  H   UNL     1      42.690 -15.204   0.814  1.00  0.00     0.190 HD
BRANCH   8  11
HETATM   11  C   UNL     1      40.906 -14.744  -1.033  1.00  0.00     0.102 A 
HETATM   12  N   UNL     1      40.572 -15.823  -1.826  1.00  0.00    -0.361 N 
HETATM   13  C   UNL     1      40.903 -15.576  -3.130  1.00  0.00     0.088 A 
HETATM   14  H   UNL     1      40.143 -16.670  -1.470  1.00  0.00     0.165 HD
HETATM   15  C   UNL     1      41.461 -14.322  -3.192  1.00  0.00     0.019 A 
HETATM   16  C   UNL     1      41.463 -13.796  -1.877  1.00  0.00     0.036 A 
ENDBRANCH   8  11
ENDBRANCH   4   7
ENDBRANCH   2   3
ENDBRANCH   1   2
BRANCH   1  17
HETATM   17  N   UNL     1      43.750 -16.508   4.545  1.00  0.00    -0.290 NA
HETATM   18  H   UNL     1      44.599 -16.293   5.082  1.00  0.00     0.127 HD
BRANCH  17  19
HETATM   19  C   UNL     1      43.797 -17.814   4.027  1.00  0.00     0.041 A 
HETATM   20  C   UNL     1      44.301 -18.907   4.774  1.00  0.00     0.124 A 
HETATM   21  C   UNL     1      44.435 -20.197   4.221  1.00  0.00     0.054 A 
HETATM   22  C   UNL     1      44.090 -20.432   2.885  1.00  0.00     0.050 A 
HETATM   23  C   UNL     1      43.624 -19.356   2.122  1.00  0.00     0.018 A 
HETATM   24  C   UNL     1      43.495 -18.075   2.680  1.00  0.00     0.027 A 
BRANCH  20  25
HETATM   25  N   UNL     1      44.685 -18.740   6.179  1.00  0.00    -0.114 N 
HETATM   26  O   UNL     1      44.063 -19.393   7.033  1.00  0.00    -0.532 OA
HETATM   27  O   UNL     1      45.629 -17.977   6.428  1.00  0.00    -0.532 OA
ENDBRANCH  20  25
BRANCH  22  28
HETATM   28  C   UNL     1      44.219 -21.802   2.262  1.00  0.00     0.417 C 
HETATM   29  F   UNL     1      45.307 -21.930   1.455  1.00  0.00    -0.166 F 
HETATM   30  F   UNL     1      44.329 -22.784   3.199  1.00  0.00    -0.166 F 
HETATM   31  F   UNL     1      43.142 -22.129   1.498  1.00  0.00    -0.166 F 
ENDBRANCH  22  28
ENDBRANCH  17  19
ENDBRANCH   1  17
TORSDOF 8
ENDMDL
MODEL 4
REMARK VINA RESULT:      -8.3      4.526      7.288
REMARK  8 active torsions:
REMARK  status: ('A' for Active; 'I' for Inactive)
REMARK    1  A    between atoms: C_5  and  C_6 
REMARK       I    between atoms: C_6  and  N_7 
REMARK    2  A    between atoms: N_7  and  N_8 
REMARK       I    between atoms: N_8  and  C_9 
REMARK    3  A    between atoms: C_9  and  C_10 
REMARK    4  A    between atoms: C_10  and  C_11 
REMARK    5  A    between atoms: C_11  and  N_12 
REMARK    6  A    between atoms: N_12  and  C_13 
REMARK    7  A    between atoms: C_14  and  N_15 
REMARK    8  A    between atoms: C_19  and  C_20 
ROOT
HETATM    1  C   UNL     1      41.405 -16.453   4.803  1.00  0.00     0.102 C 
ENDROOT
BRANCH   1   2
HETATM    2  C   UNL     1      40.690 -15.113   4.688  1.00  0.00     0.119 C 
BRANCH   2   3
HETATM    3  C   UNL     1      40.630 -14.730   3.234  1.00  0.00     0.237 C 
HETATM    4  N   UNL     1      39.634 -15.359   2.520  1.00  0.00    -0.267 N 
HETATM    5  H   UNL     1      38.901 -15.936   2.930  1.00  0.00     0.190 HD
HETATM    6  O   UNL     1      41.448 -13.975   2.711  1.00  0.00    -0.272 OA
BRANCH   4   7
HETATM    7  N   UNL     1      39.533 -15.094   1.153  1.00  0.00    -0.262 N 
HETATM    8  C   UNL     1      38.683 -14.099   0.721  1.00  0.00     0.286 C 
HETATM    9  O   UNL     1      38.029 -13.421   1.513  1.00  0.00    -0.264 OA
HETATM   10  H   UNL     1      40.099 -15.664   0.529  1.00  0.00     0.190 HD
BRANCH   8  11
HETATM   11  C   UNL     1      38.615 -13.913  -0.711  1.00  0.00     0.102 A 
HETATM   12  N   UNL     1      39.329 -14.719  -1.575  1.00  0.00    -0.361 N 
HETATM   13  C   UNL     1      39.105 -14.344  -2.871  1.00  0.00     0.088 A 
HETATM   14  H   UNL     1      39.931 -15.475  -1.269  1.00  0.00     0.165 HD
HETATM   15  C   UNL     1      38.235 -13.280  -2.857  1.00  0.00     0.019 A 
HETATM   16  C   UNL     1      37.924 -13.008  -1.501  1.00  0.00     0.036 A 
ENDBRANCH   8  11
ENDBRANCH   4   7
ENDBRANCH   2   3
ENDBRANCH   1   2
BRANCH   1  17
HETATM   17  N   UNL     1      42.537 -16.501   3.876  1.00  0.00    -0.290 NA
HETATM   18  H   UNL     1      43.308 -15.886   4.165  1.00  0.00     0.127 HD
BRANCH  17  19
HETATM   19  C   UNL     1      43.022 -17.740   3.422  1.00  0.00     0.041 A 
HETATM   20  C   UNL     1      42.632 -18.296   2.179  1.00  0.00     0.124 A 
HETATM   21  C   UNL     1      43.044 -19.581   1.769  1.00  0.00     0.054 A 
HETATM   22  C   UNL     1      43.844 -20.367   2.605  1.00  0.00     0.050 A 
HETATM   23  C   UNL     1      44.210 -19.848   3.852  1.00  0.00     0.018 A 
HETATM   24  C   UNL     1      43.794 -18.569   4.253  1.00  0.00     0.027 A 
BRANCH  20  25
HETATM   25  N   UNL     1      41.793 -17.535   1.248  1.00  0.00    -0.114 N 
HETATM   26  O   UNL     1      40.625 -17.920   1.070  1.00  0.00    -0.532 OA
HETATM   27  O   UNL     1      42.293 -16.535   0.715  1.00  0.00    -0.532 OA
ENDBRANCH  20  25
BRANCH  22  28
HETATM   28  C   UNL     1      44.305 -21.745   2.195  1.00  0.00     0.417 C 
HETATM   29  F   UNL     1      43.518 -22.319   1.245  1.00  0.00    -0.166 F 
HETATM   30  F   UNL     1      45.565 -21.734   1.680  1.00  0.00    -0.166 F 
HETATM   31  F   UNL     1      44.333 -22.617   3.239  1.00  0.00    -0.166 F 
ENDBRANCH  22  28
ENDBRANCH  17  19
ENDBRANCH   1  17
TORSDOF 8
ENDMDL
MODEL 5
REMARK VINA RESULT:      -8.2      4.893      7.963
REMARK  8 active torsions:
REMARK  status: ('A' for Active; 'I' for Inactive)
REMARK    1  A    between atoms: C_5  and  C_6 
REMARK       I    between atoms: C_6  and  N_7 
REMARK    2  A    between atoms: N_7  and  N_8 
REMARK       I    between atoms: N_8  and  C_9 
REMARK    3  A    between atoms: C_9  and  C_10 
REMARK    4  A    between atoms: C_10  and  C_11 
REMARK    5  A    between atoms: C_11  and  N_12 
REMARK    6  A    between atoms: N_12  and  C_13 
REMARK    7  A    between atoms: C_14  and  N_15 
REMARK    8  A    between atoms: C_19  and  C_20 
ROOT
HETATM    1  C   UNL     1      41.923 -14.729   3.879  1.00  0.00     0.102 C 
ENDROOT
BRANCH   1   2
HETATM    2  C   UNL     1      40.893 -13.737   3.354  1.00  0.00     0.119 C 
BRANCH   2   3
HETATM    3  C   UNL     1      40.146 -14.386   2.219  1.00  0.00     0.237 C 
HETATM    4  N   UNL     1      40.818 -14.378   1.016  1.00  0.00    -0.267 N 
HETATM    5  H   UNL     1      41.787 -14.089   0.894  1.00  0.00     0.190 HD
HETATM    6  O   UNL     1      39.002 -14.818   2.339  1.00  0.00    -0.272 OA
BRANCH   4   7
HETATM    7  N   UNL     1      40.178 -14.920  -0.100  1.00  0.00    -0.262 N 
HETATM    8  C   UNL     1      40.340 -14.315  -1.328  1.00  0.00     0.286 C 
HETATM    9  O   UNL     1      41.055 -13.323  -1.468  1.00  0.00    -0.264 OA
HETATM   10  H   UNL     1      39.608 -15.748   0.050  1.00  0.00     0.190 HD
BRANCH   8  11
HETATM   11  C   UNL     1      39.618 -14.921  -2.423  1.00  0.00     0.102 A 
HETATM   12  N   UNL     1      38.269 -14.693  -2.609  1.00  0.00    -0.361 N 
HETATM   13  C   UNL     1      37.817 -15.378  -3.703  1.00  0.00     0.088 A 
HETATM   14  H   UNL     1      37.712 -14.099  -2.006  1.00  0.00     0.165 HD
HETATM   15  C   UNL     1      38.879 -16.063  -4.240  1.00  0.00     0.019 A 
HETATM   16  C   UNL     1      40.013 -15.778  -3.439  1.00  0.00     0.036 A 
ENDBRANCH   8  11
ENDBRANCH   4   7
ENDBRANCH   2   3
ENDBRANCH   1   2
BRANCH   1  17
HETATM   17  N   UNL     1      41.399 -16.093   3.790  1.00  0.00    -0.290 NA
HETATM   18  H   UNL     1      40.631 -16.175   3.113  1.00  0.00     0.127 HD
BRANCH  17  19
HETATM   19  C   UNL     1      42.285 -17.180   3.685  1.00  0.00     0.041 A 
HETATM   20  C   UNL     1      42.450 -17.908   2.481  1.00  0.00     0.124 A 
HETATM   21  C   UNL     1      43.266 -19.055   2.403  1.00  0.00     0.054 A 
HETATM   22  C   UNL     1      43.928 -19.531   3.541  1.00  0.00     0.050 A 
HETATM   23  C   UNL     1      43.748 -18.845   4.747  1.00  0.00     0.018 A 
HETATM   24  C   UNL     1      42.933 -17.705   4.816  1.00  0.00     0.027 A 
BRANCH  20  25
HETATM   25  N   UNL     1      41.788 -17.475   1.247  1.00  0.00    -0.114 N 
HETATM   26  O   UNL     1      40.571 -17.691   1.133  1.00  0.00    -0.532 OA
HETATM   27  O   UNL     1      42.481 -16.891   0.401  1.00  0.00    -0.532 OA
ENDBRANCH  20  25
BRANCH  22  28
HETATM   28  C   UNL     1      44.811 -20.754   3.491  1.00  0.00     0.417 C 
HETATM   29  F   UNL     1      45.460 -21.002   4.661  1.00  0.00    -0.166 F 
HETATM   30  F   UNL     1      44.108 -21.885   3.205  1.00  0.00    -0.166 F 
HETATM   31  F   UNL     1      45.777 -20.661   2.537  1.00  0.00    -0.166 F 
ENDBRANCH  22  28
ENDBRANCH  17  19
ENDBRANCH   1  17
TORSDOF 8
ENDMDL
MODEL 6
REMARK VINA RESULT:      -8.1      2.227      2.826
REMARK  8 active torsions:
REMARK  status: ('A' for Active; 'I' for Inactive)
REMARK    1  A    between atoms: C_5  and  C_6 
REMARK       I    between atoms: C_6  and  N_7 
REMARK    2  A    between atoms: N_7  and  N_8 
REMARK       I    between atoms: N_8  and  C_9 
REMARK    3  A    between atoms: C_9  and  C_10 
REMARK    4  A    between atoms: C_10  and  C_11 
REMARK    5  A    between atoms: C_11  and  N_12 
REMARK    6  A    between atoms: N_12  and  C_13 
REMARK    7  A    between atoms: C_14  and  N_15 
REMARK    8  A    between atoms: C_19  and  C_20 
ROOT
HETATM    1  C   UNL     1      40.915 -15.003   3.774  1.00  0.00     0.102 C 
ENDROOT
BRANCH   1   2
HETATM    2  C   UNL     1      42.357 -14.634   4.094  1.00  0.00     0.119 C 
BRANCH   2   3
HETATM    3  C   UNL     1      42.369 -13.814   5.357  1.00  0.00     0.237 C 
HETATM    4  N   UNL     1      43.491 -13.984   6.136  1.00  0.00    -0.267 N 
HETATM    5  H   UNL     1      44.320 -14.506   5.856  1.00  0.00     0.190 HD
HETATM    6  O   UNL     1      41.422 -13.108   5.698  1.00  0.00    -0.272 OA
BRANCH   4   7
HETATM    7  N   UNL     1      43.564 -13.293   7.348  1.00  0.00    -0.262 N 
HETATM    8  C   UNL     1      44.801 -13.016   7.891  1.00  0.00     0.286 C 
HETATM    9  O   UNL     1      45.842 -13.340   7.320  1.00  0.00    -0.264 OA
HETATM   10  H   UNL     1      42.685 -13.029   7.783  1.00  0.00     0.190 HD
BRANCH   8  11
HETATM   11  C   UNL     1      44.785 -12.328   9.161  1.00  0.00     0.102 A 
HETATM   12  N   UNL     1      43.917 -12.698  10.168  1.00  0.00    -0.361 N 
HETATM   13  C   UNL     1      44.090 -11.897  11.264  1.00  0.00     0.088 A 
HETATM   14  H   UNL     1      43.252 -13.459  10.085  1.00  0.00     0.165 HD
HETATM   15  C   UNL     1      45.081 -10.991  10.971  1.00  0.00     0.019 A 
HETATM   16  C   UNL     1      45.521 -11.260   9.651  1.00  0.00     0.036 A 
ENDBRANCH   8  11
ENDBRANCH   4   7
ENDBRANCH   2   3
ENDBRANCH   1   2
BRANCH   1  17
HETATM   17  N   UNL     1      40.687 -16.424   4.044  1.00  0.00    -0.290 NA
HETATM   18  H   UNL     1      39.837 -16.779   3.588  1.00  0.00     0.127 HD
BRANCH  17  19
HETATM   19  C   UNL     1      41.746 -17.341   3.922  1.00  0.00     0.041 A 
HETATM   20  C   UNL     1      42.152 -17.867   2.672  1.00  0.00     0.124 A 
HETATM   21  C   UNL     1      43.151 -18.856   2.562  1.00  0.00     0.054 A 
HETATM   22  C   UNL     1      43.761 -19.376   3.709  1.00  0.00     0.050 A 
HETATM   23  C   UNL     1      43.347 -18.893   4.955  1.00  0.00     0.018 A 
HETATM   24  C   UNL     1      42.352 -17.909   5.056  1.00  0.00     0.027 A 
BRANCH  20  25
HETATM   25  N   UNL     1      41.559 -17.375   1.424  1.00  0.00    -0.114 N 
HETATM   26  O   UNL     1      42.325 -16.942   0.548  1.00  0.00    -0.532 OA
HETATM   27  O   UNL     1      40.328 -17.448   1.308  1.00  0.00    -0.532 OA
ENDBRANCH  20  25
BRANCH  22  28
HETATM   28  C   UNL     1      44.835 -20.434   3.626  1.00  0.00     0.417 C 
HETATM   29  F   UNL     1      45.525 -20.415   2.453  1.00  0.00    -0.166 F 
HETATM   30  F   UNL     1      45.765 -20.301   4.611  1.00  0.00    -0.166 F 
HETATM   31  F   UNL     1      44.335 -21.693   3.748  1.00  0.00    -0.166 F 
ENDBRANCH  22  28
ENDBRANCH  17  19
ENDBRANCH   1  17
TORSDOF 8
ENDMDL
MODEL 7
REMARK VINA RESULT:      -7.8      3.592      6.044
REMARK  8 active torsions:
REMARK  status: ('A' for Active; 'I' for Inactive)
REMARK    1  A    between atoms: C_5  and  C_6 
REMARK       I    between atoms: C_6  and  N_7 
REMARK    2  A    between atoms: N_7  and  N_8 
REMARK       I    between atoms: N_8  and  C_9 
REMARK    3  A    between atoms: C_9  and  C_10 
REMARK    4  A    between atoms: C_10  and  C_11 
REMARK    5  A    between atoms: C_11  and  N_12 
REMARK    6  A    between atoms: N_12  and  C_13 
REMARK    7  A    between atoms: C_14  and  N_15 
REMARK    8  A    between atoms: C_19  and  C_20 
ROOT
HETATM    1  C   UNL     1      43.262 -15.938   5.270  1.00  0.00     0.102 C 
ENDROOT
BRANCH   1   2
HETATM    2  C   UNL     1      42.861 -14.487   5.502  1.00  0.00     0.119 C 
BRANCH   2   3
HETATM    3  C   UNL     1      43.216 -13.694   4.273  1.00  0.00     0.237 C 
HETATM    4  N   UNL     1      42.146 -13.072   3.668  1.00  0.00    -0.267 N 
HETATM    5  H   UNL     1      41.207 -13.020   4.060  1.00  0.00     0.190 HD
HETATM    6  O   UNL     1      44.353 -13.665   3.807  1.00  0.00    -0.272 OA
BRANCH   4   7
HETATM    7  N   UNL     1      42.379 -12.350   2.496  1.00  0.00    -0.262 N 
HETATM    8  C   UNL     1      41.762 -12.745   1.328  1.00  0.00     0.286 C 
HETATM    9  O   UNL     1      40.991 -13.704   1.300  1.00  0.00    -0.264 OA
HETATM   10  H   UNL     1      43.010 -11.555   2.560  1.00  0.00     0.190 HD
BRANCH   8  11
HETATM   11  C   UNL     1      42.083 -11.963   0.156  1.00  0.00     0.102 A 
HETATM   12  N   UNL     1      42.528 -10.660   0.261  1.00  0.00    -0.361 N 
HETATM   13  C   UNL     1      42.757 -10.134  -0.980  1.00  0.00     0.088 A 
HETATM   14  H   UNL     1      42.657 -10.181   1.145  1.00  0.00     0.165 HD
HETATM   15  C   UNL     1      42.459 -11.102  -1.909  1.00  0.00     0.019 A 
HETATM   16  C   UNL     1      42.036 -12.252  -1.199  1.00  0.00     0.036 A 
ENDBRANCH   8  11
ENDBRANCH   4   7
ENDBRANCH   2   3
ENDBRANCH   1   2
BRANCH   1  17
HETATM   17  N   UNL     1      43.126 -16.277   3.852  1.00  0.00    -0.290 NA
HETATM   18  H   UNL     1      43.549 -15.570   3.238  1.00  0.00     0.127 HD
BRANCH  17  19
HETATM   19  C   UNL     1      43.425 -17.577   3.409  1.00  0.00     0.041 A 
HETATM   20  C   UNL     1      42.901 -18.105   2.204  1.00  0.00     0.124 A 
HETATM   21  C   UNL     1      43.125 -19.440   1.808  1.00  0.00     0.054 A 
HETATM   22  C   UNL     1      43.864 -20.304   2.624  1.00  0.00     0.050 A 
HETATM   23  C   UNL     1      44.359 -19.810   3.836  1.00  0.00     0.018 A 
HETATM   24  C   UNL     1      44.130 -18.481   4.222  1.00  0.00     0.027 A 
BRANCH  20  25
HETATM   25  N   UNL     1      42.116 -17.263   1.296  1.00  0.00    -0.114 N 
HETATM   26  O   UNL     1      42.669 -16.266   0.803  1.00  0.00    -0.532 OA
HETATM   27  O   UNL     1      40.952 -17.614   1.053  1.00  0.00    -0.532 OA
ENDBRANCH  20  25
BRANCH  22  28
HETATM   28  C   UNL     1      44.124 -21.738   2.229  1.00  0.00     0.417 C 
HETATM   29  F   UNL     1      43.192 -22.242   1.375  1.00  0.00    -0.166 F 
HETATM   30  F   UNL     1      45.325 -21.890   1.606  1.00  0.00    -0.166 F 
HETATM   31  F   UNL     1      44.146 -22.577   3.300  1.00  0.00    -0.166 F 
ENDBRANCH  22  28
ENDBRANCH  17  19
ENDBRANCH   1  17
TORSDOF 8
ENDMDL
MODEL 8
REMARK VINA RESULT:      -7.7      6.262     10.222
REMARK  8 active torsions:
REMARK  status: ('A' for Active; 'I' for Inactive)
REMARK    1  A    between atoms: C_5  and  C_6 
REMARK       I    between atoms: C_6  and  N_7 
REMARK    2  A    between atoms: N_7  and  N_8 
REMARK       I    between atoms: N_8  and  C_9 
REMARK    3  A    between atoms: C_9  and  C_10 
REMARK    4  A    between atoms: C_10  and  C_11 
REMARK    5  A    between atoms: C_11  and  N_12 
REMARK    6  A    between atoms: N_12  and  C_13 
REMARK    7  A    between atoms: C_14  and  N_15 
REMARK    8  A    between atoms: C_19  and  C_20 
ROOT
HETATM    1  C   UNL     1      41.748 -10.551   7.163  1.00  0.00     0.102 C 
ENDROOT
BRANCH   1   2
HETATM    2  C   UNL     1      40.780 -11.597   6.625  1.00  0.00     0.119 C 
BRANCH   2   3
HETATM    3  C   UNL     1      41.570 -12.625   5.859  1.00  0.00     0.237 C 
HETATM    4  N   UNL     1      41.433 -13.913   6.327  1.00  0.00    -0.267 N 
HETATM    5  H   UNL     1      40.765 -14.204   7.040  1.00  0.00     0.190 HD
HETATM    6  O   UNL     1      42.331 -12.328   4.940  1.00  0.00    -0.272 OA
BRANCH   4   7
HETATM    7  N   UNL     1      42.165 -14.924   5.702  1.00  0.00    -0.262 N 
HETATM    8  C   UNL     1      41.695 -16.219   5.742  1.00  0.00     0.286 C 
HETATM    9  O   UNL     1      40.631 -16.501   6.294  1.00  0.00    -0.264 OA
HETATM   10  H   UNL     1      43.031 -14.652   5.243  1.00  0.00     0.190 HD
BRANCH   8  11
HETATM   11  C   UNL     1      42.529 -17.207   5.099  1.00  0.00     0.102 A 
HETATM   12  N   UNL     1      43.117 -16.964   3.873  1.00  0.00    -0.361 N 
HETATM   13  C   UNL     1      43.850 -18.047   3.473  1.00  0.00     0.088 A 
HETATM   14  H   UNL     1      43.006 -16.097   3.360  1.00  0.00     0.165 HD
HETATM   15  C   UNL     1      43.741 -19.012   4.446  1.00  0.00     0.019 A 
HETATM   16  C   UNL     1      42.913 -18.487   5.469  1.00  0.00     0.036 A 
ENDBRANCH   8  11
ENDBRANCH   4   7
ENDBRANCH   2   3
ENDBRANCH   1   2
BRANCH   1  17
HETATM   17  N   UNL     1      42.707 -11.175   8.077  1.00  0.00    -0.290 NA
HETATM   18  H   UNL     1      43.642 -11.268   7.661  1.00  0.00     0.127 HD
BRANCH  17  19
HETATM   19  C   UNL     1      42.788 -10.743   9.412  1.00  0.00     0.041 A 
HETATM   20  C   UNL     1      43.958 -10.911  10.192  1.00  0.00     0.124 A 
HETATM   21  C   UNL     1      44.007 -10.564  11.558  1.00  0.00     0.054 A 
HETATM   22  C   UNL     1      42.871 -10.058  12.200  1.00  0.00     0.050 A 
HETATM   23  C   UNL     1      41.696  -9.919  11.454  1.00  0.00     0.018 A 
HETATM   24  C   UNL     1      41.655 -10.268  10.095  1.00  0.00     0.027 A 
BRANCH  20  25
HETATM   25  N   UNL     1      45.189 -11.437   9.592  1.00  0.00    -0.114 N 
HETATM   26  O   UNL     1      45.346 -12.669   9.575  1.00  0.00    -0.532 OA
HETATM   27  O   UNL     1      45.986 -10.618   9.113  1.00  0.00    -0.532 OA
ENDBRANCH  20  25
BRANCH  22  28
HETATM   28  C   UNL     1      42.890  -9.674  13.660  1.00  0.00     0.417 C 
HETATM   29  F   UNL     1      41.966  -8.731  13.984  1.00  0.00    -0.166 F 
HETATM   30  F   UNL     1      42.643 -10.737  14.474  1.00  0.00    -0.166 F 
HETATM   31  F   UNL     1      44.093  -9.173  14.050  1.00  0.00    -0.166 F 
ENDBRANCH  22  28
ENDBRANCH  17  19
ENDBRANCH   1  17
TORSDOF 8
ENDMDL
MODEL 9
REMARK VINA RESULT:      -7.7      4.363      6.987
REMARK  8 active torsions:
REMARK  status: ('A' for Active; 'I' for Inactive)
REMARK    1  A    between atoms: C_5  and  C_6 
REMARK       I    between atoms: C_6  and  N_7 
REMARK    2  A    between atoms: N_7  and  N_8 
REMARK       I    between atoms: N_8  and  C_9 
REMARK    3  A    between atoms: C_9  and  C_10 
REMARK    4  A    between atoms: C_10  and  C_11 
REMARK    5  A    between atoms: C_11  and  N_12 
REMARK    6  A    between atoms: N_12  and  C_13 
REMARK    7  A    between atoms: C_14  and  N_15 
REMARK    8  A    between atoms: C_19  and  C_20 
ROOT
HETATM    1  C   UNL     1      41.797 -15.132   5.187  1.00  0.00     0.102 C 
ENDROOT
BRANCH   1   2
HETATM    2  C   UNL     1      41.899 -13.768   4.517  1.00  0.00     0.119 C 
BRANCH   2   3
HETATM    3  C   UNL     1      41.353 -13.884   3.118  1.00  0.00     0.237 C 
HETATM    4  N   UNL     1      42.315 -13.932   2.134  1.00  0.00    -0.267 N 
HETATM    5  H   UNL     1      43.316 -14.018   2.303  1.00  0.00     0.190 HD
HETATM    6  O   UNL     1      40.149 -13.862   2.872  1.00  0.00    -0.272 OA
BRANCH   4   7
HETATM    7  N   UNL     1      41.895 -13.996   0.803  1.00  0.00    -0.262 N 
HETATM    8  C   UNL     1      42.067 -12.897  -0.010  1.00  0.00     0.286 C 
HETATM    9  O   UNL     1      42.605 -11.869   0.402  1.00  0.00    -0.264 OA
HETATM   10  H   UNL     1      41.469 -14.866   0.495  1.00  0.00     0.190 HD
BRANCH   8  11
HETATM   11  C   UNL     1      41.576 -13.037  -1.361  1.00  0.00     0.102 A 
HETATM   12  N   UNL     1      41.893 -14.138  -2.131  1.00  0.00    -0.361 N 
HETATM   13  C   UNL     1      41.317 -14.037  -3.367  1.00  0.00     0.088 A 
HETATM   14  H   UNL     1      42.475 -14.902  -1.805  1.00  0.00     0.165 HD
HETATM   15  C   UNL     1      40.615 -12.857  -3.410  1.00  0.00     0.019 A 
HETATM   16  C   UNL     1      40.774 -12.226  -2.151  1.00  0.00     0.036 A 
ENDBRANCH   8  11
ENDBRANCH   4   7
ENDBRANCH   2   3
ENDBRANCH   1   2
BRANCH   1  17
HETATM   17  N   UNL     1      41.309 -16.127   4.231  1.00  0.00    -0.290 NA
HETATM   18  H   UNL     1      40.867 -15.698   3.408  1.00  0.00     0.127 HD
BRANCH  17  19
HETATM   19  C   UNL     1      42.130 -17.206   3.859  1.00  0.00     0.041 A 
HETATM   20  C   UNL     1      42.088 -17.778   2.564  1.00  0.00     0.124 A 
HETATM   21  C   UNL     1      42.843 -18.918   2.221  1.00  0.00     0.054 A 
HETATM   22  C   UNL     1      43.651 -19.545   3.177  1.00  0.00     0.050 A 
HETATM   23  C   UNL     1      43.677 -19.014   4.472  1.00  0.00     0.018 A 
HETATM   24  C   UNL     1      42.922 -17.879   4.804  1.00  0.00     0.027 A 
BRANCH  20  25
HETATM   25  N   UNL     1      41.265 -17.181   1.507  1.00  0.00    -0.114 N 
HETATM   26  O   UNL     1      41.828 -16.842   0.453  1.00  0.00    -0.532 OA
HETATM   27  O   UNL     1      40.048 -17.076   1.720  1.00  0.00    -0.532 OA
ENDBRANCH  20  25
BRANCH  22  28
HETATM   28  C   UNL     1      44.474 -20.766   2.843  1.00  0.00     0.417 C 
HETATM   29  F   UNL     1      44.672 -21.592   3.905  1.00  0.00    -0.166 F 
HETATM   30  F   UNL     1      43.892 -21.529   1.877  1.00  0.00    -0.166 F 
HETATM   31  F   UNL     1      45.712 -20.447   2.377  1.00  0.00    -0.166 F 
ENDBRANCH  22  28
ENDBRANCH  17  19
ENDBRANCH   1  17
TORSDOF 8
ENDMDL
MODEL 10
REMARK VINA RESULT:      -7.5      2.979      3.670
REMARK  8 active torsions:
REMARK  status: ('A' for Active; 'I' for Inactive)
REMARK    1  A    between atoms: C_5  and  C_6 
REMARK       I    between atoms: C_6  and  N_7 
REMARK    2  A    between atoms: N_7  and  N_8 
REMARK       I    between atoms: N_8  and  C_9 
REMARK    3  A    between atoms: C_9  and  C_10 
REMARK    4  A    between atoms: C_10  and  C_11 
REMARK    5  A    between atoms: C_11  and  N_12 
REMARK    6  A    between atoms: N_12  and  C_13 
REMARK    7  A    between atoms: C_14  and  N_15 
REMARK    8  A    between atoms: C_19  and  C_20 
ROOT
HETATM    1  C   UNL     1      39.921 -16.143   2.086  1.00  0.00     0.102 C 
ENDROOT
BRANCH   1   2
HETATM    2  C   UNL     1      39.248 -14.779   2.149  1.00  0.00     0.119 C 
BRANCH   2   3
HETATM    3  C   UNL     1      40.014 -13.915   3.115  1.00  0.00     0.237 C 
HETATM    4  N   UNL     1      39.775 -14.196   4.442  1.00  0.00    -0.267 N 
HETATM    5  H   UNL     1      39.238 -14.993   4.780  1.00  0.00     0.190 HD
HETATM    6  O   UNL     1      40.735 -12.989   2.751  1.00  0.00    -0.272 OA
BRANCH   4   7
HETATM    7  N   UNL     1      40.412 -13.413   5.408  1.00  0.00    -0.262 N 
HETATM    8  C   UNL     1      39.693 -12.437   6.064  1.00  0.00     0.286 C 
HETATM    9  O   UNL     1      38.497 -12.257   5.838  1.00  0.00    -0.264 OA
HETATM   10  H   UNL     1      41.397 -13.600   5.578  1.00  0.00     0.190 HD
BRANCH   8  11
HETATM   11  C   UNL     1      40.437 -11.652   7.023  1.00  0.00     0.102 A 
HETATM   12  N   UNL     1      39.952 -11.425   8.296  1.00  0.00    -0.361 N 
HETATM   13  C   UNL     1      40.829 -10.655   9.009  1.00  0.00     0.088 A 
HETATM   14  H   UNL     1      39.067 -11.787   8.632  1.00  0.00     0.165 HD
HETATM   15  C   UNL     1      41.900 -10.373   8.195  1.00  0.00     0.019 A 
HETATM   16  C   UNL     1      41.657 -10.999   6.947  1.00  0.00     0.036 A 
ENDBRANCH   8  11
ENDBRANCH   4   7
ENDBRANCH   2   3
ENDBRANCH   1   2
BRANCH   1  17
HETATM   17  N   UNL     1      41.328 -16.029   2.475  1.00  0.00    -0.290 NA
HETATM   18  H   UNL     1      41.476 -15.326   3.210  1.00  0.00     0.127 HD
BRANCH  17  19
HETATM   19  C   UNL     1      42.084 -17.188   2.725  1.00  0.00     0.041 A 
HETATM   20  C   UNL     1      42.700 -17.435   3.976  1.00  0.00     0.124 A 
HETATM   21  C   UNL     1      43.535 -18.550   4.195  1.00  0.00     0.054 A 
HETATM   22  C   UNL     1      43.805 -19.446   3.154  1.00  0.00     0.050 A 
HETATM   23  C   UNL     1      43.234 -19.198   1.902  1.00  0.00     0.018 A 
HETATM   24  C   UNL     1      42.405 -18.085   1.692  1.00  0.00     0.027 A 
BRANCH  20  25
HETATM   25  N   UNL     1      42.468 -16.541   5.115  1.00  0.00    -0.114 N 
HETATM   26  O   UNL     1      41.300 -16.400   5.514  1.00  0.00    -0.532 OA
HETATM   27  O   UNL     1      43.457 -16.002   5.630  1.00  0.00    -0.532 OA
ENDBRANCH  20  25
BRANCH  22  28
HETATM   28  C   UNL     1      44.693 -20.651   3.356  1.00  0.00     0.417 C 
HETATM   29  F   UNL     1      45.792 -20.653   2.555  1.00  0.00    -0.166 F 
HETATM   30  F   UNL     1      45.158 -20.738   4.632  1.00  0.00    -0.166 F 
HETATM   31  F   UNL     1      44.045 -21.822   3.110  1.00  0.00    -0.166 F 
ENDBRANCH  22  28
ENDBRANCH  17  19
ENDBRANCH   1  17
TORSDOF 8
ENDMDL
