MODEL 1
REMARK VINA RESULT:     -10.5      0.000      0.000
REMARK  9 active torsions:
REMARK  status: ('A' for Active; 'I' for Inactive)
REMARK    1  A    between atoms: C_4  and  S_5 
REMARK    2  A    between atoms: S_5  and  C_6 
REMARK    3  A    between atoms: C_6  and  C_7 
REMARK       I    between atoms: C_7  and  N_8 
REMARK    4  A    between atoms: N_8  and  C_9 
REMARK    5  A    between atoms: C_10  and  O_11 
REMARK    6  A    between atoms: C_16  and  O_17 
REMARK    7  A    between atoms: C_24  and  C_25 
REMARK    8  A    between atoms: C_31  and  C_32 
REMARK       I    between atoms: C_32  and  N_33 
REMARK    9  A    between atoms: N_33  and  C_34 
ROOT
HETATM    1  C   UNL     1      43.055 -17.036   7.858  1.00  0.00     0.069 C 
HETATM    2  C   UNL     1      42.929 -16.258   6.568  1.00  0.00     0.019 A 
HETATM    3  N   UNL     1      42.105 -15.148   6.631  1.00  0.00    -0.353 N 
HETATM    4  C   UNL     1      41.865 -14.268   5.595  1.00  0.00     0.087 A 
HETATM    5  C   UNL     1      42.512 -14.440   4.420  1.00  0.00     0.055 A 
HETATM    6  C   UNL     1      42.355 -13.455   3.274  1.00  0.00     0.019 C 
HETATM    7  N   UNL     1      42.224 -12.638   2.322  1.00  0.00    -0.096 N 
HETATM    8  C   UNL     1      43.413 -15.657   4.182  1.00  0.00     0.104 A 
HETATM    9  C   UNL     1      43.560 -16.572   5.408  1.00  0.00     0.046 A 
HETATM   10  H   UNL     1      41.816 -14.826   7.550  1.00  0.00     0.166 HD
ENDROOT
BRANCH   4  11
HETATM   11  S   UNL     1      40.747 -12.937   5.806  1.00  0.00    -0.102 SA
BRANCH  11  12
HETATM   12  C   UNL     1      41.881 -11.532   5.966  1.00  0.00     0.184 C 
BRANCH  12  13
HETATM   13  C   UNL     1      41.796 -10.828   7.318  1.00  0.00     0.231 C 
HETATM   14  N   UNL     1      42.597 -11.431   8.283  1.00  0.00    -0.324 N 
HETATM   15  H   UNL     1      43.201 -12.172   7.955  1.00  0.00     0.169 HD
HETATM   16  O   UNL     1      41.164  -9.782   7.434  1.00  0.00    -0.272 OA
BRANCH  14  17
HETATM   17  C   UNL     1      42.867 -10.982   9.601  1.00  0.00     0.071 A 
HETATM   18  C   UNL     1      44.130 -10.625  10.111  1.00  0.00     0.096 A 
HETATM   19  C   UNL     1      44.245 -10.221  11.451  1.00  0.00     0.065 A 
HETATM   20  C   UNL     1      43.123 -10.167  12.278  1.00  0.00     0.070 A 
HETATM   21 CL   UNL     1      43.329  -9.664  13.919  1.00  0.00    -0.081 Cl
HETATM   22  C   UNL     1      41.869 -10.507  11.778  1.00  0.00     0.092 A 
HETATM   23  C   UNL     1      41.740 -10.876  10.436  1.00  0.00     0.071 A 
BRANCH  18  24
HETATM   24  O   UNL     1      45.172 -10.524   9.232  1.00  0.00    -0.354 OA
HETATM   25  C   UNL     1      45.903 -11.712   8.955  1.00  0.00     0.210 C 
ENDBRANCH  18  24
BRANCH  22  26
HETATM   26  O   UNL     1      40.764 -10.400  12.582  1.00  0.00    -0.354 OA
HETATM   27  C   UNL     1      40.180 -11.670  12.866  1.00  0.00     0.210 C 
ENDBRANCH  22  26
ENDBRANCH  14  17
ENDBRANCH  12  13
ENDBRANCH  11  12
ENDBRANCH   4  11
BRANCH   8  28
HETATM   28  C   UNL     1      42.980 -16.414   2.923  1.00  0.00    -0.044 A 
HETATM   29  C   UNL     1      41.635 -16.786   2.753  1.00  0.00     0.008 A 
HETATM   30  C   UNL     1      41.227 -17.485   1.616  1.00  0.00     0.001 A 
HETATM   31  C   UNL     1      42.154 -17.820   0.633  1.00  0.00     0.000 A 
HETATM   32  C   UNL     1      43.490 -17.465   0.789  1.00  0.00     0.001 A 
HETATM   33  C   UNL     1      43.905 -16.777   1.931  1.00  0.00     0.008 A 
ENDBRANCH   8  28
BRANCH   9  34
HETATM   34  C   UNL     1      44.312 -17.876   5.293  1.00  0.00     0.255 C 
HETATM   35  N   UNL     1      43.696 -18.850   4.534  1.00  0.00    -0.323 N 
HETATM   36  H   UNL     1      42.799 -18.641   4.124  1.00  0.00     0.169 HD
HETATM   37  O   UNL     1      45.371 -18.018   5.899  1.00  0.00    -0.268 OA
BRANCH  35  38
HETATM   38  C   UNL     1      44.119 -20.187   4.355  1.00  0.00     0.035 A 
HETATM   39  C   UNL     1      44.521 -21.032   5.391  1.00  0.00     0.029 A 
HETATM   40  C   UNL     1      44.912 -22.349   5.124  1.00  0.00     0.002 A 
HETATM   41  C   UNL     1      44.903 -22.834   3.819  1.00  0.00     0.000 A 
HETATM   42  C   UNL     1      44.506 -22.001   2.778  1.00  0.00     0.002 A 
HETATM   43  C   UNL     1      44.120 -20.684   3.044  1.00  0.00     0.029 A 
ENDBRANCH  35  38
ENDBRANCH   9  34
TORSDOF 9
ENDMDL
MODEL 2
REMARK VINA RESULT:      -9.8      2.916      5.455
REMARK  9 active torsions:
REMARK  status: ('A' for Active; 'I' for Inactive)
REMARK    1  A    between atoms: C_4  and  S_5 
REMARK    2  A    between atoms: S_5  and  C_6 
REMARK    3  A    between atoms: C_6  and  C_7 
REMARK       I    between atoms: C_7  and  N_8 
REMARK    4  A    between atoms: N_8  and  C_9 
REMARK    5  A    between atoms: C_10  and  O_11 
REMARK    6  A    between atoms: C_16  and  O_17 
REMARK    7  A    between atoms: C_24  and  C_25 
REMARK    8  A    between atoms: C_31  and  C_32 
REMARK       I    between atoms: C_32  and  N_33 
REMARK    9  A    between atoms: N_33  and  C_34 
ROOT
HETATM    1  C   UNL     1      41.617 -11.172   0.995  1.00  0.00     0.069 C 
HETATM    2  C   UNL     1      41.518 -12.376   1.903  1.00  0.00     0.019 A 
HETATM    3  N   UNL     1      41.787 -12.127   3.237  1.00  0.00    -0.353 N 
HETATM    4  C   UNL     1      41.726 -13.058   4.255  1.00  0.00     0.087 A 
HETATM    5  C   UNL     1      41.320 -14.317   3.974  1.00  0.00     0.055 A 
HETATM    6  C   UNL     1      41.149 -15.360   5.066  1.00  0.00     0.019 C 
HETATM    7  N   UNL     1      41.007 -16.226   5.972  1.00  0.00    -0.096 N 
HETATM    8  C   UNL     1      41.043 -14.756   2.532  1.00  0.00     0.104 A 
HETATM    9  C   UNL     1      41.186 -13.629   1.498  1.00  0.00     0.046 A 
HETATM   10  H   UNL     1      41.829 -11.157   3.538  1.00  0.00     0.166 HD
ENDROOT
BRANCH   4  11
HETATM   11  S   UNL     1      42.153 -12.607   5.893  1.00  0.00    -0.102 SA
BRANCH  11  12
HETATM   12  C   UNL     1      41.227 -11.063   6.097  1.00  0.00     0.184 C 
BRANCH  12  13
HETATM   13  C   UNL     1      41.661 -10.245   7.312  1.00  0.00     0.231 C 
HETATM   14  N   UNL     1      41.773 -11.020   8.462  1.00  0.00    -0.324 N 
HETATM   15  H   UNL     1      41.661 -12.018   8.335  1.00  0.00     0.169 HD
HETATM   16  O   UNL     1      41.974  -9.065   7.186  1.00  0.00    -0.272 OA
BRANCH  14  17
HETATM   17  C   UNL     1      42.269 -10.635   9.733  1.00  0.00     0.071 A 
HETATM   18  C   UNL     1      43.624 -10.595  10.115  1.00  0.00     0.096 A 
HETATM   19  C   UNL     1      43.963 -10.214  11.423  1.00  0.00     0.065 A 
HETATM   20  C   UNL     1      42.973  -9.870  12.344  1.00  0.00     0.070 A 
HETATM   21 CL   UNL     1      43.452  -9.411  13.940  1.00  0.00    -0.081 Cl
HETATM   22  C   UNL     1      41.632  -9.895  11.970  1.00  0.00     0.092 A 
HETATM   23  C   UNL     1      41.289 -10.239  10.660  1.00  0.00     0.071 A 
BRANCH  18  24
HETATM   24  O   UNL     1      44.570 -10.770   9.143  1.00  0.00    -0.354 OA
HETATM   25  C   UNL     1      45.192 -12.047   9.066  1.00  0.00     0.210 C 
ENDBRANCH  18  24
BRANCH  22  26
HETATM   26  O   UNL     1      40.670  -9.504  12.865  1.00  0.00    -0.354 OA
HETATM   27  C   UNL     1      39.366  -9.505  12.287  1.00  0.00     0.210 C 
ENDBRANCH  22  26
ENDBRANCH  14  17
ENDBRANCH  12  13
ENDBRANCH  11  12
ENDBRANCH   4  11
BRANCH   8  28
HETATM   28  C   UNL     1      41.865 -15.998   2.176  1.00  0.00    -0.044 A 
HETATM   29  C   UNL     1      43.269 -15.927   2.148  1.00  0.00     0.008 A 
HETATM   30  C   UNL     1      44.033 -17.048   1.816  1.00  0.00     0.001 A 
HETATM   31  C   UNL     1      43.407 -18.253   1.509  1.00  0.00     0.000 A 
HETATM   32  C   UNL     1      42.018 -18.337   1.526  1.00  0.00     0.001 A 
HETATM   33  C   UNL     1      41.251 -17.215   1.845  1.00  0.00     0.008 A 
ENDBRANCH   8  28
BRANCH   9  34
HETATM   34  C   UNL     1      41.068 -13.933   0.024  1.00  0.00     0.255 C 
HETATM   35  N   UNL     1      39.813 -14.318  -0.401  1.00  0.00    -0.323 N 
HETATM   36  H   UNL     1      39.075 -14.383   0.282  1.00  0.00     0.169 HD
HETATM   37  O   UNL     1      42.068 -13.874  -0.687  1.00  0.00    -0.268 OA
BRANCH  35  38
HETATM   38  C   UNL     1      39.451 -14.765  -1.693  1.00  0.00     0.035 A 
HETATM   39  C   UNL     1      40.208 -15.651  -2.462  1.00  0.00     0.029 A 
HETATM   40  C   UNL     1      39.766 -16.053  -3.727  1.00  0.00     0.002 A 
HETATM   41  C   UNL     1      38.561 -15.574  -4.235  1.00  0.00     0.000 A 
HETATM   42  C   UNL     1      37.799 -14.689  -3.479  1.00  0.00     0.002 A 
HETATM   43  C   UNL     1      38.243 -14.284  -2.218  1.00  0.00     0.029 A 
ENDBRANCH  35  38
ENDBRANCH   9  34
TORSDOF 9
ENDMDL
MODEL 3
REMARK VINA RESULT:      -9.8      5.494      9.093
REMARK  9 active torsions:
REMARK  status: ('A' for Active; 'I' for Inactive)
REMARK    1  A    between atoms: C_4  and  S_5 
REMARK    2  A    between atoms: S_5  and  C_6 
REMARK    3  A    between atoms: C_6  and  C_7 
REMARK       I    between atoms: C_7  and  N_8 
REMARK    4  A    between atoms: N_8  and  C_9 
REMARK    5  A    between atoms: C_10  and  O_11 
REMARK    6  A    between atoms: C_16  and  O_17 
REMARK    7  A    between atoms: C_24  and  C_25 
REMARK    8  A    between atoms: C_31  and  C_32 
REMARK       I    between atoms: C_32  and  N_33 
REMARK    9  A    between atoms: N_33  and  C_34 
ROOT
HETATM    1  C   UNL     1      40.752 -16.688   1.149  1.00  0.00     0.069 C 
HETATM    2  C   UNL     1      40.787 -15.745   2.329  1.00  0.00     0.019 A 
HETATM    3  N   UNL     1      40.437 -14.438   2.045  1.00  0.00    -0.353 N 
HETATM    4  C   UNL     1      40.362 -13.410   2.964  1.00  0.00     0.087 A 
HETATM    5  C   UNL     1      40.591 -13.675   4.271  1.00  0.00     0.055 A 
HETATM    6  C   UNL     1      40.439 -12.604   5.337  1.00  0.00     0.019 C 
HETATM    7  N   UNL     1      40.312 -11.715   6.223  1.00  0.00    -0.096 N 
HETATM    8  C   UNL     1      41.046 -15.065   4.729  1.00  0.00     0.104 A 
HETATM    9  C   UNL     1      41.122 -16.100   3.596  1.00  0.00     0.046 A 
HETATM   10  H   UNL     1      39.999 -14.250   1.148  1.00  0.00     0.166 HD
ENDROOT
BRANCH   4  11
HETATM   11  S   UNL     1      39.960 -11.786   2.444  1.00  0.00    -0.102 SA
BRANCH  11  12
HETATM   12  C   UNL     1      38.244 -11.995   1.898  1.00  0.00     0.184 C 
BRANCH  12  13
HETATM   13  C   UNL     1      38.058 -13.122   0.885  1.00  0.00     0.231 C 
HETATM   14  N   UNL     1      38.740 -12.886  -0.304  1.00  0.00    -0.324 N 
HETATM   15  H   UNL     1      39.345 -12.075  -0.314  1.00  0.00     0.169 HD
HETATM   16  O   UNL     1      37.457 -14.146   1.198  1.00  0.00    -0.272 OA
BRANCH  14  17
HETATM   17  C   UNL     1      38.901 -13.759  -1.410  1.00  0.00     0.071 A 
HETATM   18  C   UNL     1      40.110 -14.342  -1.836  1.00  0.00     0.096 A 
HETATM   19  C   UNL     1      40.117 -15.171  -2.969  1.00  0.00     0.065 A 
HETATM   20  C   UNL     1      38.940 -15.426  -3.672  1.00  0.00     0.070 A 
HETATM   21 CL   UNL     1      39.012 -16.454  -5.060  1.00  0.00    -0.081 Cl
HETATM   22  C   UNL     1      37.738 -14.864  -3.250  1.00  0.00     0.092 A 
HETATM   23  C   UNL     1      37.716 -14.066  -2.103  1.00  0.00     0.071 A 
BRANCH  18  24
HETATM   24  O   UNL     1      41.205 -14.210  -1.028  1.00  0.00    -0.354 OA
HETATM   25  C   UNL     1      42.169 -13.232  -1.397  1.00  0.00     0.210 C 
ENDBRANCH  18  24
BRANCH  22  26
HETATM   26  O   UNL     1      36.577 -15.163  -3.915  1.00  0.00    -0.354 OA
HETATM   27  C   UNL     1      36.137 -14.086  -4.740  1.00  0.00     0.210 C 
ENDBRANCH  22  26
ENDBRANCH  14  17
ENDBRANCH  12  13
ENDBRANCH  11  12
ENDBRANCH   4  11
BRANCH   8  28
HETATM   28  C   UNL     1      42.342 -14.971   5.538  1.00  0.00    -0.044 A 
HETATM   29  C   UNL     1      43.340 -14.053   5.164  1.00  0.00     0.008 A 
HETATM   30  C   UNL     1      44.532 -13.963   5.886  1.00  0.00     0.001 A 
HETATM   31  C   UNL     1      44.743 -14.785   6.990  1.00  0.00     0.000 A 
HETATM   32  C   UNL     1      43.769 -15.703   7.368  1.00  0.00     0.001 A 
HETATM   33  C   UNL     1      42.581 -15.805   6.641  1.00  0.00     0.008 A 
ENDBRANCH   8  28
BRANCH   9  34
HETATM   34  C   UNL     1      41.674 -17.480   3.867  1.00  0.00     0.255 C 
HETATM   35  N   UNL     1      42.781 -17.830   3.122  1.00  0.00    -0.323 N 
HETATM   36  H   UNL     1      43.137 -17.167   2.452  1.00  0.00     0.169 HD
HETATM   37  O   UNL     1      41.102 -18.211   4.671  1.00  0.00    -0.268 OA
BRANCH  35  38
HETATM   38  C   UNL     1      43.425 -19.089   3.093  1.00  0.00     0.035 A 
HETATM   39  C   UNL     1      44.283 -19.558   4.090  1.00  0.00     0.029 A 
HETATM   40  C   UNL     1      44.867 -20.825   3.987  1.00  0.00     0.002 A 
HETATM   41  C   UNL     1      44.600 -21.636   2.887  1.00  0.00     0.000 A 
HETATM   42  C   UNL     1      43.749 -21.178   1.886  1.00  0.00     0.002 A 
HETATM   43  C   UNL     1      43.169 -19.910   1.987  1.00  0.00     0.029 A 
ENDBRANCH  35  38
ENDBRANCH   9  34
TORSDOF 9
ENDMDL
MODEL 4
REMARK VINA RESULT:      -9.7      2.443      4.489
REMARK  9 active torsions:
REMARK  status: ('A' for Active; 'I' for Inactive)
REMARK    1  A    between atoms: C_4  and  S_5 
REMARK    2  A    between atoms: S_5  and  C_6 
REMARK    3  A    between atoms: C_6  and  C_7 
REMARK       I    between atoms: C_7  and  N_8 
REMARK    4  A    between atoms: N_8  and  C_9 
REMARK    5  A    between atoms: C_10  and  O_11 
REMARK    6  A    between atoms: C_16  and  O_17 
REMARK    7  A    between atoms: C_24  and  C_25 
REMARK    8  A    between atoms: C_31  and  C_32 
REMARK       I    between atoms: C_32  and  N_33 
REMARK    9  A    between atoms: N_33  and  C_34 
ROOT
HETATM    1  C   UNL     1      41.743 -15.281   0.253  1.00  0.00     0.069 C 
HETATM    2  C   UNL     1      41.400 -14.962   1.690  1.00  0.00     0.019 A 
HETATM    3  N   UNL     1      40.590 -13.854   1.867  1.00  0.00    -0.353 N 
HETATM    4  C   UNL     1      40.118 -13.390   3.079  1.00  0.00     0.087 A 
HETATM    5  C   UNL     1      40.405 -14.081   4.206  1.00  0.00     0.055 A 
HETATM    6  C   UNL     1      39.841 -13.669   5.555  1.00  0.00     0.019 C 
HETATM    7  N   UNL     1      39.374 -13.328   6.676  1.00  0.00    -0.096 N 
HETATM    8  C   UNL     1      41.338 -15.296   4.174  1.00  0.00     0.104 A 
HETATM    9  C   UNL     1      41.819 -15.677   2.766  1.00  0.00     0.046 A 
HETATM   10  H   UNL     1      40.131 -13.468   1.046  1.00  0.00     0.166 HD
ENDROOT
BRANCH   4  11
HETATM   11  S   UNL     1      39.147 -11.935   3.151  1.00  0.00    -0.102 SA
BRANCH  11  12
HETATM   12  C   UNL     1      40.399 -10.650   2.889  1.00  0.00     0.184 C 
BRANCH  12  13
HETATM   13  C   UNL     1      40.604  -9.740   4.098  1.00  0.00     0.231 C 
HETATM   14  N   UNL     1      40.225 -10.347   5.291  1.00  0.00    -0.324 N 
HETATM   15  H   UNL     1      39.970 -11.324   5.228  1.00  0.00     0.169 HD
HETATM   16  O   UNL     1      41.156  -8.651   3.969  1.00  0.00    -0.272 OA
BRANCH  14  17
HETATM   17  C   UNL     1      40.390  -9.860   6.612  1.00  0.00     0.071 A 
HETATM   18  C   UNL     1      39.477  -9.051   7.317  1.00  0.00     0.096 A 
HETATM   19  C   UNL     1      39.792  -8.624   8.617  1.00  0.00     0.065 A 
HETATM   20  C   UNL     1      40.996  -8.995   9.217  1.00  0.00     0.070 A 
HETATM   21 CL   UNL     1      41.328  -8.437  10.819  1.00  0.00    -0.081 Cl
HETATM   22  C   UNL     1      41.898  -9.804   8.531  1.00  0.00     0.092 A 
HETATM   23  C   UNL     1      41.577 -10.262   7.251  1.00  0.00     0.071 A 
BRANCH  18  24
HETATM   24  O   UNL     1      38.241  -8.852   6.768  1.00  0.00    -0.354 OA
HETATM   25  C   UNL     1      38.005  -7.597   6.142  1.00  0.00     0.210 C 
ENDBRANCH  18  24
BRANCH  22  26
HETATM   26  O   UNL     1      43.054 -10.208   9.148  1.00  0.00    -0.354 OA
HETATM   27  C   UNL     1      43.474 -11.499   8.711  1.00  0.00     0.210 C 
ENDBRANCH  22  26
ENDBRANCH  14  17
ENDBRANCH  12  13
ENDBRANCH  11  12
ENDBRANCH   4  11
BRANCH   8  28
HETATM   28  C   UNL     1      42.489 -15.121   5.169  1.00  0.00    -0.044 A 
HETATM   29  C   UNL     1      43.371 -14.033   5.040  1.00  0.00     0.008 A 
HETATM   30  C   UNL     1      44.431 -13.865   5.933  1.00  0.00     0.001 A 
HETATM   31  C   UNL     1      44.625 -14.777   6.966  1.00  0.00     0.000 A 
HETATM   32  C   UNL     1      43.766 -15.863   7.103  1.00  0.00     0.001 A 
HETATM   33  C   UNL     1      42.711 -16.042   6.204  1.00  0.00     0.008 A 
ENDBRANCH   8  28
BRANCH   9  34
HETATM   34  C   UNL     1      42.842 -16.772   2.585  1.00  0.00     0.255 C 
HETATM   35  N   UNL     1      42.431 -18.033   2.966  1.00  0.00    -0.323 N 
HETATM   36  H   UNL     1      41.502 -18.141   3.344  1.00  0.00     0.169 HD
HETATM   37  O   UNL     1      43.962 -16.490   2.170  1.00  0.00    -0.268 OA
BRANCH  35  38
HETATM   38  C   UNL     1      43.215 -19.209   3.010  1.00  0.00     0.035 A 
HETATM   39  C   UNL     1      44.047 -19.563   4.074  1.00  0.00     0.029 A 
HETATM   40  C   UNL     1      44.778 -20.755   4.040  1.00  0.00     0.002 A 
HETATM   41  C   UNL     1      44.684 -21.606   2.942  1.00  0.00     0.000 A 
HETATM   42  C   UNL     1      43.861 -21.263   1.874  1.00  0.00     0.002 A 
HETATM   43  C   UNL     1      43.134 -20.070   1.906  1.00  0.00     0.029 A 
ENDBRANCH  35  38
ENDBRANCH   9  34
TORSDOF 9
ENDMDL
MODEL 5
REMARK VINA RESULT:      -9.6      5.141      8.201
REMARK  9 active torsions:
REMARK  status: ('A' for Active; 'I' for Inactive)
REMARK    1  A    between atoms: C_4  and  S_5 
REMARK    2  A    between atoms: S_5  and  C_6 
REMARK    3  A    between atoms: C_6  and  C_7 
REMARK       I    between atoms: C_7  and  N_8 
REMARK    4  A    between atoms: N_8  and  C_9 
REMARK    5  A    between atoms: C_10  and  O_11 
REMARK    6  A    between atoms: C_16  and  O_17 
REMARK    7  A    between atoms: C_24  and  C_25 
REMARK    8  A    between atoms: C_31  and  C_32 
REMARK       I    between atoms: C_32  and  N_33 
REMARK    9  A    between atoms: N_33  and  C_34 
ROOT
HETATM    1  C   UNL     1      41.709 -15.370   0.227  1.00  0.00     0.069 C 
HETATM    2  C   UNL     1      41.390 -15.026   1.664  1.00  0.00     0.019 A 
HETATM    3  N   UNL     1      40.583 -13.915   1.835  1.00  0.00    -0.353 N 
HETATM    4  C   UNL     1      40.132 -13.431   3.046  1.00  0.00     0.087 A 
HETATM    5  C   UNL     1      40.437 -14.102   4.180  1.00  0.00     0.055 A 
HETATM    6  C   UNL     1      39.896 -13.667   5.531  1.00  0.00     0.019 C 
HETATM    7  N   UNL     1      39.447 -13.306   6.654  1.00  0.00    -0.096 N 
HETATM    8  C   UNL     1      41.370 -15.317   4.154  1.00  0.00     0.104 A 
HETATM    9  C   UNL     1      41.827 -15.722   2.744  1.00  0.00     0.046 A 
HETATM   10  H   UNL     1      40.111 -13.544   1.016  1.00  0.00     0.166 HD
ENDROOT
BRANCH   4  11
HETATM   11  S   UNL     1      39.162 -11.974   3.110  1.00  0.00    -0.102 SA
BRANCH  11  12
HETATM   12  C   UNL     1      40.432 -10.687   2.987  1.00  0.00     0.184 C 
BRANCH  12  13
HETATM   13  C   UNL     1      40.623 -10.149   1.571  1.00  0.00     0.231 C 
HETATM   14  N   UNL     1      41.550 -10.888   0.843  1.00  0.00    -0.324 N 
HETATM   15  H   UNL     1      41.894 -11.728   1.288  1.00  0.00     0.169 HD
HETATM   16  O   UNL     1      39.917  -9.237   1.152  1.00  0.00    -0.272 OA
BRANCH  14  17
HETATM   17  C   UNL     1      41.885 -10.763  -0.530  1.00  0.00     0.071 A 
HETATM   18  C   UNL     1      42.754  -9.805  -1.087  1.00  0.00     0.096 A 
HETATM   19  C   UNL     1      42.970  -9.790  -2.474  1.00  0.00     0.065 A 
HETATM   20  C   UNL     1      42.336 -10.716  -3.304  1.00  0.00     0.070 A 
HETATM   21 CL   UNL     1      42.640 -10.646  -5.004  1.00  0.00    -0.081 Cl
HETATM   22  C   UNL     1      41.485 -11.674  -2.759  1.00  0.00     0.092 A 
HETATM   23  C   UNL     1      41.292 -11.717  -1.376  1.00  0.00     0.071 A 
BRANCH  18  24
HETATM   24  O   UNL     1      43.487  -9.030  -0.231  1.00  0.00    -0.354 OA
HETATM   25  C   UNL     1      44.246  -7.972  -0.804  1.00  0.00     0.210 C 
ENDBRANCH  18  24
BRANCH  22  26
HETATM   26  O   UNL     1      40.908 -12.613  -3.575  1.00  0.00    -0.354 OA
HETATM   27  C   UNL     1      41.429 -13.920  -3.342  1.00  0.00     0.210 C 
ENDBRANCH  22  26
ENDBRANCH  14  17
ENDBRANCH  12  13
ENDBRANCH  11  12
ENDBRANCH   4  11
BRANCH   8  28
HETATM   28  C   UNL     1      42.537 -15.125   5.126  1.00  0.00    -0.044 A 
HETATM   29  C   UNL     1      42.716 -16.020   6.196  1.00  0.00     0.008 A 
HETATM   30  C   UNL     1      43.769 -15.852   7.097  1.00  0.00     0.001 A 
HETATM   31  C   UNL     1      44.658 -14.792   6.942  1.00  0.00     0.000 A 
HETATM   32  C   UNL     1      44.490 -13.894   5.894  1.00  0.00     0.001 A 
HETATM   33  C   UNL     1      43.430 -14.051   4.998  1.00  0.00     0.008 A 
ENDBRANCH   8  28
BRANCH   9  34
HETATM   34  C   UNL     1      42.847 -16.821   2.566  1.00  0.00     0.255 C 
HETATM   35  N   UNL     1      42.421 -18.086   2.916  1.00  0.00    -0.323 N 
HETATM   36  H   UNL     1      41.484 -18.194   3.273  1.00  0.00     0.169 HD
HETATM   37  O   UNL     1      43.978 -16.538   2.178  1.00  0.00    -0.268 OA
BRANCH  35  38
HETATM   38  C   UNL     1      43.197 -19.267   2.955  1.00  0.00     0.035 A 
HETATM   39  C   UNL     1      44.061 -19.608   3.998  1.00  0.00     0.029 A 
HETATM   40  C   UNL     1      44.782 -20.807   3.962  1.00  0.00     0.002 A 
HETATM   41  C   UNL     1      44.644 -21.677   2.883  1.00  0.00     0.000 A 
HETATM   42  C   UNL     1      43.788 -21.347   1.838  1.00  0.00     0.002 A 
HETATM   43  C   UNL     1      43.072 -20.147   1.872  1.00  0.00     0.029 A 
ENDBRANCH  35  38
ENDBRANCH   9  34
TORSDOF 9
ENDMDL
MODEL 6
REMARK VINA RESULT:      -9.4      6.156      9.672
REMARK  9 active torsions:
REMARK  status: ('A' for Active; 'I' for Inactive)
REMARK    1  A    between atoms: C_4  and  S_5 
REMARK    2  A    between atoms: S_5  and  C_6 
REMARK    3  A    between atoms: C_6  and  C_7 
REMARK       I    between atoms: C_7  and  N_8 
REMARK    4  A    between atoms: N_8  and  C_9 
REMARK    5  A    between atoms: C_10  and  O_11 
REMARK    6  A    between atoms: C_16  and  O_17 
REMARK    7  A    between atoms: C_24  and  C_25 
REMARK    8  A    between atoms: C_31  and  C_32 
REMARK       I    between atoms: C_32  and  N_33 
REMARK    9  A    between atoms: N_33  and  C_34 
ROOT
HETATM    1  C   UNL     1      41.885 -15.518   0.079  1.00  0.00     0.069 C 
HETATM    2  C   UNL     1      41.493 -15.154   1.492  1.00  0.00     0.019 A 
HETATM    3  N   UNL     1      40.672 -14.046   1.605  1.00  0.00    -0.353 N 
HETATM    4  C   UNL     1      40.157 -13.547   2.785  1.00  0.00     0.087 A 
HETATM    5  C   UNL     1      40.409 -14.199   3.943  1.00  0.00     0.055 A 
HETATM    6  C   UNL     1      39.798 -13.747   5.259  1.00  0.00     0.019 C 
HETATM    7  N   UNL     1      39.292 -13.372   6.351  1.00  0.00    -0.096 N 
HETATM    8  C   UNL     1      41.349 -15.408   3.983  1.00  0.00     0.104 A 
HETATM    9  C   UNL     1      41.879 -15.831   2.604  1.00  0.00     0.046 A 
HETATM   10  H   UNL     1      40.239 -13.690   0.758  1.00  0.00     0.166 HD
ENDROOT
BRANCH   4  11
HETATM   11  S   UNL     1      39.177 -12.095   2.778  1.00  0.00    -0.102 SA
BRANCH  11  12
HETATM   12  C   UNL     1      39.401 -11.515   1.075  1.00  0.00     0.184 C 
BRANCH  12  13
HETATM   13  C   UNL     1      38.206 -11.802   0.168  1.00  0.00     0.231 C 
HETATM   14  N   UNL     1      38.575 -11.957  -1.164  1.00  0.00    -0.324 N 
HETATM   15  H   UNL     1      39.569 -11.968  -1.349  1.00  0.00     0.169 HD
HETATM   16  O   UNL     1      37.091 -11.981   0.649  1.00  0.00    -0.272 OA
BRANCH  14  17
HETATM   17  C   UNL     1      37.762 -12.354  -2.256  1.00  0.00     0.071 A 
HETATM   18  C   UNL     1      36.745 -11.586  -2.854  1.00  0.00     0.096 A 
HETATM   19  C   UNL     1      36.005 -12.126  -3.918  1.00  0.00     0.065 A 
HETATM   20  C   UNL     1      36.270 -13.412  -4.390  1.00  0.00     0.070 A 
HETATM   21 CL   UNL     1      35.323 -14.022  -5.701  1.00  0.00    -0.081 Cl
HETATM   22  C   UNL     1      37.282 -14.173  -3.812  1.00  0.00     0.092 A 
HETATM   23  C   UNL     1      38.046 -13.630  -2.776  1.00  0.00     0.071 A 
BRANCH  18  24
HETATM   24  O   UNL     1      36.630 -10.275  -2.483  1.00  0.00    -0.354 OA
HETATM   25  C   UNL     1      35.372  -9.855  -1.970  1.00  0.00     0.210 C 
ENDBRANCH  18  24
BRANCH  22  26
HETATM   26  O   UNL     1      37.571 -15.415  -4.317  1.00  0.00    -0.354 OA
HETATM   27  C   UNL     1      38.929 -15.787  -4.085  1.00  0.00     0.210 C 
ENDBRANCH  22  26
ENDBRANCH  14  17
ENDBRANCH  12  13
ENDBRANCH  11  12
ENDBRANCH   4  11
BRANCH   8  28
HETATM   28  C   UNL     1      42.465 -15.194   5.009  1.00  0.00    -0.044 A 
HETATM   29  C   UNL     1      43.356 -14.116   4.864  1.00  0.00     0.008 A 
HETATM   30  C   UNL     1      44.385 -13.913   5.786  1.00  0.00     0.001 A 
HETATM   31  C   UNL     1      44.538 -14.780   6.864  1.00  0.00     0.000 A 
HETATM   32  C   UNL     1      43.668 -15.855   7.017  1.00  0.00     0.001 A 
HETATM   33  C   UNL     1      42.646 -16.069   6.091  1.00  0.00     0.008 A 
ENDBRANCH   8  28
BRANCH   9  34
HETATM   34  C   UNL     1      42.913 -16.926   2.493  1.00  0.00     0.255 C 
HETATM   35  N   UNL     1      42.474 -18.190   2.831  1.00  0.00    -0.323 N 
HETATM   36  H   UNL     1      41.519 -18.300   3.135  1.00  0.00     0.169 HD
HETATM   37  O   UNL     1      44.062 -16.640   2.168  1.00  0.00    -0.268 OA
BRANCH  35  38
HETATM   38  C   UNL     1      43.253 -19.366   2.925  1.00  0.00     0.035 A 
HETATM   39  C   UNL     1      44.094 -19.671   3.997  1.00  0.00     0.029 A 
HETATM   40  C   UNL     1      44.819 -20.868   4.015  1.00  0.00     0.002 A 
HETATM   41  C   UNL     1      44.709 -21.772   2.962  1.00  0.00     0.000 A 
HETATM   42  C   UNL     1      43.876 -21.478   1.887  1.00  0.00     0.002 A 
HETATM   43  C   UNL     1      43.155 -20.281   1.867  1.00  0.00     0.029 A 
ENDBRANCH  35  38
ENDBRANCH   9  34
TORSDOF 9
ENDMDL
MODEL 7
REMARK VINA RESULT:      -9.1      2.268      3.826
REMARK  9 active torsions:
REMARK  status: ('A' for Active; 'I' for Inactive)
REMARK    1  A    between atoms: C_4  and  S_5 
REMARK    2  A    between atoms: S_5  and  C_6 
REMARK    3  A    between atoms: C_6  and  C_7 
REMARK       I    between atoms: C_7  and  N_8 
REMARK    4  A    between atoms: N_8  and  C_9 
REMARK    5  A    between atoms: C_10  and  O_11 
REMARK    6  A    between atoms: C_16  and  O_17 
REMARK    7  A    between atoms: C_24  and  C_25 
REMARK    8  A    between atoms: C_31  and  C_32 
REMARK       I    between atoms: C_32  and  N_33 
REMARK    9  A    between atoms: N_33  and  C_34 
ROOT
HETATM    1  C   UNL     1      41.867 -14.888   0.400  1.00  0.00     0.069 C 
HETATM    2  C   UNL     1      41.509 -14.634   1.846  1.00  0.00     0.019 A 
HETATM    3  N   UNL     1      40.741 -13.506   2.070  1.00  0.00    -0.353 N 
HETATM    4  C   UNL     1      40.265 -13.091   3.298  1.00  0.00     0.087 A 
HETATM    5  C   UNL     1      40.502 -13.854   4.390  1.00  0.00     0.055 A 
HETATM    6  C   UNL     1      39.930 -13.494   5.750  1.00  0.00     0.019 C 
HETATM    7  N   UNL     1      39.455 -13.195   6.880  1.00  0.00    -0.096 N 
HETATM    8  C   UNL     1      41.387 -15.102   4.306  1.00  0.00     0.104 A 
HETATM    9  C   UNL     1      41.879 -15.424   2.887  1.00  0.00     0.046 A 
HETATM   10  H   UNL     1      40.314 -13.057   1.265  1.00  0.00     0.166 HD
ENDROOT
BRANCH   4  11
HETATM   11  S   UNL     1      39.351 -11.603   3.436  1.00  0.00    -0.102 SA
BRANCH  11  12
HETATM   12  C   UNL     1      40.628 -10.444   3.995  1.00  0.00     0.184 C 
BRANCH  12  13
HETATM   13  C   UNL     1      40.348  -9.843   5.371  1.00  0.00     0.231 C 
HETATM   14  N   UNL     1      41.242 -10.291   6.338  1.00  0.00    -0.324 N 
HETATM   15  H   UNL     1      42.010 -10.858   6.002  1.00  0.00     0.169 HD
HETATM   16  O   UNL     1      39.489  -8.977   5.507  1.00  0.00    -0.272 OA
BRANCH  14  17
HETATM   17  C   UNL     1      41.368  -9.856   7.681  1.00  0.00     0.071 A 
HETATM   18  C   UNL     1      42.267 -10.369   8.637  1.00  0.00     0.096 A 
HETATM   19  C   UNL     1      42.258  -9.852   9.942  1.00  0.00     0.065 A 
HETATM   20  C   UNL     1      41.374  -8.834  10.300  1.00  0.00     0.070 A 
HETATM   21 CL   UNL     1      41.410  -8.240  11.922  1.00  0.00    -0.081 Cl
HETATM   22  C   UNL     1      40.491  -8.313   9.357  1.00  0.00     0.092 A 
HETATM   23  C   UNL     1      40.517  -8.798   8.048  1.00  0.00     0.071 A 
BRANCH  18  24
HETATM   24  O   UNL     1      43.230 -11.239   8.209  1.00  0.00    -0.354 OA
HETATM   25  C   UNL     1      44.197 -11.658   9.164  1.00  0.00     0.210 C 
ENDBRANCH  18  24
BRANCH  22  26
HETATM   26  O   UNL     1      39.662  -7.277   9.703  1.00  0.00    -0.354 OA
HETATM   27  C   UNL     1      38.369  -7.731  10.097  1.00  0.00     0.210 C 
ENDBRANCH  22  26
ENDBRANCH  14  17
ENDBRANCH  12  13
ENDBRANCH  11  12
ENDBRANCH   4  11
BRANCH   8  28
HETATM   28  C   UNL     1      42.525 -15.028   5.329  1.00  0.00    -0.044 A 
HETATM   29  C   UNL     1      43.467 -13.987   5.258  1.00  0.00     0.008 A 
HETATM   30  C   UNL     1      44.517 -13.912   6.176  1.00  0.00     0.001 A 
HETATM   31  C   UNL     1      44.639 -14.872   7.177  1.00  0.00     0.000 A 
HETATM   32  C   UNL     1      43.719 -15.913   7.255  1.00  0.00     0.001 A 
HETATM   33  C   UNL     1      42.675 -15.999   6.331  1.00  0.00     0.008 A 
ENDBRANCH   8  28
BRANCH   9  34
HETATM   34  C   UNL     1      42.861 -16.549   2.663  1.00  0.00     0.255 C 
HETATM   35  N   UNL     1      42.405 -17.807   2.997  1.00  0.00    -0.323 N 
HETATM   36  H   UNL     1      41.473 -17.894   3.373  1.00  0.00     0.169 HD
HETATM   37  O   UNL     1      43.991 -16.292   2.256  1.00  0.00    -0.268 OA
BRANCH  35  38
HETATM   38  C   UNL     1      43.145 -19.012   2.995  1.00  0.00     0.035 A 
HETATM   39  C   UNL     1      44.012 -19.406   4.016  1.00  0.00     0.029 A 
HETATM   40  C   UNL     1      44.695 -20.625   3.938  1.00  0.00     0.002 A 
HETATM   41  C   UNL     1      44.519 -21.461   2.839  1.00  0.00     0.000 A 
HETATM   42  C   UNL     1      43.660 -21.077   1.814  1.00  0.00     0.002 A 
HETATM   43  C   UNL     1      42.981 -19.858   1.890  1.00  0.00     0.029 A 
ENDBRANCH  35  38
ENDBRANCH   9  34
TORSDOF 9
ENDMDL
MODEL 8
REMARK VINA RESULT:      -9.0      5.450      8.743
REMARK  9 active torsions:
REMARK  status: ('A' for Active; 'I' for Inactive)
REMARK    1  A    between atoms: C_4  and  S_5 
REMARK    2  A    between atoms: S_5  and  C_6 
REMARK    3  A    between atoms: C_6  and  C_7 
REMARK       I    between atoms: C_7  and  N_8 
REMARK    4  A    between atoms: N_8  and  C_9 
REMARK    5  A    between atoms: C_10  and  O_11 
REMARK    6  A    between atoms: C_16  and  O_17 
REMARK    7  A    between atoms: C_24  and  C_25 
REMARK    8  A    between atoms: C_31  and  C_32 
REMARK       I    between atoms: C_32  and  N_33 
REMARK    9  A    between atoms: N_33  and  C_34 
ROOT
HETATM    1  C   UNL     1      41.906 -15.957   0.055  1.00  0.00     0.069 C 
HETATM    2  C   UNL     1      41.521 -15.493   1.441  1.00  0.00     0.019 A 
HETATM    3  N   UNL     1      40.685 -14.391   1.478  1.00  0.00    -0.353 N 
HETATM    4  C   UNL     1      40.174 -13.810   2.622  1.00  0.00     0.087 A 
HETATM    5  C   UNL     1      40.445 -14.370   3.823  1.00  0.00     0.055 A 
HETATM    6  C   UNL     1      39.840 -13.828   5.107  1.00  0.00     0.019 C 
HETATM    7  N   UNL     1      39.338 -13.378   6.173  1.00  0.00    -0.096 N 
HETATM    8  C   UNL     1      41.403 -15.560   3.944  1.00  0.00     0.104 A 
HETATM    9  C   UNL     1      41.926 -16.079   2.596  1.00  0.00     0.046 A 
HETATM   10  H   UNL     1      40.240 -14.105   0.611  1.00  0.00     0.166 HD
ENDROOT
BRANCH   4  11
HETATM   11  S   UNL     1      39.174 -12.377   2.515  1.00  0.00    -0.102 SA
BRANCH  11  12
HETATM   12  C   UNL     1      37.962 -12.873   1.261  1.00  0.00     0.184 C 
BRANCH  12  13
HETATM   13  C   UNL     1      38.287 -12.359  -0.140  1.00  0.00     0.231 C 
HETATM   14  N   UNL     1      39.633 -12.043  -0.291  1.00  0.00    -0.324 N 
HETATM   15  H   UNL     1      40.234 -12.284   0.486  1.00  0.00     0.169 HD
HETATM   16  O   UNL     1      37.429 -12.365  -1.018  1.00  0.00    -0.272 OA
BRANCH  14  17
HETATM   17  C   UNL     1      40.316 -11.664  -1.475  1.00  0.00     0.071 A 
HETATM   18  C   UNL     1      40.778 -12.536  -2.480  1.00  0.00     0.096 A 
HETATM   19  C   UNL     1      41.463 -12.013  -3.588  1.00  0.00     0.065 A 
HETATM   20  C   UNL     1      41.686 -10.640  -3.705  1.00  0.00     0.070 A 
HETATM   21 CL   UNL     1      42.537 -10.057  -5.092  1.00  0.00    -0.081 Cl
HETATM   22  C   UNL     1      41.221  -9.771  -2.722  1.00  0.00     0.092 A 
HETATM   23  C   UNL     1      40.509 -10.279  -1.634  1.00  0.00     0.071 A 
BRANCH  18  24
HETATM   24  O   UNL     1      40.393 -13.846  -2.418  1.00  0.00    -0.354 OA
HETATM   25  C   UNL     1      40.851 -14.706  -3.454  1.00  0.00     0.210 C 
ENDBRANCH  18  24
BRANCH  22  26
HETATM   26  O   UNL     1      41.398  -8.419  -2.872  1.00  0.00    -0.354 OA
HETATM   27  C   UNL     1      42.582  -7.956  -2.225  1.00  0.00     0.210 C 
ENDBRANCH  22  26
ENDBRANCH  14  17
ENDBRANCH  12  13
ENDBRANCH  11  12
ENDBRANCH   4  11
BRANCH   8  28
HETATM   28  C   UNL     1      42.525 -15.254   4.941  1.00  0.00    -0.044 A 
HETATM   29  C   UNL     1      42.702 -16.069   6.073  1.00  0.00     0.008 A 
HETATM   30  C   UNL     1      43.713 -15.797   6.996  1.00  0.00     0.001 A 
HETATM   31  C   UNL     1      44.561 -14.711   6.801  1.00  0.00     0.000 A 
HETATM   32  C   UNL     1      44.395 -13.890   5.690  1.00  0.00     0.001 A 
HETATM   33  C   UNL     1      43.376 -14.152   4.771  1.00  0.00     0.008 A 
ENDBRANCH   8  28
BRANCH   9  34
HETATM   34  C   UNL     1      42.974 -17.165   2.558  1.00  0.00     0.255 C 
HETATM   35  N   UNL     1      42.511 -18.442   2.801  1.00  0.00    -0.323 N 
HETATM   36  H   UNL     1      41.530 -18.567   2.996  1.00  0.00     0.169 HD
HETATM   37  O   UNL     1      44.149 -16.864   2.369  1.00  0.00    -0.268 OA
BRANCH  35  38
HETATM   38  C   UNL     1      43.284 -19.619   2.936  1.00  0.00     0.035 A 
HETATM   39  C   UNL     1      44.082 -19.914   4.043  1.00  0.00     0.029 A 
HETATM   40  C   UNL     1      44.804 -21.112   4.099  1.00  0.00     0.002 A 
HETATM   41  C   UNL     1      44.735 -22.025   3.051  1.00  0.00     0.000 A 
HETATM   42  C   UNL     1      43.945 -21.740   1.942  1.00  0.00     0.002 A 
HETATM   43  C   UNL     1      43.227 -20.542   1.883  1.00  0.00     0.029 A 
ENDBRANCH  35  38
ENDBRANCH   9  34
TORSDOF 9
ENDMDL
MODEL 9
REMARK VINA RESULT:      -8.9      5.209      9.774
REMARK  9 active torsions:
REMARK  status: ('A' for Active; 'I' for Inactive)
REMARK    1  A    between atoms: C_4  and  S_5 
REMARK    2  A    between atoms: S_5  and  C_6 
REMARK    3  A    between atoms: C_6  and  C_7 
REMARK       I    between atoms: C_7  and  N_8 
REMARK    4  A    between atoms: N_8  and  C_9 
REMARK    5  A    between atoms: C_10  and  O_11 
REMARK    6  A    between atoms: C_16  and  O_17 
REMARK    7  A    between atoms: C_24  and  C_25 
REMARK    8  A    between atoms: C_31  and  C_32 
REMARK       I    between atoms: C_32  and  N_33 
REMARK    9  A    between atoms: N_33  and  C_34 
ROOT
HETATM    1  C   UNL     1      40.105 -10.290   3.007  1.00  0.00     0.069 C 
HETATM    2  C   UNL     1      40.601 -11.593   2.426  1.00  0.00     0.019 A 
HETATM    3  N   UNL     1      41.646 -12.182   3.115  1.00  0.00    -0.353 N 
HETATM    4  C   UNL     1      42.240 -13.387   2.795  1.00  0.00     0.087 A 
HETATM    5  C   UNL     1      41.751 -14.110   1.761  1.00  0.00     0.055 A 
HETATM    6  C   UNL     1      42.306 -15.481   1.417  1.00  0.00     0.019 C 
HETATM    7  N   UNL     1      42.766 -16.620   1.132  1.00  0.00    -0.096 N 
HETATM    8  C   UNL     1      40.632 -13.559   0.870  1.00  0.00     0.104 A 
HETATM    9  C   UNL     1      40.092 -12.193   1.319  1.00  0.00     0.046 A 
HETATM   10  H   UNL     1      41.865 -11.823   4.039  1.00  0.00     0.166 HD
ENDROOT
BRANCH   4  11
HETATM   11  S   UNL     1      43.598 -13.979   3.728  1.00  0.00    -0.102 SA
BRANCH  11  12
HETATM   12  C   UNL     1      42.761 -14.737   5.147  1.00  0.00     0.184 C 
BRANCH  12  13
HETATM   13  C   UNL     1      42.580 -16.248   5.014  1.00  0.00     0.231 C 
HETATM   14  N   UNL     1      43.789 -16.933   5.051  1.00  0.00    -0.324 N 
HETATM   15  H   UNL     1      44.607 -16.376   5.262  1.00  0.00     0.169 HD
HETATM   16  O   UNL     1      41.455 -16.739   5.001  1.00  0.00    -0.272 OA
BRANCH  14  17
HETATM   17  C   UNL     1      44.001 -18.335   5.085  1.00  0.00     0.071 A 
HETATM   18  C   UNL     1      43.903 -19.160   6.222  1.00  0.00     0.096 A 
HETATM   19  C   UNL     1      44.166 -20.533   6.104  1.00  0.00     0.065 A 
HETATM   20  C   UNL     1      44.519 -21.089   4.874  1.00  0.00     0.070 A 
HETATM   21 CL   UNL     1      44.833 -22.787   4.792  1.00  0.00    -0.081 Cl
HETATM   22  C   UNL     1      44.606 -20.282   3.743  1.00  0.00     0.092 A 
HETATM   23  C   UNL     1      44.311 -18.920   3.844  1.00  0.00     0.071 A 
BRANCH  18  24
HETATM   24  O   UNL     1      43.390 -18.616   7.366  1.00  0.00    -0.354 OA
HETATM   25  C   UNL     1      44.246 -18.568   8.501  1.00  0.00     0.210 C 
ENDBRANCH  18  24
BRANCH  22  26
HETATM   26  O   UNL     1      44.900 -20.845   2.527  1.00  0.00    -0.354 OA
HETATM   27  C   UNL     1      43.730 -21.287   1.842  1.00  0.00     0.210 C 
ENDBRANCH  22  26
ENDBRANCH  14  17
ENDBRANCH  12  13
ENDBRANCH  11  12
ENDBRANCH   4  11
BRANCH   8  28
HETATM   28  C   UNL     1      41.054 -13.579  -0.602  1.00  0.00    -0.044 A 
HETATM   29  C   UNL     1      40.350 -14.373  -1.525  1.00  0.00     0.008 A 
HETATM   30  C   UNL     1      40.729 -14.410  -2.868  1.00  0.00     0.001 A 
HETATM   31  C   UNL     1      41.811 -13.654  -3.309  1.00  0.00     0.000 A 
HETATM   32  C   UNL     1      42.522 -12.868  -2.408  1.00  0.00     0.001 A 
HETATM   33  C   UNL     1      42.154 -12.839  -1.061  1.00  0.00     0.008 A 
ENDBRANCH   8  28
BRANCH   9  34
HETATM   34  C   UNL     1      39.077 -11.464   0.471  1.00  0.00     0.255 C 
HETATM   35  N   UNL     1      37.778 -11.913   0.589  1.00  0.00    -0.323 N 
HETATM   36  H   UNL     1      37.593 -12.687   1.208  1.00  0.00     0.169 HD
HETATM   37  O   UNL     1      39.452 -10.575  -0.289  1.00  0.00    -0.268 OA
BRANCH  35  38
HETATM   38  C   UNL     1      36.658 -11.490  -0.164  1.00  0.00     0.035 A 
HETATM   39  C   UNL     1      36.633 -11.403  -1.557  1.00  0.00     0.029 A 
HETATM   40  C   UNL     1      35.474 -10.988  -2.224  1.00  0.00     0.002 A 
HETATM   41  C   UNL     1      34.329 -10.658  -1.503  1.00  0.00     0.000 A 
HETATM   42  C   UNL     1      34.343 -10.739  -0.114  1.00  0.00     0.002 A 
HETATM   43  C   UNL     1      35.502 -11.149   0.551  1.00  0.00     0.029 A 
ENDBRANCH  35  38
ENDBRANCH   9  34
TORSDOF 9
ENDMDL
MODEL 10
REMARK VINA RESULT:      -8.8      5.865      9.087
REMARK  9 active torsions:
REMARK  status: ('A' for Active; 'I' for Inactive)
REMARK    1  A    between atoms: C_4  and  S_5 
REMARK    2  A    between atoms: S_5  and  C_6 
REMARK    3  A    between atoms: C_6  and  C_7 
REMARK       I    between atoms: C_7  and  N_8 
REMARK    4  A    between atoms: N_8  and  C_9 
REMARK    5  A    between atoms: C_10  and  O_11 
REMARK    6  A    between atoms: C_16  and  O_17 
REMARK    7  A    between atoms: C_24  and  C_25 
REMARK    8  A    between atoms: C_31  and  C_32 
REMARK       I    between atoms: C_32  and  N_33 
REMARK    9  A    between atoms: N_33  and  C_34 
ROOT
HETATM    1  C   UNL     1      41.703 -15.395   0.188  1.00  0.00     0.069 C 
HETATM    2  C   UNL     1      41.373 -15.040   1.619  1.00  0.00     0.019 A 
HETATM    3  N   UNL     1      40.555 -13.935   1.776  1.00  0.00    -0.353 N 
HETATM    4  C   UNL     1      40.093 -13.444   2.980  1.00  0.00     0.087 A 
HETATM    5  C   UNL     1      40.397 -14.102   4.122  1.00  0.00     0.055 A 
HETATM    6  C   UNL     1      39.845 -13.660   5.466  1.00  0.00     0.019 C 
HETATM    7  N   UNL     1      39.386 -13.293   6.582  1.00  0.00    -0.096 N 
HETATM    8  C   UNL     1      41.341 -15.310   4.112  1.00  0.00     0.104 A 
HETATM    9  C   UNL     1      41.810 -15.723   2.709  1.00  0.00     0.046 A 
HETATM   10  H   UNL     1      40.085 -13.575   0.951  1.00  0.00     0.166 HD
ENDROOT
BRANCH   4  11
HETATM   11  S   UNL     1      39.110 -11.995   3.025  1.00  0.00    -0.102 SA
BRANCH  11  12
HETATM   12  C   UNL     1      38.147 -12.163   1.499  1.00  0.00     0.184 C 
BRANCH  12  13
HETATM   13  C   UNL     1      38.706 -11.353   0.331  1.00  0.00     0.231 C 
HETATM   14  N   UNL     1      39.037 -12.151  -0.759  1.00  0.00    -0.324 N 
HETATM   15  H   UNL     1      38.775 -13.126  -0.690  1.00  0.00     0.169 HD
HETATM   16  O   UNL     1      38.722 -10.126   0.377  1.00  0.00    -0.272 OA
BRANCH  14  17
HETATM   17  C   UNL     1      39.457 -11.740  -2.050  1.00  0.00     0.071 A 
HETATM   18  C   UNL     1      40.789 -11.673  -2.505  1.00  0.00     0.096 A 
HETATM   19  C   UNL     1      41.053 -11.220  -3.807  1.00  0.00     0.065 A 
HETATM   20  C   UNL     1      40.011 -10.841  -4.655  1.00  0.00     0.070 A 
HETATM   21 CL   UNL     1      40.399 -10.291  -6.247  1.00  0.00    -0.081 Cl
HETATM   22  C   UNL     1      38.692 -10.916  -4.216  1.00  0.00     0.092 A 
HETATM   23  C   UNL     1      38.418 -11.399  -2.934  1.00  0.00     0.071 A 
BRANCH  18  24
HETATM   24  O   UNL     1      41.764 -12.212  -1.713  1.00  0.00    -0.354 OA
HETATM   25  C   UNL     1      42.975 -11.477  -1.586  1.00  0.00     0.210 C 
ENDBRANCH  18  24
BRANCH  22  26
HETATM   26  O   UNL     1      37.672 -10.593  -5.074  1.00  0.00    -0.354 OA
HETATM   27  C   UNL     1      36.543 -11.451  -4.914  1.00  0.00     0.210 C 
ENDBRANCH  22  26
ENDBRANCH  14  17
ENDBRANCH  12  13
ENDBRANCH  11  12
ENDBRANCH   4  11
BRANCH   8  28
HETATM   28  C   UNL     1      42.501 -15.099   5.089  1.00  0.00    -0.044 A 
HETATM   29  C   UNL     1      42.681 -15.983   6.168  1.00  0.00     0.008 A 
HETATM   30  C   UNL     1      43.728 -15.798   7.073  1.00  0.00     0.001 A 
HETATM   31  C   UNL     1      44.608 -14.731   6.914  1.00  0.00     0.000 A 
HETATM   32  C   UNL     1      44.438 -13.843   5.857  1.00  0.00     0.001 A 
HETATM   33  C   UNL     1      43.385 -14.018   4.956  1.00  0.00     0.008 A 
ENDBRANCH   8  28
BRANCH   9  34
HETATM   34  C   UNL     1      42.840 -16.815   2.546  1.00  0.00     0.255 C 
HETATM   35  N   UNL     1      42.417 -18.083   2.888  1.00  0.00    -0.323 N 
HETATM   36  H   UNL     1      41.475 -18.198   3.230  1.00  0.00     0.169 HD
HETATM   37  O   UNL     1      43.975 -16.524   2.177  1.00  0.00    -0.268 OA
BRANCH  35  38
HETATM   38  C   UNL     1      43.201 -19.259   2.939  1.00  0.00     0.035 A 
HETATM   39  C   UNL     1      44.055 -19.592   3.992  1.00  0.00     0.029 A 
HETATM   40  C   UNL     1      44.784 -20.786   3.967  1.00  0.00     0.002 A 
HETATM   41  C   UNL     1      44.665 -21.659   2.889  1.00  0.00     0.000 A 
HETATM   42  C   UNL     1      43.819 -21.337   1.832  1.00  0.00     0.002 A 
HETATM   43  C   UNL     1      43.095 -20.142   1.856  1.00  0.00     0.029 A 
ENDBRANCH  35  38
ENDBRANCH   9  34
TORSDOF 9
ENDMDL
