MODEL 1
REMARK VINA RESULT:     -10.2      0.000      0.000
REMARK  4 active torsions:
REMARK  status: ('A' for Active; 'I' for Inactive)
REMARK    1  A    between atoms: C_5  and  C_6 
REMARK    2  A    between atoms: C_10  and  C_11 
REMARK       I    between atoms: C_11  and  N_12 
REMARK    3  A    between atoms: N_12  and  N_13 
REMARK    4  A    between atoms: C_14  and  C_15 
ROOT
HETATM    1  C   UNL     1      44.704 -13.457   7.919  1.00  0.00     0.289 C 
HETATM    2  N   UNL     1      43.904 -14.561   7.649  1.00  0.00    -0.242 N 
HETATM    3  O   UNL     1      45.811 -13.255   7.428  1.00  0.00    -0.264 OA
HETATM    4  H   UNL     1      43.145 -14.766   8.287  1.00  0.00     0.192 HD
ENDROOT
BRANCH   1   5
HETATM    5  C   UNL     1      44.134 -12.527   8.864  1.00  0.00     0.121 A 
HETATM    6  N   UNL     1      43.359 -11.479   8.454  1.00  0.00    -0.272 N 
HETATM    7  N   UNL     1      42.902 -10.711   9.452  1.00  0.00    -0.174 NA
HETATM    8  H   UNL     1      43.114 -11.241   7.498  1.00  0.00     0.189 HD
HETATM    9  C   UNL     1      43.362 -11.292  10.571  1.00  0.00     0.089 A 
HETATM   10  C   UNL     1      44.153 -12.430  10.242  1.00  0.00     0.071 A 
BRANCH   9  11
HETATM   11  C   UNL     1      43.044 -10.763  11.902  1.00  0.00    -0.006 A 
HETATM   12  C   UNL     1      41.937 -11.231  12.625  1.00  0.00     0.014 A 
HETATM   13  C   UNL     1      41.640 -10.718  13.893  1.00  0.00     0.007 A 
HETATM   14  C   UNL     1      42.443  -9.725  14.462  1.00  0.00    -0.062 A 
HETATM   15  C   UNL     1      42.139  -9.169  15.822  1.00  0.00     0.048 C 
HETATM   16  C   UNL     1      43.549  -9.255  13.747  1.00  0.00     0.007 A 
HETATM   17  C   UNL     1      43.843  -9.767  12.480  1.00  0.00     0.014 A 
ENDBRANCH   9  11
ENDBRANCH   1   5
BRANCH   2  18
HETATM   18  N   UNL     1      44.215 -15.615   6.823  1.00  0.00    -0.183 NA
HETATM   19  C   UNL     1      43.252 -16.349   6.360  1.00  0.00     0.153 C 
BRANCH  19  20
HETATM   20  C   UNL     1      43.543 -17.463   5.473  1.00  0.00     0.018 A 
HETATM   21  C   UNL     1      43.595 -17.395   4.039  1.00  0.00     0.004 A 
HETATM   22  C   UNL     1      43.884 -18.673   3.567  1.00  0.00     0.043 A 
HETATM   23  C   UNL     1      43.418 -16.359   3.096  1.00  0.00     0.014 A 
HETATM   24  C   UNL     1      44.001 -18.974   2.204  1.00  0.00     0.030 A 
HETATM   25  N   UNL     1      44.015 -19.488   4.665  1.00  0.00    -0.358 N 
HETATM   26  C   UNL     1      43.818 -17.931   1.293  1.00  0.00     0.002 A 
HETATM   27  C   UNL     1      43.532 -16.640   1.729  1.00  0.00     0.001 A 
HETATM   28  H   UNL     1      44.230 -20.474   4.618  1.00  0.00     0.166 HD
HETATM   29  C   UNL     1      43.814 -18.780   5.825  1.00  0.00     0.018 A 
HETATM   30  C   UNL     1      43.900 -19.444   7.152  1.00  0.00     0.069 C 
ENDBRANCH  19  20
ENDBRANCH   2  18
TORSDOF 4
ENDMDL
MODEL 2
REMARK VINA RESULT:      -9.8      1.031      2.229
REMARK  4 active torsions:
REMARK  status: ('A' for Active; 'I' for Inactive)
REMARK    1  A    between atoms: C_5  and  C_6 
REMARK    2  A    between atoms: C_10  and  C_11 
REMARK       I    between atoms: C_11  and  N_12 
REMARK    3  A    between atoms: N_12  and  N_13 
REMARK    4  A    between atoms: C_14  and  C_15 
ROOT
HETATM    1  C   UNL     1      44.575 -13.116   8.030  1.00  0.00     0.289 C 
HETATM    2  N   UNL     1      43.682 -13.684   7.130  1.00  0.00    -0.242 N 
HETATM    3  O   UNL     1      45.788 -13.312   8.035  1.00  0.00    -0.264 OA
HETATM    4  H   UNL     1      42.697 -13.671   7.365  1.00  0.00     0.192 HD
ENDROOT
BRANCH   1   5
HETATM    5  C   UNL     1      43.963 -12.253   9.011  1.00  0.00     0.121 A 
HETATM    6  N   UNL     1      43.032 -11.318   8.656  1.00  0.00    -0.272 N 
HETATM    7  N   UNL     1      42.555 -10.600   9.682  1.00  0.00    -0.174 NA
HETATM    8  H   UNL     1      42.688 -11.126   7.720  1.00  0.00     0.189 HD
HETATM    9  C   UNL     1      43.167 -11.102  10.766  1.00  0.00     0.089 A 
HETATM   10  C   UNL     1      44.071 -12.135  10.383  1.00  0.00     0.071 A 
BRANCH   9  11
HETATM   11  C   UNL     1      42.884 -10.600  12.115  1.00  0.00    -0.006 A 
HETATM   12  C   UNL     1      41.770 -11.049  12.839  1.00  0.00     0.014 A 
HETATM   13  C   UNL     1      41.505 -10.561  14.123  1.00  0.00     0.007 A 
HETATM   14  C   UNL     1      42.349  -9.612  14.710  1.00  0.00    -0.062 A 
HETATM   15  C   UNL     1      42.080  -9.085  16.087  1.00  0.00     0.048 C 
HETATM   16  C   UNL     1      43.462  -9.161  13.993  1.00  0.00     0.007 A 
HETATM   17  C   UNL     1      43.723  -9.648  12.709  1.00  0.00     0.014 A 
ENDBRANCH   9  11
ENDBRANCH   1   5
BRANCH   2  18
HETATM   18  N   UNL     1      43.985 -14.569   6.122  1.00  0.00    -0.183 NA
HETATM   19  C   UNL     1      43.087 -15.427   5.755  1.00  0.00     0.153 C 
BRANCH  19  20
HETATM   20  C   UNL     1      43.368 -16.368   4.683  1.00  0.00     0.018 A 
HETATM   21  C   UNL     1      43.771 -17.735   4.859  1.00  0.00     0.004 A 
HETATM   22  C   UNL     1      43.957 -18.285   3.592  1.00  0.00     0.043 A 
HETATM   23  C   UNL     1      43.998 -18.558   5.984  1.00  0.00     0.014 A 
HETATM   24  C   UNL     1      44.363 -19.610   3.390  1.00  0.00     0.030 A 
HETATM   25  N   UNL     1      43.670 -17.300   2.679  1.00  0.00    -0.358 N 
HETATM   26  C   UNL     1      44.583 -20.400   4.520  1.00  0.00     0.002 A 
HETATM   27  C   UNL     1      44.403 -19.885   5.801  1.00  0.00     0.001 A 
HETATM   28  H   UNL     1      43.719 -17.423   1.678  1.00  0.00     0.166 HD
HETATM   29  C   UNL     1      43.313 -16.136   3.314  1.00  0.00     0.018 A 
HETATM   30  C   UNL     1      42.958 -14.918   2.538  1.00  0.00     0.069 C 
ENDBRANCH  19  20
ENDBRANCH   2  18
TORSDOF 4
ENDMDL
MODEL 3
REMARK VINA RESULT:      -9.2      6.968     11.902
REMARK  4 active torsions:
REMARK  status: ('A' for Active; 'I' for Inactive)
REMARK    1  A    between atoms: C_5  and  C_6 
REMARK    2  A    between atoms: C_10  and  C_11 
REMARK       I    between atoms: C_11  and  N_12 
REMARK    3  A    between atoms: N_12  and  N_13 
REMARK    4  A    between atoms: C_14  and  C_15 
ROOT
HETATM    1  C   UNL     1      41.678 -15.031  -0.189  1.00  0.00     0.289 C 
HETATM    2  N   UNL     1      42.104 -16.352  -0.119  1.00  0.00    -0.242 N 
HETATM    3  O   UNL     1      41.958 -14.159   0.628  1.00  0.00    -0.264 OA
HETATM    4  H   UNL     1      41.616 -17.040  -0.681  1.00  0.00     0.192 HD
ENDROOT
BRANCH   1   5
HETATM    5  C   UNL     1      40.837 -14.737  -1.325  1.00  0.00     0.121 A 
HETATM    6  N   UNL     1      41.247 -14.999  -2.602  1.00  0.00    -0.272 N 
HETATM    7  N   UNL     1      40.351 -14.673  -3.544  1.00  0.00    -0.174 NA
HETATM    8  H   UNL     1      42.136 -15.399  -2.886  1.00  0.00     0.189 HD
HETATM    9  C   UNL     1      39.291 -14.211  -2.863  1.00  0.00     0.089 A 
HETATM   10  C   UNL     1      39.564 -14.222  -1.465  1.00  0.00     0.071 A 
BRANCH   9  11
HETATM   11  C   UNL     1      38.066 -13.777  -3.545  1.00  0.00    -0.006 A 
HETATM   12  C   UNL     1      37.147 -14.708  -4.050  1.00  0.00     0.014 A 
HETATM   13  C   UNL     1      35.983 -14.285  -4.702  1.00  0.00     0.007 A 
HETATM   14  C   UNL     1      35.716 -12.922  -4.863  1.00  0.00    -0.062 A 
HETATM   15  C   UNL     1      34.470 -12.454  -5.555  1.00  0.00     0.048 C 
HETATM   16  C   UNL     1      36.628 -11.988  -4.360  1.00  0.00     0.007 A 
HETATM   17  C   UNL     1      37.791 -12.413  -3.711  1.00  0.00     0.014 A 
ENDBRANCH   9  11
ENDBRANCH   1   5
BRANCH   2  18
HETATM   18  N   UNL     1      42.877 -16.913   0.871  1.00  0.00    -0.183 NA
HETATM   19  C   UNL     1      42.303 -17.656   1.763  1.00  0.00     0.153 C 
BRANCH  19  20
HETATM   20  C   UNL     1      43.092 -18.276   2.815  1.00  0.00     0.018 A 
HETATM   21  C   UNL     1      43.588 -19.623   2.801  1.00  0.00     0.004 A 
HETATM   22  C   UNL     1      44.275 -19.832   3.995  1.00  0.00     0.043 A 
HETATM   23  C   UNL     1      43.511 -20.691   1.880  1.00  0.00     0.014 A 
HETATM   24  C   UNL     1      44.886 -21.050   4.319  1.00  0.00     0.030 A 
HETATM   25  N   UNL     1      44.213 -18.658   4.706  1.00  0.00    -0.358 N 
HETATM   26  C   UNL     1      44.792 -22.089   3.391  1.00  0.00     0.002 A 
HETATM   27  C   UNL     1      44.116 -21.915   2.186  1.00  0.00     0.001 A 
HETATM   28  H   UNL     1      44.633 -18.522   5.614  1.00  0.00     0.166 HD
HETATM   29  C   UNL     1      43.504 -17.706   4.014  1.00  0.00     0.018 A 
HETATM   30  C   UNL     1      43.294 -16.347   4.579  1.00  0.00     0.069 C 
ENDBRANCH  19  20
ENDBRANCH   2  18
TORSDOF 4
ENDMDL
MODEL 4
REMARK VINA RESULT:      -9.2      6.960     11.462
REMARK  4 active torsions:
REMARK  status: ('A' for Active; 'I' for Inactive)
REMARK    1  A    between atoms: C_5  and  C_6 
REMARK    2  A    between atoms: C_10  and  C_11 
REMARK       I    between atoms: C_11  and  N_12 
REMARK    3  A    between atoms: N_12  and  N_13 
REMARK    4  A    between atoms: C_14  and  C_15 
ROOT
HETATM    1  C   UNL     1      41.290 -15.784   0.146  1.00  0.00     0.289 C 
HETATM    2  N   UNL     1      42.336 -16.687   0.288  1.00  0.00    -0.242 N 
HETATM    3  O   UNL     1      40.392 -15.615   0.967  1.00  0.00    -0.264 OA
HETATM    4  H   UNL     1      42.866 -16.936  -0.539  1.00  0.00     0.192 HD
ENDROOT
BRANCH   1   5
HETATM    5  C   UNL     1      41.317 -15.032  -1.085  1.00  0.00     0.121 A 
HETATM    6  N   UNL     1      41.384 -15.654  -2.299  1.00  0.00    -0.272 N 
HETATM    7  N   UNL     1      41.396 -14.817  -3.346  1.00  0.00    -0.174 NA
HETATM    8  H   UNL     1      41.428 -16.655  -2.469  1.00  0.00     0.189 HD
HETATM    9  C   UNL     1      41.297 -13.592  -2.806  1.00  0.00     0.089 A 
HETATM   10  C   UNL     1      41.259 -13.685  -1.385  1.00  0.00     0.071 A 
BRANCH   9  11
HETATM   11  C   UNL     1      41.242 -12.385  -3.638  1.00  0.00    -0.006 A 
HETATM   12  C   UNL     1      40.016 -11.837  -4.043  1.00  0.00     0.014 A 
HETATM   13  C   UNL     1      39.973 -10.687  -4.839  1.00  0.00     0.007 A 
HETATM   14  C   UNL     1      41.155 -10.063  -5.249  1.00  0.00    -0.062 A 
HETATM   15  C   UNL     1      41.123  -8.828  -6.099  1.00  0.00     0.048 C 
HETATM   16  C   UNL     1      42.381 -10.604  -4.848  1.00  0.00     0.007 A 
HETATM   17  C   UNL     1      42.422 -11.754  -4.054  1.00  0.00     0.014 A 
ENDBRANCH   9  11
ENDBRANCH   1   5
BRANCH   2  18
HETATM   18  N   UNL     1      42.534 -17.554   1.337  1.00  0.00    -0.183 NA
HETATM   19  C   UNL     1      43.674 -17.539   1.951  1.00  0.00     0.153 C 
BRANCH  19  20
HETATM   20  C   UNL     1      43.913 -18.432   3.074  1.00  0.00     0.018 A 
HETATM   21  C   UNL     1      44.158 -19.843   2.978  1.00  0.00     0.004 A 
HETATM   22  C   UNL     1      44.318 -20.332   4.273  1.00  0.00     0.043 A 
HETATM   23  C   UNL     1      44.257 -20.755   1.904  1.00  0.00     0.014 A 
HETATM   24  C   UNL     1      44.565 -21.682   4.553  1.00  0.00     0.030 A 
HETATM   25  N   UNL     1      44.187 -19.263   5.125  1.00  0.00    -0.358 N 
HETATM   26  C   UNL     1      44.654 -22.562   3.472  1.00  0.00     0.002 A 
HETATM   27  C   UNL     1      44.504 -22.108   2.164  1.00  0.00     0.001 A 
HETATM   28  H   UNL     1      44.261 -19.327   6.131  1.00  0.00     0.166 HD
HETATM   29  C   UNL     1      43.942 -18.107   4.425  1.00  0.00     0.018 A 
HETATM   30  C   UNL     1      43.759 -16.810   5.128  1.00  0.00     0.069 C 
ENDBRANCH  19  20
ENDBRANCH   2  18
TORSDOF 4
ENDMDL
MODEL 5
REMARK VINA RESULT:      -9.0      6.664     11.817
REMARK  4 active torsions:
REMARK  status: ('A' for Active; 'I' for Inactive)
REMARK    1  A    between atoms: C_5  and  C_6 
REMARK    2  A    between atoms: C_10  and  C_11 
REMARK       I    between atoms: C_11  and  N_12 
REMARK    3  A    between atoms: N_12  and  N_13 
REMARK    4  A    between atoms: C_14  and  C_15 
ROOT
HETATM    1  C   UNL     1      41.769 -15.303   0.057  1.00  0.00     0.289 C 
HETATM    2  N   UNL     1      42.245 -16.606   0.134  1.00  0.00    -0.242 N 
HETATM    3  O   UNL     1      41.996 -14.422   0.882  1.00  0.00    -0.264 OA
HETATM    4  H   UNL     1      41.798 -17.311  -0.440  1.00  0.00     0.192 HD
ENDROOT
BRANCH   1   5
HETATM    5  C   UNL     1      40.944 -15.039  -1.097  1.00  0.00     0.121 A 
HETATM    6  N   UNL     1      41.265 -15.531  -2.331  1.00  0.00    -0.272 N 
HETATM    7  N   UNL     1      40.397 -15.201  -3.296  1.00  0.00    -0.174 NA
HETATM    8  H   UNL     1      42.074 -16.097  -2.569  1.00  0.00     0.189 HD
HETATM    9  C   UNL     1      39.442 -14.493  -2.673  1.00  0.00     0.089 A 
HETATM   10  C   UNL     1      39.758 -14.358  -1.290  1.00  0.00     0.071 A 
BRANCH   9  11
HETATM   11  C   UNL     1      38.274 -13.972  -3.391  1.00  0.00    -0.006 A 
HETATM   12  C   UNL     1      38.055 -12.593  -3.519  1.00  0.00     0.014 A 
HETATM   13  C   UNL     1      36.936 -12.105  -4.203  1.00  0.00     0.007 A 
HETATM   14  C   UNL     1      36.011 -12.988  -4.772  1.00  0.00    -0.062 A 
HETATM   15  C   UNL     1      34.810 -12.479  -5.512  1.00  0.00     0.048 C 
HETATM   16  C   UNL     1      36.225 -14.365  -4.649  1.00  0.00     0.007 A 
HETATM   17  C   UNL     1      37.343 -14.850  -3.963  1.00  0.00     0.014 A 
ENDBRANCH   9  11
ENDBRANCH   1   5
BRANCH   2  18
HETATM   18  N   UNL     1      43.017 -17.138   1.140  1.00  0.00    -0.183 NA
HETATM   19  C   UNL     1      42.570 -18.166   1.790  1.00  0.00     0.153 C 
BRANCH  19  20
HETATM   20  C   UNL     1      43.366 -18.763   2.850  1.00  0.00     0.018 A 
HETATM   21  C   UNL     1      43.695 -18.137   4.100  1.00  0.00     0.004 A 
HETATM   22  C   UNL     1      44.482 -19.029   4.824  1.00  0.00     0.043 A 
HETATM   23  C   UNL     1      43.396 -16.886   4.683  1.00  0.00     0.014 A 
HETATM   24  C   UNL     1      44.991 -18.737   6.096  1.00  0.00     0.030 A 
HETATM   25  N   UNL     1      44.621 -20.159   4.056  1.00  0.00    -0.358 N 
HETATM   26  C   UNL     1      44.682 -17.491   6.647  1.00  0.00     0.002 A 
HETATM   27  C   UNL     1      43.895 -16.576   5.953  1.00  0.00     0.001 A 
HETATM   28  H   UNL     1      45.144 -20.977   4.337  1.00  0.00     0.166 HD
HETATM   29  C   UNL     1      43.957 -20.022   2.862  1.00  0.00     0.018 A 
HETATM   30  C   UNL     1      43.960 -21.114   1.853  1.00  0.00     0.069 C 
ENDBRANCH  19  20
ENDBRANCH   2  18
TORSDOF 4
ENDMDL
MODEL 6
REMARK VINA RESULT:      -8.8      2.033     10.719
REMARK  4 active torsions:
REMARK  status: ('A' for Active; 'I' for Inactive)
REMARK    1  A    between atoms: C_5  and  C_6 
REMARK    2  A    between atoms: C_10  and  C_11 
REMARK       I    between atoms: C_11  and  N_12 
REMARK    3  A    between atoms: N_12  and  N_13 
REMARK    4  A    between atoms: C_14  and  C_15 
ROOT
HETATM    1  C   UNL     1      43.990 -13.193   7.764  1.00  0.00     0.289 C 
HETATM    2  N   UNL     1      43.069 -12.156   7.679  1.00  0.00    -0.242 N 
HETATM    3  O   UNL     1      44.879 -13.275   8.607  1.00  0.00    -0.264 OA
HETATM    4  H   UNL     1      42.555 -12.046   6.813  1.00  0.00     0.192 HD
ENDROOT
BRANCH   1   5
HETATM    5  C   UNL     1      43.840 -14.206   6.748  1.00  0.00     0.121 A 
HETATM    6  N   UNL     1      43.297 -13.917   5.528  1.00  0.00    -0.272 N 
HETATM    7  N   UNL     1      43.231 -14.964   4.694  1.00  0.00    -0.174 NA
HETATM    8  H   UNL     1      42.950 -13.016   5.214  1.00  0.00     0.189 HD
HETATM    9  C   UNL     1      43.784 -15.980   5.375  1.00  0.00     0.089 A 
HETATM   10  C   UNL     1      44.167 -15.546   6.676  1.00  0.00     0.071 A 
BRANCH   9  11
HETATM   11  C   UNL     1      43.935 -17.314   4.783  1.00  0.00    -0.006 A 
HETATM   12  C   UNL     1      44.551 -18.357   5.489  1.00  0.00     0.014 A 
HETATM   13  C   UNL     1      44.693 -19.626   4.915  1.00  0.00     0.007 A 
HETATM   14  C   UNL     1      44.223 -19.876   3.622  1.00  0.00    -0.062 A 
HETATM   15  C   UNL     1      44.364 -21.232   2.997  1.00  0.00     0.048 C 
HETATM   16  C   UNL     1      43.606 -18.840   2.913  1.00  0.00     0.007 A 
HETATM   17  C   UNL     1      43.467 -17.573   3.487  1.00  0.00     0.014 A 
ENDBRANCH   9  11
ENDBRANCH   1   5
BRANCH   2  18
HETATM   18  N   UNL     1      43.005 -11.047   8.490  1.00  0.00    -0.183 NA
HETATM   19  C   UNL     1      41.875 -10.743   9.044  1.00  0.00     0.153 C 
BRANCH  19  20
HETATM   20  C   UNL     1      41.776  -9.586   9.917  1.00  0.00     0.018 A 
HETATM   21  C   UNL     1      42.246  -9.521  11.272  1.00  0.00     0.004 A 
HETATM   22  C   UNL     1      41.946  -8.252  11.763  1.00  0.00     0.043 A 
HETATM   23  C   UNL     1      42.900 -10.431  12.132  1.00  0.00     0.014 A 
HETATM   24  C   UNL     1      42.259  -7.845  13.066  1.00  0.00     0.030 A 
HETATM   25  N   UNL     1      41.328  -7.564  10.747  1.00  0.00    -0.358 N 
HETATM   26  C   UNL     1      42.903  -8.766  13.895  1.00  0.00     0.002 A 
HETATM   27  C   UNL     1      43.221 -10.042  13.437  1.00  0.00     0.001 A 
HETATM   28  H   UNL     1      41.003  -6.610  10.823  1.00  0.00     0.166 HD
HETATM   29  C   UNL     1      41.214  -8.348   9.625  1.00  0.00     0.018 A 
HETATM   30  C   UNL     1      40.575  -7.827   8.388  1.00  0.00     0.069 C 
ENDBRANCH  19  20
ENDBRANCH   2  18
TORSDOF 4
ENDMDL
MODEL 7
REMARK VINA RESULT:      -8.7      1.996      3.180
REMARK  4 active torsions:
REMARK  status: ('A' for Active; 'I' for Inactive)
REMARK    1  A    between atoms: C_5  and  C_6 
REMARK    2  A    between atoms: C_10  and  C_11 
REMARK       I    between atoms: C_11  and  N_12 
REMARK    3  A    between atoms: N_12  and  N_13 
REMARK    4  A    between atoms: C_14  and  C_15 
ROOT
HETATM    1  C   UNL     1      44.077 -14.074   5.702  1.00  0.00     0.289 C 
HETATM    2  N   UNL     1      44.051 -15.457   5.825  1.00  0.00    -0.242 N 
HETATM    3  O   UNL     1      44.031 -13.463   4.637  1.00  0.00    -0.264 OA
HETATM    4  H   UNL     1      44.353 -15.863   6.703  1.00  0.00     0.192 HD
ENDROOT
BRANCH   1   5
HETATM    5  C   UNL     1      44.180 -13.367   6.955  1.00  0.00     0.121 A 
HETATM    6  N   UNL     1      45.256 -13.532   7.781  1.00  0.00    -0.272 N 
HETATM    7  N   UNL     1      45.204 -12.803   8.904  1.00  0.00    -0.174 NA
HETATM    8  H   UNL     1      46.056 -14.138   7.625  1.00  0.00     0.189 HD
HETATM    9  C   UNL     1      44.066 -12.098   8.803  1.00  0.00     0.089 A 
HETATM   10  C   UNL     1      43.386 -12.436   7.597  1.00  0.00     0.071 A 
BRANCH   9  11
HETATM   11  C   UNL     1      43.658 -11.139   9.835  1.00  0.00    -0.006 A 
HETATM   12  C   UNL     1      44.354 -11.037  11.048  1.00  0.00     0.014 A 
HETATM   13  C   UNL     1      43.955 -10.121  12.028  1.00  0.00     0.007 A 
HETATM   14  C   UNL     1      42.852  -9.289  11.815  1.00  0.00    -0.062 A 
HETATM   15  C   UNL     1      42.417  -8.299  12.855  1.00  0.00     0.048 C 
HETATM   16  C   UNL     1      42.154  -9.384  10.606  1.00  0.00     0.007 A 
HETATM   17  C   UNL     1      42.553 -10.302   9.629  1.00  0.00     0.014 A 
ENDBRANCH   9  11
ENDBRANCH   1   5
BRANCH   2  18
HETATM   18  N   UNL     1      43.997 -16.371   4.799  1.00  0.00    -0.183 NA
HETATM   19  C   UNL     1      42.861 -16.924   4.516  1.00  0.00     0.153 C 
BRANCH  19  20
HETATM   20  C   UNL     1      42.765 -17.884   3.428  1.00  0.00     0.018 A 
HETATM   21  C   UNL     1      43.440 -19.150   3.371  1.00  0.00     0.004 A 
HETATM   22  C   UNL     1      43.100 -19.755   2.163  1.00  0.00     0.043 A 
HETATM   23  C   UNL     1      44.316 -19.838   4.239  1.00  0.00     0.014 A 
HETATM   24  C   UNL     1      43.591 -21.008   1.774  1.00  0.00     0.030 A 
HETATM   25  N   UNL     1      42.244 -18.902   1.513  1.00  0.00    -0.358 N 
HETATM   26  C   UNL     1      44.458 -21.665   2.651  1.00  0.00     0.002 A 
HETATM   27  C   UNL     1      44.816 -21.091   3.868  1.00  0.00     0.001 A 
HETATM   28  H   UNL     1      41.833 -19.089   0.609  1.00  0.00     0.166 HD
HETATM   29  C   UNL     1      42.027 -17.767   2.255  1.00  0.00     0.018 A 
HETATM   30  C   UNL     1      41.135 -16.685   1.760  1.00  0.00     0.069 C 
ENDBRANCH  19  20
ENDBRANCH   2  18
TORSDOF 4
ENDMDL
MODEL 8
REMARK VINA RESULT:      -8.5      2.740      3.475
REMARK  4 active torsions:
REMARK  status: ('A' for Active; 'I' for Inactive)
REMARK    1  A    between atoms: C_5  and  C_6 
REMARK    2  A    between atoms: C_10  and  C_11 
REMARK       I    between atoms: C_11  and  N_12 
REMARK    3  A    between atoms: N_12  and  N_13 
REMARK    4  A    between atoms: C_14  and  C_15 
ROOT
HETATM    1  C   UNL     1      41.605 -11.899   5.249  1.00  0.00     0.289 C 
HETATM    2  N   UNL     1      42.180 -13.162   5.311  1.00  0.00    -0.242 N 
HETATM    3  O   UNL     1      40.995 -11.452   4.281  1.00  0.00    -0.264 OA
HETATM    4  H   UNL     1      42.871 -13.335   6.031  1.00  0.00     0.192 HD
ENDROOT
BRANCH   1   5
HETATM    5  C   UNL     1      41.788 -11.103   6.438  1.00  0.00     0.121 A 
HETATM    6  N   UNL     1      41.501  -9.767   6.453  1.00  0.00    -0.272 N 
HETATM    7  N   UNL     1      41.720  -9.171   7.633  1.00  0.00    -0.174 NA
HETATM    8  H   UNL     1      41.154  -9.210   5.678  1.00  0.00     0.189 HD
HETATM    9  C   UNL     1      42.136 -10.157   8.443  1.00  0.00     0.089 A 
HETATM   10  C   UNL     1      42.204 -11.385   7.724  1.00  0.00     0.071 A 
BRANCH   9  11
HETATM   11  C   UNL     1      42.450  -9.914   9.855  1.00  0.00    -0.006 A 
HETATM   12  C   UNL     1      43.567 -10.505  10.463  1.00  0.00     0.014 A 
HETATM   13  C   UNL     1      43.857 -10.271  11.812  1.00  0.00     0.007 A 
HETATM   14  C   UNL     1      43.035  -9.441  12.581  1.00  0.00    -0.062 A 
HETATM   15  C   UNL     1      43.337  -9.178  14.026  1.00  0.00     0.048 C 
HETATM   16  C   UNL     1      41.920  -8.848  11.980  1.00  0.00     0.007 A 
HETATM   17  C   UNL     1      41.630  -9.085  10.633  1.00  0.00     0.014 A 
ENDBRANCH   9  11
ENDBRANCH   1   5
BRANCH   2  18
HETATM   18  N   UNL     1      42.192 -14.108   4.313  1.00  0.00    -0.183 NA
HETATM   19  C   UNL     1      41.648 -15.261   4.541  1.00  0.00     0.153 C 
BRANCH  19  20
HETATM   20  C   UNL     1      41.630 -16.280   3.504  1.00  0.00     0.018 A 
HETATM   21  C   UNL     1      42.517 -17.406   3.426  1.00  0.00     0.004 A 
HETATM   22  C   UNL     1      42.184 -18.126   2.280  1.00  0.00     0.043 A 
HETATM   23  C   UNL     1      43.579 -17.880   4.227  1.00  0.00     0.014 A 
HETATM   24  C   UNL     1      42.858 -19.290   1.890  1.00  0.00     0.030 A 
HETATM   25  N   UNL     1      41.131 -17.475   1.687  1.00  0.00    -0.358 N 
HETATM   26  C   UNL     1      43.906 -19.735   2.699  1.00  0.00     0.002 A 
HETATM   27  C   UNL     1      44.264 -19.042   3.853  1.00  0.00     0.001 A 
HETATM   28  H   UNL     1      40.681 -17.780   0.836  1.00  0.00     0.166 HD
HETATM   29  C   UNL     1      40.780 -16.359   2.406  1.00  0.00     0.018 A 
HETATM   30  C   UNL     1      39.664 -15.481   1.964  1.00  0.00     0.069 C 
ENDBRANCH  19  20
ENDBRANCH   2  18
TORSDOF 4
ENDMDL
MODEL 9
REMARK VINA RESULT:      -8.3      3.155     10.943
REMARK  4 active torsions:
REMARK  status: ('A' for Active; 'I' for Inactive)
REMARK    1  A    between atoms: C_5  and  C_6 
REMARK    2  A    between atoms: C_10  and  C_11 
REMARK       I    between atoms: C_11  and  N_12 
REMARK    3  A    between atoms: N_12  and  N_13 
REMARK    4  A    between atoms: C_14  and  C_15 
ROOT
HETATM    1  C   UNL     1      42.169 -13.533   5.012  1.00  0.00     0.289 C 
HETATM    2  N   UNL     1      41.602 -13.145   6.220  1.00  0.00    -0.242 N 
HETATM    3  O   UNL     1      42.407 -12.777   4.073  1.00  0.00    -0.264 OA
HETATM    4  H   UNL     1      41.211 -13.865   6.815  1.00  0.00     0.192 HD
ENDROOT
BRANCH   1   5
HETATM    5  C   UNL     1      42.463 -14.942   4.919  1.00  0.00     0.121 A 
HETATM    6  N   UNL     1      42.272 -15.782   5.980  1.00  0.00    -0.272 N 
HETATM    7  N   UNL     1      42.588 -17.060   5.733  1.00  0.00    -0.174 NA
HETATM    8  H   UNL     1      41.929 -15.530   6.902  1.00  0.00     0.189 HD
HETATM    9  C   UNL     1      42.969 -17.077   4.446  1.00  0.00     0.089 A 
HETATM   10  C   UNL     1      42.918 -15.760   3.904  1.00  0.00     0.071 A 
BRANCH   9  11
HETATM   11  C   UNL     1      43.366 -18.319   3.774  1.00  0.00    -0.006 A 
HETATM   12  C   UNL     1      42.849 -18.662   2.516  1.00  0.00     0.014 A 
HETATM   13  C   UNL     1      43.230 -19.851   1.885  1.00  0.00     0.007 A 
HETATM   14  C   UNL     1      44.135 -20.723   2.500  1.00  0.00    -0.062 A 
HETATM   15  C   UNL     1      44.556 -21.998   1.832  1.00  0.00     0.048 C 
HETATM   16  C   UNL     1      44.655 -20.386   3.754  1.00  0.00     0.007 A 
HETATM   17  C   UNL     1      44.271 -19.198   4.384  1.00  0.00     0.014 A 
ENDBRANCH   9  11
ENDBRANCH   1   5
BRANCH   2  18
HETATM   18  N   UNL     1      41.189 -11.879   6.562  1.00  0.00    -0.183 NA
HETATM   19  C   UNL     1      41.961 -11.150   7.304  1.00  0.00     0.153 C 
BRANCH  19  20
HETATM   20  C   UNL     1      41.562  -9.802   7.673  1.00  0.00     0.018 A 
HETATM   21  C   UNL     1      41.203  -9.372   8.995  1.00  0.00     0.004 A 
HETATM   22  C   UNL     1      40.869  -8.021   8.922  1.00  0.00     0.043 A 
HETATM   23  C   UNL     1      41.127 -10.011  10.252  1.00  0.00     0.014 A 
HETATM   24  C   UNL     1      40.460  -7.276  10.036  1.00  0.00     0.030 A 
HETATM   25  N   UNL     1      41.028  -7.637   7.613  1.00  0.00    -0.358 N 
HETATM   26  C   UNL     1      40.391  -7.935  11.266  1.00  0.00     0.002 A 
HETATM   27  C   UNL     1      40.721  -9.283  11.376  1.00  0.00     0.001 A 
HETATM   28  H   UNL     1      40.859  -6.702   7.271  1.00  0.00     0.166 HD
HETATM   29  C   UNL     1      41.445  -8.694   6.842  1.00  0.00     0.018 A 
HETATM   30  C   UNL     1      41.686  -8.531   5.384  1.00  0.00     0.069 C 
ENDBRANCH  19  20
ENDBRANCH   2  18
TORSDOF 4
ENDMDL
MODEL 10
REMARK VINA RESULT:      -8.2      6.251      8.186
REMARK  4 active torsions:
REMARK  status: ('A' for Active; 'I' for Inactive)
REMARK    1  A    between atoms: C_5  and  C_6 
REMARK    2  A    between atoms: C_10  and  C_11 
REMARK       I    between atoms: C_11  and  N_12 
REMARK    3  A    between atoms: N_12  and  N_13 
REMARK    4  A    between atoms: C_14  and  C_15 
ROOT
HETATM    1  C   UNL     1      42.274 -13.516   3.676  1.00  0.00     0.289 C 
HETATM    2  N   UNL     1      42.254 -14.829   3.220  1.00  0.00    -0.242 N 
HETATM    3  O   UNL     1      43.075 -13.069   4.493  1.00  0.00    -0.264 OA
HETATM    4  H   UNL     1      41.414 -15.160   2.760  1.00  0.00     0.192 HD
ENDROOT
BRANCH   1   5
HETATM    5  C   UNL     1      41.244 -12.677   3.115  1.00  0.00     0.121 A 
HETATM    6  N   UNL     1      41.537 -11.463   2.559  1.00  0.00    -0.272 N 
HETATM    7  N   UNL     1      40.471 -10.807   2.080  1.00  0.00    -0.174 NA
HETATM    8  H   UNL     1      42.454 -11.033   2.485  1.00  0.00     0.189 HD
HETATM    9  C   UNL     1      39.435 -11.633   2.293  1.00  0.00     0.089 A 
HETATM   10  C   UNL     1      39.879 -12.814   2.956  1.00  0.00     0.071 A 
BRANCH   9  11
HETATM   11  C   UNL     1      38.073 -11.288   1.870  1.00  0.00    -0.006 A 
HETATM   12  C   UNL     1      37.385 -12.067   0.929  1.00  0.00     0.014 A 
HETATM   13  C   UNL     1      36.088 -11.728   0.529  1.00  0.00     0.007 A 
HETATM   14  C   UNL     1      35.453 -10.602   1.061  1.00  0.00    -0.062 A 
HETATM   15  C   UNL     1      34.061 -10.230   0.645  1.00  0.00     0.048 C 
HETATM   16  C   UNL     1      36.133  -9.821   2.002  1.00  0.00     0.007 A 
HETATM   17  C   UNL     1      37.430 -10.160   2.398  1.00  0.00     0.014 A 
ENDBRANCH   9  11
ENDBRANCH   1   5
BRANCH   2  18
HETATM   18  N   UNL     1      43.091 -15.847   3.614  1.00  0.00    -0.183 NA
HETATM   19  C   UNL     1      42.601 -17.038   3.753  1.00  0.00     0.153 C 
BRANCH  19  20
HETATM   20  C   UNL     1      43.460 -18.140   4.154  1.00  0.00     0.018 A 
HETATM   21  C   UNL     1      43.670 -19.348   3.407  1.00  0.00     0.004 A 
HETATM   22  C   UNL     1      44.543 -20.150   4.139  1.00  0.00     0.043 A 
HETATM   23  C   UNL     1      43.193 -19.836   2.170  1.00  0.00     0.014 A 
HETATM   24  C   UNL     1      44.960 -21.415   3.705  1.00  0.00     0.030 A 
HETATM   25  N   UNL     1      44.863 -19.458   5.281  1.00  0.00    -0.358 N 
HETATM   26  C   UNL     1      44.470 -21.874   2.480  1.00  0.00     0.002 A 
HETATM   27  C   UNL     1      43.600 -21.097   1.720  1.00  0.00     0.001 A 
HETATM   28  H   UNL     1      45.486 -19.803   5.998  1.00  0.00     0.166 HD
HETATM   29  C   UNL     1      44.222 -18.244   5.312  1.00  0.00     0.018 A 
HETATM   30  C   UNL     1      44.406 -17.309   6.454  1.00  0.00     0.069 C 
ENDBRANCH  19  20
ENDBRANCH   2  18
TORSDOF 4
ENDMDL
