MODEL 1
REMARK VINA RESULT:      -9.5      0.000      0.000
REMARK  10 active torsions:
REMARK  status: ('A' for Active; 'I' for Inactive)
REMARK    1  A    between atoms: C_9  and  S_10 
REMARK    2  A    between atoms: S_10  and  C_11 
REMARK    3  A    between atoms: C_11  and  C_12 
REMARK       I    between atoms: C_12  and  N_13 
REMARK    4  A    between atoms: N_13  and  C_14 
REMARK    5  A    between atoms: C_14  and  C_15 
REMARK    6  A    between atoms: C_15  and  C_16 
REMARK    7  A    between atoms: C_19  and  S_20 
REMARK    8  A    between atoms: S_20  and  N_21 
REMARK    9  A    between atoms: N_27  and  C_28 
REMARK   10  A    between atoms: C_35  and  N_36 
ROOT
HETATM    1  C   UNL     1      44.460 -21.851   1.789  1.00  0.00     0.073 C 
HETATM    2  C   UNL     1      44.462 -21.215   3.133  1.00  0.00     0.068 A 
HETATM    3  N   UNL     1      44.950 -21.899   4.175  1.00  0.00    -0.177 NA
HETATM    4  N   UNL     1      44.776 -21.078   5.221  1.00  0.00    -0.260 N 
HETATM    5  H   UNL     1      45.067 -21.387   6.142  1.00  0.00     0.191 HD
HETATM    6  C   UNL     1      44.186 -19.895   4.880  1.00  0.00     0.162 A 
HETATM    7  C   UNL     1      43.984 -19.925   3.516  1.00  0.00     0.081 A 
HETATM    8  N   UNL     1      43.855 -18.912   5.717  1.00  0.00    -0.204 NA
HETATM    9  C   UNL     1      43.261 -17.880   5.076  1.00  0.00     0.177 A 
HETATM   10  N   UNL     1      43.033 -17.819   3.733  1.00  0.00    -0.276 N 
HETATM   11  C   UNL     1      43.403 -18.816   2.880  1.00  0.00     0.124 A 
ENDROOT
BRANCH   9  12
HETATM   12  S   UNL     1      42.619 -16.634   6.208  1.00  0.00    -0.082 SA
BRANCH  12  13
HETATM   13  C   UNL     1      44.186 -16.074   6.954  1.00  0.00     0.185 C 
BRANCH  13  14
HETATM   14  C   UNL     1      44.369 -14.575   6.759  1.00  0.00     0.227 C 
HETATM   15  N   UNL     1      44.700 -13.894   7.910  1.00  0.00    -0.360 N 
HETATM   16  H   UNL     1      45.019 -14.430   8.711  1.00  0.00     0.162 HD
HETATM   17  O   UNL     1      44.221 -14.031   5.664  1.00  0.00    -0.273 OA
BRANCH  15  18
HETATM   18  C   UNL     1      45.032 -12.477   7.903  1.00  0.00     0.127 C 
BRANCH  18  19
HETATM   19  C   UNL     1      45.436 -11.988   9.296  1.00  0.00     0.058 C 
BRANCH  19  20
HETATM   20  C   UNL     1      44.241 -11.726  10.178  1.00  0.00    -0.057 A 
HETATM   21  C   UNL     1      44.184 -12.254  11.477  1.00  0.00     0.009 A 
HETATM   22  C   UNL     1      43.067 -12.026  12.284  1.00  0.00     0.025 A 
HETATM   23  C   UNL     1      42.006 -11.261  11.794  1.00  0.00     0.074 A 
HETATM   24  C   UNL     1      42.043 -10.741  10.498  1.00  0.00     0.025 A 
HETATM   25  C   UNL     1      43.161 -10.971   9.696  1.00  0.00     0.009 A 
BRANCH  23  26
HETATM   26  S   UNL     1      40.566 -11.017  12.793  1.00  0.00     0.239 S 
HETATM   27  O   UNL     1      40.976 -10.660  14.130  1.00  0.00    -0.206 OA
HETATM   28  O   UNL     1      39.602 -10.244  12.044  1.00  0.00    -0.206 OA
BRANCH  26  29
HETATM   29  N   UNL     1      39.942 -12.571  12.892  1.00  0.00    -0.225 NA
HETATM   30  H   UNL     1      39.404 -12.675  13.754  1.00  0.00     0.136 HD
HETATM   31  H   UNL     1      39.404 -12.785  12.051  1.00  0.00     0.136 HD
ENDBRANCH  26  29
ENDBRANCH  23  26
ENDBRANCH  19  20
ENDBRANCH  18  19
ENDBRANCH  15  18
ENDBRANCH  13  14
ENDBRANCH  12  13
ENDBRANCH   9  12
BRANCH  10  32
HETATM   32  C   UNL     1      42.337 -16.687   3.191  1.00  0.00     0.043 A 
HETATM   33  C   UNL     1      43.068 -15.572   2.777  1.00  0.00     0.031 A 
HETATM   34  C   UNL     1      42.382 -14.490   2.224  1.00  0.00     0.021 A 
HETATM   35  C   UNL     1      40.993 -14.546   2.080  1.00  0.00     0.011 A 
HETATM   36 BR   UNL     1      40.074 -13.077   1.328  1.00  0.00    -0.051 Br
HETATM   37  C   UNL     1      40.276 -15.678   2.479  1.00  0.00     0.021 A 
HETATM   38  C   UNL     1      40.950 -16.764   3.038  1.00  0.00     0.031 A 
ENDBRANCH  10  32
BRANCH  11  39
HETATM   39  N   UNL     1      43.191 -18.757   1.505  1.00  0.00    -0.384 N 
HETATM   40  H   UNL     1      43.090 -17.862   1.039  1.00  0.00     0.157 HD
HETATM   41  H   UNL     1      43.636 -19.466   0.930  1.00  0.00     0.157 HD
ENDBRANCH  11  39
TORSDOF 10
ENDMDL
MODEL 2
REMARK VINA RESULT:      -9.0      3.022      5.099
REMARK  10 active torsions:
REMARK  status: ('A' for Active; 'I' for Inactive)
REMARK    1  A    between atoms: C_9  and  S_10 
REMARK    2  A    between atoms: S_10  and  C_11 
REMARK    3  A    between atoms: C_11  and  C_12 
REMARK       I    between atoms: C_12  and  N_13 
REMARK    4  A    between atoms: N_13  and  C_14 
REMARK    5  A    between atoms: C_14  and  C_15 
REMARK    6  A    between atoms: C_15  and  C_16 
REMARK    7  A    between atoms: C_19  and  S_20 
REMARK    8  A    between atoms: S_20  and  N_21 
REMARK    9  A    between atoms: N_27  and  C_28 
REMARK   10  A    between atoms: C_35  and  N_36 
ROOT
HETATM    1  C   UNL     1      39.110 -14.162  -1.687  1.00  0.00     0.073 C 
HETATM    2  C   UNL     1      39.838 -13.465  -0.594  1.00  0.00     0.068 A 
HETATM    3  N   UNL     1      39.731 -12.136  -0.486  1.00  0.00    -0.177 NA
HETATM    4  N   UNL     1      40.519 -11.823   0.552  1.00  0.00    -0.260 N 
HETATM    5  H   UNL     1      40.609 -10.850   0.826  1.00  0.00     0.191 HD
HETATM    6  C   UNL     1      41.134 -12.910   1.104  1.00  0.00     0.162 A 
HETATM    7  C   UNL     1      40.699 -14.016   0.404  1.00  0.00     0.081 A 
HETATM    8  N   UNL     1      42.001 -12.893   2.116  1.00  0.00    -0.204 NA
HETATM    9  C   UNL     1      42.453 -14.132   2.416  1.00  0.00     0.177 A 
HETATM   10  N   UNL     1      42.069 -15.279   1.787  1.00  0.00    -0.276 N 
HETATM   11  C   UNL     1      41.158 -15.291   0.774  1.00  0.00     0.124 A 
ENDROOT
BRANCH   9  12
HETATM   12  S   UNL     1      43.778 -14.112   3.637  1.00  0.00    -0.082 SA
BRANCH  12  13
HETATM   13  C   UNL     1      42.781 -14.193   5.161  1.00  0.00     0.185 C 
BRANCH  13  14
HETATM   14  C   UNL     1      43.667 -14.455   6.371  1.00  0.00     0.227 C 
HETATM   15  N   UNL     1      44.140 -13.312   6.979  1.00  0.00    -0.360 N 
HETATM   16  H   UNL     1      43.701 -12.427   6.748  1.00  0.00     0.162 HD
HETATM   17  O   UNL     1      43.938 -15.593   6.755  1.00  0.00    -0.273 OA
BRANCH  15  18
HETATM   18  C   UNL     1      44.904 -13.354   8.217  1.00  0.00     0.127 C 
BRANCH  18  19
HETATM   19  C   UNL     1      45.063 -11.959   8.826  1.00  0.00     0.058 C 
BRANCH  19  20
HETATM   20  C   UNL     1      43.995 -11.654   9.845  1.00  0.00    -0.057 A 
HETATM   21  C   UNL     1      44.142 -12.070  11.177  1.00  0.00     0.009 A 
HETATM   22  C   UNL     1      43.141 -11.803  12.115  1.00  0.00     0.025 A 
HETATM   23  C   UNL     1      41.992 -11.113  11.721  1.00  0.00     0.074 A 
HETATM   24  C   UNL     1      41.827 -10.705  10.396  1.00  0.00     0.025 A 
HETATM   25  C   UNL     1      42.830 -10.973   9.463  1.00  0.00     0.009 A 
BRANCH  23  26
HETATM   26  S   UNL     1      40.698 -10.824  12.892  1.00  0.00     0.239 S 
HETATM   27  O   UNL     1      41.278 -10.661  14.204  1.00  0.00    -0.206 OA
HETATM   28  O   UNL     1      39.764  -9.873  12.334  1.00  0.00    -0.206 OA
BRANCH  26  29
HETATM   29  N   UNL     1      39.905 -12.302  12.910  1.00  0.00    -0.225 NA
HETATM   30  H   UNL     1      39.107 -12.276  12.273  1.00  0.00     0.136 HD
HETATM   31  H   UNL     1      40.565 -13.053  12.701  1.00  0.00     0.136 HD
ENDBRANCH  26  29
ENDBRANCH  23  26
ENDBRANCH  19  20
ENDBRANCH  18  19
ENDBRANCH  15  18
ENDBRANCH  13  14
ENDBRANCH  12  13
ENDBRANCH   9  12
BRANCH  10  32
HETATM   32  C   UNL     1      42.675 -16.523   2.168  1.00  0.00     0.043 A 
HETATM   33  C   UNL     1      42.153 -17.232   3.251  1.00  0.00     0.031 A 
HETATM   34  C   UNL     1      42.732 -18.455   3.592  1.00  0.00     0.021 A 
HETATM   35  C   UNL     1      43.802 -18.951   2.843  1.00  0.00     0.011 A 
HETATM   36 BR   UNL     1      44.578 -20.609   3.311  1.00  0.00    -0.051 Br
HETATM   37  C   UNL     1      44.301 -18.241   1.747  1.00  0.00     0.021 A 
HETATM   38  C   UNL     1      43.734 -17.015   1.399  1.00  0.00     0.031 A 
ENDBRANCH  10  32
BRANCH  11  39
HETATM   39  N   UNL     1      40.746 -16.458   0.136  1.00  0.00    -0.384 N 
HETATM   40  H   UNL     1      41.402 -17.002  -0.413  1.00  0.00     0.157 HD
HETATM   41  H   UNL     1      40.038 -17.021   0.598  1.00  0.00     0.157 HD
ENDBRANCH  11  39
TORSDOF 10
ENDMDL
MODEL 3
REMARK VINA RESULT:      -8.8      1.672      2.019
REMARK  10 active torsions:
REMARK  status: ('A' for Active; 'I' for Inactive)
REMARK    1  A    between atoms: C_9  and  S_10 
REMARK    2  A    between atoms: S_10  and  C_11 
REMARK    3  A    between atoms: C_11  and  C_12 
REMARK       I    between atoms: C_12  and  N_13 
REMARK    4  A    between atoms: N_13  and  C_14 
REMARK    5  A    between atoms: C_14  and  C_15 
REMARK    6  A    between atoms: C_15  and  C_16 
REMARK    7  A    between atoms: C_19  and  S_20 
REMARK    8  A    between atoms: S_20  and  N_21 
REMARK    9  A    between atoms: N_27  and  C_28 
REMARK   10  A    between atoms: C_35  and  N_36 
ROOT
HETATM    1  C   UNL     1      43.681 -21.044   1.752  1.00  0.00     0.073 C 
HETATM    2  C   UNL     1      43.996 -20.262   2.976  1.00  0.00     0.068 A 
HETATM    3  N   UNL     1      44.719 -20.835   3.946  1.00  0.00    -0.177 NA
HETATM    4  N   UNL     1      44.792 -19.898   4.902  1.00  0.00    -0.260 N 
HETATM    5  H   UNL     1      45.294 -20.108   5.759  1.00  0.00     0.191 HD
HETATM    6  C   UNL     1      44.132 -18.748   4.576  1.00  0.00     0.162 A 
HETATM    7  C   UNL     1      43.614 -18.927   3.310  1.00  0.00     0.081 A 
HETATM    8  N   UNL     1      44.002 -17.670   5.349  1.00  0.00    -0.204 NA
HETATM    9  C   UNL     1      43.268 -16.704   4.752  1.00  0.00     0.177 A 
HETATM   10  N   UNL     1      42.730 -16.789   3.502  1.00  0.00    -0.276 N 
HETATM   11  C   UNL     1      42.894 -17.883   2.706  1.00  0.00     0.124 A 
ENDROOT
BRANCH   9  12
HETATM   12  S   UNL     1      42.904 -15.325   5.854  1.00  0.00    -0.082 SA
BRANCH  12  13
HETATM   13  C   UNL     1      44.348 -15.440   6.962  1.00  0.00     0.185 C 
BRANCH  13  14
HETATM   14  C   UNL     1      44.865 -14.052   7.318  1.00  0.00     0.227 C 
HETATM   15  N   UNL     1      44.332 -13.535   8.479  1.00  0.00    -0.360 N 
HETATM   16  H   UNL     1      43.849 -14.166   9.109  1.00  0.00     0.162 HD
HETATM   17  O   UNL     1      45.679 -13.452   6.615  1.00  0.00    -0.273 OA
BRANCH  15  18
HETATM   18  C   UNL     1      44.789 -12.275   9.045  1.00  0.00     0.127 C 
BRANCH  18  19
HETATM   19  C   UNL     1      43.748 -11.168   8.864  1.00  0.00     0.058 C 
BRANCH  19  20
HETATM   20  C   UNL     1      43.277 -10.604  10.181  1.00  0.00    -0.057 A 
HETATM   21  C   UNL     1      42.122  -9.812  10.245  1.00  0.00     0.009 A 
HETATM   22  C   UNL     1      41.700  -9.275  11.464  1.00  0.00     0.025 A 
HETATM   23  C   UNL     1      42.432  -9.537  12.624  1.00  0.00     0.074 A 
HETATM   24  C   UNL     1      43.592 -10.314  12.573  1.00  0.00     0.025 A 
HETATM   25  C   UNL     1      44.009 -10.848  11.353  1.00  0.00     0.009 A 
BRANCH  23  26
HETATM   26  S   UNL     1      41.933  -8.813  14.160  1.00  0.00     0.239 S 
HETATM   27  O   UNL     1      40.500  -8.635  14.152  1.00  0.00    -0.206 OA
HETATM   28  O   UNL     1      42.626  -9.478  15.238  1.00  0.00    -0.206 OA
BRANCH  26  29
HETATM   29  N   UNL     1      42.597  -7.276  14.053  1.00  0.00    -0.225 NA
HETATM   30  H   UNL     1      43.543  -7.332  13.675  1.00  0.00     0.136 HD
HETATM   31  H   UNL     1      41.980  -6.667  13.513  1.00  0.00     0.136 HD
ENDBRANCH  26  29
ENDBRANCH  23  26
ENDBRANCH  19  20
ENDBRANCH  18  19
ENDBRANCH  15  18
ENDBRANCH  13  14
ENDBRANCH  12  13
ENDBRANCH   9  12
BRANCH  10  32
HETATM   32  C   UNL     1      41.920 -15.711   3.013  1.00  0.00     0.043 A 
HETATM   33  C   UNL     1      42.541 -14.580   2.478  1.00  0.00     0.031 A 
HETATM   34  C   UNL     1      41.742 -13.551   1.978  1.00  0.00     0.021 A 
HETATM   35  C   UNL     1      40.350 -13.674   2.006  1.00  0.00     0.011 A 
HETATM   36 BR   UNL     1      39.277 -12.277   1.324  1.00  0.00    -0.051 Br
HETATM   37  C   UNL     1      39.742 -14.821   2.525  1.00  0.00     0.021 A 
HETATM   38  C   UNL     1      40.530 -15.855   3.032  1.00  0.00     0.031 A 
ENDBRANCH  10  32
BRANCH  11  39
HETATM   39  N   UNL     1      42.364 -17.974   1.422  1.00  0.00    -0.384 N 
HETATM   40  H   UNL     1      41.861 -17.193   1.017  1.00  0.00     0.157 HD
HETATM   41  H   UNL     1      42.878 -18.523   0.739  1.00  0.00     0.157 HD
ENDBRANCH  11  39
TORSDOF 10
ENDMDL
MODEL 4
REMARK VINA RESULT:      -8.5      4.357     10.652
REMARK  10 active torsions:
REMARK  status: ('A' for Active; 'I' for Inactive)
REMARK    1  A    between atoms: C_9  and  S_10 
REMARK    2  A    between atoms: S_10  and  C_11 
REMARK    3  A    between atoms: C_11  and  C_12 
REMARK       I    between atoms: C_12  and  N_13 
REMARK    4  A    between atoms: N_13  and  C_14 
REMARK    5  A    between atoms: C_14  and  C_15 
REMARK    6  A    between atoms: C_15  and  C_16 
REMARK    7  A    between atoms: C_19  and  S_20 
REMARK    8  A    between atoms: S_20  and  N_21 
REMARK    9  A    between atoms: N_27  and  C_28 
REMARK   10  A    between atoms: C_35  and  N_36 
ROOT
HETATM    1  C   UNL     1      38.739  -8.299   7.076  1.00  0.00     0.073 C 
HETATM    2  C   UNL     1      39.965  -9.139   7.066  1.00  0.00     0.068 A 
HETATM    3  N   UNL     1      40.375  -9.679   5.912  1.00  0.00    -0.177 NA
HETATM    4  N   UNL     1      41.461 -10.391   6.246  1.00  0.00    -0.260 N 
HETATM    5  H   UNL     1      41.951 -10.909   5.523  1.00  0.00     0.191 HD
HETATM    6  C   UNL     1      41.752 -10.330   7.578  1.00  0.00     0.162 A 
HETATM    7  C   UNL     1      40.815  -9.499   8.156  1.00  0.00     0.081 A 
HETATM    8  N   UNL     1      42.745 -10.970   8.196  1.00  0.00    -0.204 NA
HETATM    9  C   UNL     1      42.755 -10.725   9.526  1.00  0.00     0.177 A 
HETATM   10  N   UNL     1      41.878  -9.909  10.179  1.00  0.00    -0.276 N 
HETATM   11  C   UNL     1      40.885  -9.234   9.534  1.00  0.00     0.124 A 
ENDROOT
BRANCH   9  12
HETATM   12  S   UNL     1      43.954 -11.737  10.411  1.00  0.00    -0.082 SA
BRANCH  12  13
HETATM   13  C   UNL     1      45.479 -11.200   9.568  1.00  0.00     0.185 C 
BRANCH  13  14
HETATM   14  C   UNL     1      45.856 -12.179   8.464  1.00  0.00     0.227 C 
HETATM   15  N   UNL     1      44.884 -13.114   8.186  1.00  0.00    -0.360 N 
HETATM   16  H   UNL     1      43.946 -12.953   8.538  1.00  0.00     0.162 HD
HETATM   17  O   UNL     1      46.943 -12.133   7.887  1.00  0.00    -0.273 OA
BRANCH  15  18
HETATM   18  C   UNL     1      45.011 -14.058   7.085  1.00  0.00     0.127 C 
BRANCH  18  19
HETATM   19  C   UNL     1      44.059 -15.245   7.251  1.00  0.00     0.058 C 
BRANCH  19  20
HETATM   20  C   UNL     1      43.795 -15.953   5.946  1.00  0.00    -0.057 A 
HETATM   21  C   UNL     1      43.262 -15.255   4.852  1.00  0.00     0.009 A 
HETATM   22  C   UNL     1      43.000 -15.917   3.651  1.00  0.00     0.025 A 
HETATM   23  C   UNL     1      43.277 -17.282   3.541  1.00  0.00     0.074 A 
HETATM   24  C   UNL     1      43.795 -17.993   4.626  1.00  0.00     0.025 A 
HETATM   25  C   UNL     1      44.056 -17.326   5.823  1.00  0.00     0.009 A 
BRANCH  23  26
HETATM   26  S   UNL     1      42.893 -18.137   2.039  1.00  0.00     0.239 S 
HETATM   27  O   UNL     1      43.365 -19.498   2.140  1.00  0.00    -0.206 OA
HETATM   28  O   UNL     1      41.541 -17.811   1.647  1.00  0.00    -0.206 OA
BRANCH  26  29
HETATM   29  N   UNL     1      43.897 -17.371   0.935  1.00  0.00    -0.225 NA
HETATM   30  H   UNL     1      44.501 -16.706   1.418  1.00  0.00     0.136 HD
HETATM   31  H   UNL     1      44.413 -18.067   0.394  1.00  0.00     0.136 HD
ENDBRANCH  26  29
ENDBRANCH  23  26
ENDBRANCH  19  20
ENDBRANCH  18  19
ENDBRANCH  15  18
ENDBRANCH  13  14
ENDBRANCH  12  13
ENDBRANCH   9  12
BRANCH  10  32
HETATM   32  C   UNL     1      41.966  -9.785  11.605  1.00  0.00     0.043 A 
HETATM   33  C   UNL     1      42.802  -8.810  12.154  1.00  0.00     0.031 A 
HETATM   34  C   UNL     1      42.855  -8.680  13.543  1.00  0.00     0.021 A 
HETATM   35  C   UNL     1      42.070  -9.506  14.351  1.00  0.00     0.011 A 
HETATM   36 BR   UNL     1      42.147  -9.320  16.229  1.00  0.00    -0.051 Br
HETATM   37  C   UNL     1      41.221 -10.464  13.786  1.00  0.00     0.021 A 
HETATM   38  C   UNL     1      41.162 -10.607  12.400  1.00  0.00     0.031 A 
ENDBRANCH  10  32
BRANCH  11  39
HETATM   39  N   UNL     1      39.995  -8.386  10.187  1.00  0.00    -0.384 N 
HETATM   40  H   UNL     1      39.713  -8.575  11.143  1.00  0.00     0.157 HD
HETATM   41  H   UNL     1      40.041  -7.396   9.966  1.00  0.00     0.157 HD
ENDBRANCH  11  39
TORSDOF 10
ENDMDL
MODEL 5
REMARK VINA RESULT:      -8.4      1.942      2.465
REMARK  10 active torsions:
REMARK  status: ('A' for Active; 'I' for Inactive)
REMARK    1  A    between atoms: C_9  and  S_10 
REMARK    2  A    between atoms: S_10  and  C_11 
REMARK    3  A    between atoms: C_11  and  C_12 
REMARK       I    between atoms: C_12  and  N_13 
REMARK    4  A    between atoms: N_13  and  C_14 
REMARK    5  A    between atoms: C_14  and  C_15 
REMARK    6  A    between atoms: C_15  and  C_16 
REMARK    7  A    between atoms: C_19  and  S_20 
REMARK    8  A    between atoms: S_20  and  N_21 
REMARK    9  A    between atoms: N_27  and  C_28 
REMARK   10  A    between atoms: C_35  and  N_36 
ROOT
HETATM    1  C   UNL     1      44.226 -21.319   2.105  1.00  0.00     0.073 C 
HETATM    2  C   UNL     1      44.355 -20.567   3.381  1.00  0.00     0.068 A 
HETATM    3  N   UNL     1      44.817 -21.200   4.466  1.00  0.00    -0.177 NA
HETATM    4  N   UNL     1      44.776 -20.272   5.433  1.00  0.00    -0.260 N 
HETATM    5  H   UNL     1      45.076 -20.525   6.369  1.00  0.00     0.191 HD
HETATM    6  C   UNL     1      44.295 -19.070   5.002  1.00  0.00     0.162 A 
HETATM    7  C   UNL     1      44.029 -19.203   3.655  1.00  0.00     0.081 A 
HETATM    8  N   UNL     1      44.105 -17.984   5.751  1.00  0.00    -0.204 NA
HETATM    9  C   UNL     1      43.591 -16.958   5.036  1.00  0.00     0.177 A 
HETATM   10  N   UNL     1      43.310 -16.997   3.702  1.00  0.00    -0.276 N 
HETATM   11  C   UNL     1      43.537 -18.101   2.936  1.00  0.00     0.124 A 
ENDROOT
BRANCH   9  12
HETATM   12  S   UNL     1      43.133 -15.552   6.065  1.00  0.00    -0.082 SA
BRANCH  12  13
HETATM   13  C   UNL     1      41.329 -15.807   6.132  1.00  0.00     0.185 C 
BRANCH  13  14
HETATM   14  C   UNL     1      40.590 -14.523   5.782  1.00  0.00     0.227 C 
HETATM   15  N   UNL     1      41.253 -13.374   6.156  1.00  0.00    -0.360 N 
HETATM   16  H   UNL     1      42.234 -13.443   6.403  1.00  0.00     0.162 HD
HETATM   17  O   UNL     1      39.493 -14.526   5.223  1.00  0.00    -0.273 OA
BRANCH  15  18
HETATM   18  C   UNL     1      40.764 -12.049   5.803  1.00  0.00     0.127 C 
BRANCH  18  19
HETATM   19  C   UNL     1      41.550 -10.951   6.522  1.00  0.00     0.058 C 
BRANCH  19  20
HETATM   20  C   UNL     1      41.322 -10.968   8.013  1.00  0.00    -0.057 A 
HETATM   21  C   UNL     1      40.023 -11.047   8.535  1.00  0.00     0.009 A 
HETATM   22  C   UNL     1      39.814 -11.044   9.916  1.00  0.00     0.025 A 
HETATM   23  C   UNL     1      40.909 -10.968  10.779  1.00  0.00     0.074 A 
HETATM   24  C   UNL     1      42.208 -10.876  10.274  1.00  0.00     0.025 A 
HETATM   25  C   UNL     1      42.411 -10.880   8.893  1.00  0.00     0.009 A 
BRANCH  23  26
HETATM   26  S   UNL     1      40.646 -10.906  12.528  1.00  0.00     0.239 S 
HETATM   27  O   UNL     1      41.925 -10.941  13.197  1.00  0.00    -0.206 OA
HETATM   28  O   UNL     1      39.647  -9.904  12.816  1.00  0.00    -0.206 OA
BRANCH  26  29
HETATM   29  N   UNL     1      39.921 -12.389  12.825  1.00  0.00    -0.225 NA
HETATM   30  H   UNL     1      40.338 -13.105  12.229  1.00  0.00     0.136 HD
HETATM   31  H   UNL     1      39.974 -12.609  13.821  1.00  0.00     0.136 HD
ENDBRANCH  26  29
ENDBRANCH  23  26
ENDBRANCH  19  20
ENDBRANCH  18  19
ENDBRANCH  15  18
ENDBRANCH  13  14
ENDBRANCH  12  13
ENDBRANCH   9  12
BRANCH  10  32
HETATM   32  C   UNL     1      42.710 -15.852   3.079  1.00  0.00     0.043 A 
HETATM   33  C   UNL     1      41.427 -15.963   2.541  1.00  0.00     0.031 A 
HETATM   34  C   UNL     1      40.843 -14.834   1.965  1.00  0.00     0.021 A 
HETATM   35  C   UNL     1      41.537 -13.622   1.949  1.00  0.00     0.011 A 
HETATM   36 BR   UNL     1      40.737 -12.099   1.168  1.00  0.00    -0.051 Br
HETATM   37  C   UNL     1      42.814 -13.520   2.510  1.00  0.00     0.021 A 
HETATM   38  C   UNL     1      43.411 -14.642   3.085  1.00  0.00     0.031 A 
ENDBRANCH  10  32
BRANCH  11  39
HETATM   39  N   UNL     1      43.269 -18.147   1.571  1.00  0.00    -0.384 N 
HETATM   40  H   UNL     1      42.895 -17.334   1.093  1.00  0.00     0.157 HD
HETATM   41  H   UNL     1      43.882 -18.712   0.990  1.00  0.00     0.157 HD
ENDBRANCH  11  39
TORSDOF 10
ENDMDL
MODEL 6
REMARK VINA RESULT:      -8.3      3.301      5.439
REMARK  10 active torsions:
REMARK  status: ('A' for Active; 'I' for Inactive)
REMARK    1  A    between atoms: C_9  and  S_10 
REMARK    2  A    between atoms: S_10  and  C_11 
REMARK    3  A    between atoms: C_11  and  C_12 
REMARK       I    between atoms: C_12  and  N_13 
REMARK    4  A    between atoms: N_13  and  C_14 
REMARK    5  A    between atoms: C_14  and  C_15 
REMARK    6  A    between atoms: C_15  and  C_16 
REMARK    7  A    between atoms: C_19  and  S_20 
REMARK    8  A    between atoms: S_20  and  N_21 
REMARK    9  A    between atoms: N_27  and  C_28 
REMARK   10  A    between atoms: C_35  and  N_36 
ROOT
HETATM    1  C   UNL     1      37.243 -14.349   0.761  1.00  0.00     0.073 C 
HETATM    2  C   UNL     1      38.381 -13.611   1.368  1.00  0.00     0.068 A 
HETATM    3  N   UNL     1      38.325 -12.275   1.442  1.00  0.00    -0.177 NA
HETATM    4  N   UNL     1      39.495 -11.925   1.995  1.00  0.00    -0.260 N 
HETATM    5  H   UNL     1      39.692 -10.941   2.147  1.00  0.00     0.191 HD
HETATM    6  C   UNL     1      40.300 -12.994   2.268  1.00  0.00     0.162 A 
HETATM    7  C   UNL     1      39.603 -14.126   1.899  1.00  0.00     0.081 A 
HETATM    8  N   UNL     1      41.530 -12.942   2.777  1.00  0.00    -0.204 NA
HETATM    9  C   UNL     1      42.078 -14.171   2.905  1.00  0.00     0.177 A 
HETATM   10  N   UNL     1      41.459 -15.342   2.580  1.00  0.00    -0.276 N 
HETATM   11  C   UNL     1      40.188 -15.388   2.089  1.00  0.00     0.124 A 
ENDROOT
BRANCH   9  12
HETATM   12  S   UNL     1      43.811 -14.114   3.394  1.00  0.00    -0.082 SA
BRANCH  12  13
HETATM   13  C   UNL     1      43.619 -14.311   5.197  1.00  0.00     0.185 C 
BRANCH  13  14
HETATM   14  C   UNL     1      42.298 -13.718   5.665  1.00  0.00     0.227 C 
HETATM   15  N   UNL     1      42.258 -12.341   5.636  1.00  0.00    -0.360 N 
HETATM   16  H   UNL     1      42.973 -11.850   5.109  1.00  0.00     0.162 HD
HETATM   17  O   UNL     1      41.359 -14.419   6.045  1.00  0.00    -0.273 OA
BRANCH  15  18
HETATM   18  C   UNL     1      41.043 -11.596   5.933  1.00  0.00     0.127 C 
BRANCH  18  19
HETATM   19  C   UNL     1      41.347 -10.320   6.722  1.00  0.00     0.058 C 
BRANCH  19  20
HETATM   20  C   UNL     1      41.258 -10.535   8.212  1.00  0.00    -0.057 A 
HETATM   21  C   UNL     1      40.024 -10.809   8.820  1.00  0.00     0.009 A 
HETATM   22  C   UNL     1      39.941 -10.989  10.203  1.00  0.00     0.025 A 
HETATM   23  C   UNL     1      41.098 -10.900  10.980  1.00  0.00     0.074 A 
HETATM   24  C   UNL     1      42.331 -10.614  10.391  1.00  0.00     0.025 A 
HETATM   25  C   UNL     1      42.409 -10.437   9.009  1.00  0.00     0.009 A 
BRANCH  23  26
HETATM   26  S   UNL     1      40.989 -11.070  12.739  1.00  0.00     0.239 S 
HETATM   27  O   UNL     1      42.264 -11.517  13.247  1.00  0.00    -0.206 OA
HETATM   28  O   UNL     1      40.297  -9.923  13.279  1.00  0.00    -0.206 OA
BRANCH  26  29
HETATM   29  N   UNL     1      39.939 -12.369  12.900  1.00  0.00    -0.225 NA
HETATM   30  H   UNL     1      40.303 -13.174  12.390  1.00  0.00     0.136 HD
HETATM   31  H   UNL     1      39.769 -12.558  13.889  1.00  0.00     0.136 HD
ENDBRANCH  26  29
ENDBRANCH  23  26
ENDBRANCH  19  20
ENDBRANCH  18  19
ENDBRANCH  15  18
ENDBRANCH  13  14
ENDBRANCH  12  13
ENDBRANCH   9  12
BRANCH  10  32
HETATM   32  C   UNL     1      42.179 -16.576   2.711  1.00  0.00     0.043 A 
HETATM   33  C   UNL     1      42.050 -17.319   3.886  1.00  0.00     0.031 A 
HETATM   34  C   UNL     1      42.732 -18.532   3.990  1.00  0.00     0.021 A 
HETATM   35  C   UNL     1      43.512 -18.985   2.923  1.00  0.00     0.011 A 
HETATM   36 BR   UNL     1      44.430 -20.630   3.071  1.00  0.00    -0.051 Br
HETATM   37  C   UNL     1      43.616 -18.241   1.743  1.00  0.00     0.021 A 
HETATM   38  C   UNL     1      42.942 -17.025   1.629  1.00  0.00     0.031 A 
ENDBRANCH  10  32
BRANCH  11  39
HETATM   39  N   UNL     1      39.540 -16.578   1.769  1.00  0.00    -0.384 N 
HETATM   40  H   UNL     1      39.985 -17.258   1.162  1.00  0.00     0.157 HD
HETATM   41  H   UNL     1      38.946 -16.996   2.478  1.00  0.00     0.157 HD
ENDBRANCH  11  39
TORSDOF 10
ENDMDL
MODEL 7
REMARK VINA RESULT:      -8.2      5.907      9.620
REMARK  10 active torsions:
REMARK  status: ('A' for Active; 'I' for Inactive)
REMARK    1  A    between atoms: C_9  and  S_10 
REMARK    2  A    between atoms: S_10  and  C_11 
REMARK    3  A    between atoms: C_11  and  C_12 
REMARK       I    between atoms: C_12  and  N_13 
REMARK    4  A    between atoms: N_13  and  C_14 
REMARK    5  A    between atoms: C_14  and  C_15 
REMARK    6  A    between atoms: C_15  and  C_16 
REMARK    7  A    between atoms: C_19  and  S_20 
REMARK    8  A    between atoms: S_20  and  N_21 
REMARK    9  A    between atoms: N_27  and  C_28 
REMARK   10  A    between atoms: C_35  and  N_36 
ROOT
HETATM    1  C   UNL     1      36.066 -12.919  -4.982  1.00  0.00     0.073 C 
HETATM    2  C   UNL     1      36.948 -13.777  -4.148  1.00  0.00     0.068 A 
HETATM    3  N   UNL     1      36.601 -15.052  -3.932  1.00  0.00    -0.177 NA
HETATM    4  N   UNL     1      37.565 -15.527  -3.132  1.00  0.00    -0.260 N 
HETATM    5  H   UNL     1      37.513 -16.491  -2.819  1.00  0.00     0.191 HD
HETATM    6  C   UNL     1      38.513 -14.594  -2.823  1.00  0.00     0.162 A 
HETATM    7  C   UNL     1      38.167 -13.436  -3.487  1.00  0.00     0.081 A 
HETATM    8  N   UNL     1      39.559 -14.773  -2.017  1.00  0.00    -0.204 NA
HETATM    9  C   UNL     1      40.300 -13.649  -1.893  1.00  0.00     0.177 A 
HETATM   10  N   UNL     1      40.042 -12.467  -2.520  1.00  0.00    -0.276 N 
HETATM   11  C   UNL     1      38.987 -12.301  -3.367  1.00  0.00     0.124 A 
ENDROOT
BRANCH   9  12
HETATM   12  S   UNL     1      41.597 -13.805  -0.651  1.00  0.00    -0.082 SA
BRANCH  12  13
HETATM   13  C   UNL     1      40.583 -13.668   0.858  1.00  0.00     0.185 C 
BRANCH  13  14
HETATM   14  C   UNL     1      40.373 -15.036   1.492  1.00  0.00     0.227 C 
HETATM   15  N   UNL     1      40.859 -16.084   0.741  1.00  0.00    -0.360 N 
HETATM   16  H   UNL     1      41.499 -15.875  -0.018  1.00  0.00     0.162 HD
HETATM   17  O   UNL     1      39.808 -15.180   2.577  1.00  0.00    -0.273 OA
BRANCH  15  18
HETATM   18  C   UNL     1      40.858 -17.454   1.232  1.00  0.00     0.127 C 
BRANCH  18  19
HETATM   19  C   UNL     1      42.281 -18.003   1.365  1.00  0.00     0.058 C 
BRANCH  19  20
HETATM   20  C   UNL     1      42.677 -18.221   2.803  1.00  0.00    -0.057 A 
HETATM   21  C   UNL     1      41.915 -17.670   3.844  1.00  0.00     0.009 A 
HETATM   22  C   UNL     1      42.296 -17.857   5.175  1.00  0.00     0.025 A 
HETATM   23  C   UNL     1      43.440 -18.604   5.467  1.00  0.00     0.074 A 
HETATM   24  C   UNL     1      44.216 -19.148   4.440  1.00  0.00     0.025 A 
HETATM   25  C   UNL     1      43.830 -18.958   3.112  1.00  0.00     0.009 A 
BRANCH  23  26
HETATM   26  S   UNL     1      43.958 -18.797   7.148  1.00  0.00     0.239 S 
HETATM   27  O   UNL     1      43.604 -20.122   7.600  1.00  0.00    -0.206 OA
HETATM   28  O   UNL     1      45.289 -18.257   7.293  1.00  0.00    -0.206 OA
BRANCH  26  29
HETATM   29  N   UNL     1      42.934 -17.739   7.952  1.00  0.00    -0.225 NA
HETATM   30  H   UNL     1      42.483 -18.218   8.733  1.00  0.00     0.136 HD
HETATM   31  H   UNL     1      43.449 -16.903   8.233  1.00  0.00     0.136 HD
ENDBRANCH  26  29
ENDBRANCH  23  26
ENDBRANCH  19  20
ENDBRANCH  18  19
ENDBRANCH  15  18
ENDBRANCH  13  14
ENDBRANCH  12  13
ENDBRANCH   9  12
BRANCH  10  32
HETATM   32  C   UNL     1      40.879 -11.333  -2.251  1.00  0.00     0.043 A 
HETATM   33  C   UNL     1      40.526 -10.453  -1.226  1.00  0.00     0.031 A 
HETATM   34  C   UNL     1      41.365  -9.372  -0.954  1.00  0.00     0.021 A 
HETATM   35  C   UNL     1      42.537  -9.196  -1.694  1.00  0.00     0.011 A 
HETATM   36 BR   UNL     1      43.667  -7.730  -1.318  1.00  0.00    -0.051 Br
HETATM   37  C   UNL     1      42.889 -10.097  -2.704  1.00  0.00     0.021 A 
HETATM   38  C   UNL     1      42.057 -11.180  -2.989  1.00  0.00     0.031 A 
ENDBRANCH  10  32
BRANCH  11  39
HETATM   39  N   UNL     1      38.723 -11.104  -4.027  1.00  0.00    -0.384 N 
HETATM   40  H   UNL     1      38.192 -11.100  -4.890  1.00  0.00     0.157 HD
HETATM   41  H   UNL     1      38.577 -10.276  -3.457  1.00  0.00     0.157 HD
ENDBRANCH  11  39
TORSDOF 10
ENDMDL
MODEL 8
REMARK VINA RESULT:      -8.1      4.895      7.901
REMARK  10 active torsions:
REMARK  status: ('A' for Active; 'I' for Inactive)
REMARK    1  A    between atoms: C_9  and  S_10 
REMARK    2  A    between atoms: S_10  and  C_11 
REMARK    3  A    between atoms: C_11  and  C_12 
REMARK       I    between atoms: C_12  and  N_13 
REMARK    4  A    between atoms: N_13  and  C_14 
REMARK    5  A    between atoms: C_14  and  C_15 
REMARK    6  A    between atoms: C_15  and  C_16 
REMARK    7  A    between atoms: C_19  and  S_20 
REMARK    8  A    between atoms: S_20  and  N_21 
REMARK    9  A    between atoms: N_27  and  C_28 
REMARK   10  A    between atoms: C_35  and  N_36 
ROOT
HETATM    1  C   UNL     1      45.285 -20.501   4.776  1.00  0.00     0.073 C 
HETATM    2  C   UNL     1      44.382 -20.118   3.659  1.00  0.00     0.068 A 
HETATM    3  N   UNL     1      44.290 -20.921   2.593  1.00  0.00    -0.177 NA
HETATM    4  N   UNL     1      43.442 -20.286   1.772  1.00  0.00    -0.260 N 
HETATM    5  H   UNL     1      43.218 -20.706   0.875  1.00  0.00     0.191 HD
HETATM    6  C   UNL     1      42.997 -19.098   2.277  1.00  0.00     0.162 A 
HETATM    7  C   UNL     1      43.565 -18.954   3.525  1.00  0.00     0.081 A 
HETATM    8  N   UNL     1      42.183 -18.238   1.664  1.00  0.00    -0.204 NA
HETATM    9  C   UNL     1      41.949 -17.139   2.415  1.00  0.00     0.177 A 
HETATM   10  N   UNL     1      42.456 -16.920   3.662  1.00  0.00    -0.276 N 
HETATM   11  C   UNL     1      43.262 -17.818   4.294  1.00  0.00     0.124 A 
ENDROOT
BRANCH   9  12
HETATM   12  S   UNL     1      41.023 -15.873   1.527  1.00  0.00    -0.082 SA
BRANCH  12  13
HETATM   13  C   UNL     1      41.510 -16.290  -0.180  1.00  0.00     0.185 C 
BRANCH  13  14
HETATM   14  C   UNL     1      41.094 -15.186  -1.143  1.00  0.00     0.227 C 
HETATM   15  N   UNL     1      40.089 -15.549  -2.013  1.00  0.00    -0.360 N 
HETATM   16  H   UNL     1      39.558 -16.389  -1.811  1.00  0.00     0.162 HD
HETATM   17  O   UNL     1      41.625 -14.075  -1.140  1.00  0.00    -0.273 OA
BRANCH  15  18
HETATM   18  C   UNL     1      39.476 -14.597  -2.928  1.00  0.00     0.127 C 
BRANCH  18  19
HETATM   19  C   UNL     1      38.085 -14.174  -2.448  1.00  0.00     0.058 C 
BRANCH  19  20
HETATM   20  C   UNL     1      38.144 -13.332  -1.198  1.00  0.00    -0.057 A 
HETATM   21  C   UNL     1      38.680 -12.037  -1.236  1.00  0.00     0.009 A 
HETATM   22  C   UNL     1      38.751 -11.267  -0.073  1.00  0.00     0.025 A 
HETATM   23  C   UNL     1      38.277 -11.791   1.132  1.00  0.00     0.074 A 
HETATM   24  C   UNL     1      37.753 -13.085   1.187  1.00  0.00     0.025 A 
HETATM   25  C   UNL     1      37.684 -13.850   0.022  1.00  0.00     0.009 A 
BRANCH  23  26
HETATM   26  S   UNL     1      38.416 -10.841   2.619  1.00  0.00     0.239 S 
HETATM   27  O   UNL     1      38.620 -11.738   3.732  1.00  0.00    -0.206 OA
HETATM   28  O   UNL     1      39.273  -9.705   2.370  1.00  0.00    -0.206 OA
BRANCH  26  29
HETATM   29  N   UNL     1      36.864 -10.228   2.788  1.00  0.00    -0.225 NA
HETATM   30  H   UNL     1      36.681 -10.015   3.769  1.00  0.00     0.136 HD
HETATM   31  H   UNL     1      36.738  -9.426   2.169  1.00  0.00     0.136 HD
ENDBRANCH  26  29
ENDBRANCH  23  26
ENDBRANCH  19  20
ENDBRANCH  18  19
ENDBRANCH  15  18
ENDBRANCH  13  14
ENDBRANCH  12  13
ENDBRANCH   9  12
BRANCH  10  32
HETATM   32  C   UNL     1      42.173 -15.679   4.325  1.00  0.00     0.043 A 
HETATM   33  C   UNL     1      43.040 -14.599   4.148  1.00  0.00     0.031 A 
HETATM   34  C   UNL     1      42.738 -13.389   4.774  1.00  0.00     0.021 A 
HETATM   35  C   UNL     1      41.579 -13.275   5.546  1.00  0.00     0.011 A 
HETATM   36 BR   UNL     1      41.177 -11.632   6.388  1.00  0.00    -0.051 Br
HETATM   37  C   UNL     1      40.709 -14.359   5.697  1.00  0.00     0.021 A 
HETATM   38  C   UNL     1      41.001 -15.575   5.080  1.00  0.00     0.031 A 
ENDBRANCH  10  32
BRANCH  11  39
HETATM   39  N   UNL     1      43.772 -17.613   5.573  1.00  0.00    -0.384 N 
HETATM   40  H   UNL     1      44.715 -17.263   5.700  1.00  0.00     0.157 HD
HETATM   41  H   UNL     1      43.125 -17.305   6.293  1.00  0.00     0.157 HD
ENDBRANCH  11  39
TORSDOF 10
ENDMDL
MODEL 9
REMARK VINA RESULT:      -8.1      6.004     10.303
REMARK  10 active torsions:
REMARK  status: ('A' for Active; 'I' for Inactive)
REMARK    1  A    between atoms: C_9  and  S_10 
REMARK    2  A    between atoms: S_10  and  C_11 
REMARK    3  A    between atoms: C_11  and  C_12 
REMARK       I    between atoms: C_12  and  N_13 
REMARK    4  A    between atoms: N_13  and  C_14 
REMARK    5  A    between atoms: C_14  and  C_15 
REMARK    6  A    between atoms: C_15  and  C_16 
REMARK    7  A    between atoms: C_19  and  S_20 
REMARK    8  A    between atoms: S_20  and  N_21 
REMARK    9  A    between atoms: N_27  and  C_28 
REMARK   10  A    between atoms: C_35  and  N_36 
ROOT
HETATM    1  C   UNL     1      43.714 -20.645   7.598  1.00  0.00     0.073 C 
HETATM    2  C   UNL     1      43.978 -20.442   6.149  1.00  0.00     0.068 A 
HETATM    3  N   UNL     1      44.582 -21.414   5.455  1.00  0.00    -0.177 NA
HETATM    4  N   UNL     1      44.702 -20.913   4.217  1.00  0.00    -0.260 N 
HETATM    5  H   UNL     1      45.147 -21.475   3.500  1.00  0.00     0.191 HD
HETATM    6  C   UNL     1      44.200 -19.648   4.101  1.00  0.00     0.162 A 
HETATM    7  C   UNL     1      43.689 -19.304   5.336  1.00  0.00     0.081 A 
HETATM    8  N   UNL     1      44.221 -18.891   3.005  1.00  0.00    -0.204 NA
HETATM    9  C   UNL     1      43.668 -17.676   3.217  1.00  0.00     0.177 A 
HETATM   10  N   UNL     1      43.129 -17.256   4.397  1.00  0.00    -0.276 N 
HETATM   11  C   UNL     1      43.083 -18.048   5.505  1.00  0.00     0.124 A 
ENDROOT
BRANCH   9  12
HETATM   12  S   UNL     1      43.871 -16.563   1.814  1.00  0.00    -0.082 SA
BRANCH  12  13
HETATM   13  C   UNL     1      42.243 -16.782   1.022  1.00  0.00     0.185 C 
BRANCH  13  14
HETATM   14  C   UNL     1      41.801 -15.496   0.338  1.00  0.00     0.227 C 
HETATM   15  N   UNL     1      41.218 -15.687  -0.896  1.00  0.00    -0.360 N 
HETATM   16  H   UNL     1      40.919 -16.624  -1.146  1.00  0.00     0.162 HD
HETATM   17  O   UNL     1      41.966 -14.387   0.849  1.00  0.00    -0.273 OA
BRANCH  15  18
HETATM   18  C   UNL     1      40.626 -14.592  -1.651  1.00  0.00     0.127 C 
BRANCH  18  19
HETATM   19  C   UNL     1      39.216 -14.266  -1.152  1.00  0.00     0.058 C 
BRANCH  19  20
HETATM   20  C   UNL     1      38.250 -14.032  -2.286  1.00  0.00    -0.057 A 
HETATM   21  C   UNL     1      37.606 -12.794  -2.429  1.00  0.00     0.009 A 
HETATM   22  C   UNL     1      36.697 -12.586  -3.469  1.00  0.00     0.025 A 
HETATM   23  C   UNL     1      36.434 -13.618  -4.372  1.00  0.00     0.074 A 
HETATM   24  C   UNL     1      37.057 -14.861  -4.234  1.00  0.00     0.025 A 
HETATM   25  C   UNL     1      37.966 -15.063  -3.194  1.00  0.00     0.009 A 
BRANCH  23  26
HETATM   26  S   UNL     1      35.240 -13.379  -5.656  1.00  0.00     0.239 S 
HETATM   27  O   UNL     1      35.578 -12.185  -6.395  1.00  0.00    -0.206 OA
HETATM   28  O   UNL     1      34.987 -14.645  -6.303  1.00  0.00    -0.206 OA
BRANCH  26  29
HETATM   29  N   UNL     1      33.855 -13.014  -4.783  1.00  0.00    -0.225 NA
HETATM   30  H   UNL     1      33.121 -12.693  -5.415  1.00  0.00     0.136 HD
HETATM   31  H   UNL     1      33.579 -13.818  -4.217  1.00  0.00     0.136 HD
ENDBRANCH  26  29
ENDBRANCH  23  26
ENDBRANCH  19  20
ENDBRANCH  18  19
ENDBRANCH  15  18
ENDBRANCH  13  14
ENDBRANCH  12  13
ENDBRANCH   9  12
BRANCH  10  32
HETATM   32  C   UNL     1      42.627 -15.916   4.501  1.00  0.00     0.043 A 
HETATM   33  C   UNL     1      41.277 -15.671   4.245  1.00  0.00     0.031 A 
HETATM   34  C   UNL     1      40.796 -14.368   4.379  1.00  0.00     0.021 A 
HETATM   35  C   UNL     1      41.660 -13.345   4.778  1.00  0.00     0.011 A 
HETATM   36 BR   UNL     1      40.998 -11.584   4.959  1.00  0.00    -0.051 Br
HETATM   37  C   UNL     1      43.005 -13.608   5.052  1.00  0.00     0.021 A 
HETATM   38  C   UNL     1      43.500 -14.905   4.917  1.00  0.00     0.031 A 
ENDBRANCH  10  32
BRANCH  11  39
HETATM   39  N   UNL     1      42.520 -17.637   6.710  1.00  0.00    -0.384 N 
HETATM   40  H   UNL     1      42.014 -18.295   7.292  1.00  0.00     0.157 HD
HETATM   41  H   UNL     1      43.011 -16.923   7.240  1.00  0.00     0.157 HD
ENDBRANCH  11  39
TORSDOF 10
ENDMDL
MODEL 10
REMARK VINA RESULT:      -7.9      4.544      8.180
REMARK  10 active torsions:
REMARK  status: ('A' for Active; 'I' for Inactive)
REMARK    1  A    between atoms: C_9  and  S_10 
REMARK    2  A    between atoms: S_10  and  C_11 
REMARK    3  A    between atoms: C_11  and  C_12 
REMARK       I    between atoms: C_12  and  N_13 
REMARK    4  A    between atoms: N_13  and  C_14 
REMARK    5  A    between atoms: C_14  and  C_15 
REMARK    6  A    between atoms: C_15  and  C_16 
REMARK    7  A    between atoms: C_19  and  S_20 
REMARK    8  A    between atoms: S_20  and  N_21 
REMARK    9  A    between atoms: N_27  and  C_28 
REMARK   10  A    between atoms: C_35  and  N_36 
ROOT
HETATM    1  C   UNL     1      43.836 -21.159   6.703  1.00  0.00     0.073 C 
HETATM    2  C   UNL     1      43.766 -19.738   7.135  1.00  0.00     0.068 A 
HETATM    3  N   UNL     1      44.000 -19.437   8.418  1.00  0.00    -0.177 NA
HETATM    4  N   UNL     1      43.827 -18.109   8.484  1.00  0.00    -0.260 N 
HETATM    5  H   UNL     1      43.943 -17.641   9.377  1.00  0.00     0.191 HD
HETATM    6  C   UNL     1      43.482 -17.554   7.285  1.00  0.00     0.162 A 
HETATM    7  C   UNL     1      43.455 -18.579   6.361  1.00  0.00     0.081 A 
HETATM    8  N   UNL     1      43.207 -16.269   7.063  1.00  0.00    -0.204 NA
HETATM    9  C   UNL     1      42.873 -16.038   5.773  1.00  0.00     0.177 A 
HETATM   10  N   UNL     1      42.833 -16.985   4.793  1.00  0.00    -0.276 N 
HETATM   11  C   UNL     1      43.145 -18.292   5.022  1.00  0.00     0.124 A 
ENDROOT
BRANCH   9  12
HETATM   12  S   UNL     1      42.298 -14.353   5.494  1.00  0.00    -0.082 SA
BRANCH  12  13
HETATM   13  C   UNL     1      40.528 -14.575   5.872  1.00  0.00     0.185 C 
BRANCH  13  14
HETATM   14  C   UNL     1      39.694 -13.496   5.197  1.00  0.00     0.227 C 
HETATM   15  N   UNL     1      39.935 -13.362   3.846  1.00  0.00    -0.360 N 
HETATM   16  H   UNL     1      40.439 -14.103   3.372  1.00  0.00     0.162 HD
HETATM   17  O   UNL     1      38.887 -12.803   5.817  1.00  0.00    -0.273 OA
BRANCH  15  18
HETATM   18  C   UNL     1      39.153 -12.466   3.006  1.00  0.00     0.127 C 
BRANCH  18  19
HETATM   19  C   UNL     1      39.996 -11.293   2.501  1.00  0.00     0.058 C 
BRANCH  19  20
HETATM   20  C   UNL     1      40.473 -11.500   1.086  1.00  0.00    -0.057 A 
HETATM   21  C   UNL     1      39.568 -11.461   0.016  1.00  0.00     0.009 A 
HETATM   22  C   UNL     1      40.010 -11.672  -1.292  1.00  0.00     0.025 A 
HETATM   23  C   UNL     1      41.365 -11.917  -1.532  1.00  0.00     0.074 A 
HETATM   24  C   UNL     1      42.275 -11.972  -0.474  1.00  0.00     0.025 A 
HETATM   25  C   UNL     1      41.828 -11.759   0.831  1.00  0.00     0.009 A 
BRANCH  23  26
HETATM   26  S   UNL     1      41.920 -12.242  -3.180  1.00  0.00     0.239 S 
HETATM   27  O   UNL     1      40.878 -12.935  -3.900  1.00  0.00    -0.206 OA
HETATM   28  O   UNL     1      42.566 -11.058  -3.699  1.00  0.00    -0.206 OA
BRANCH  26  29
HETATM   29  N   UNL     1      43.140 -13.365  -2.923  1.00  0.00    -0.225 NA
HETATM   30  H   UNL     1      42.740 -14.237  -2.572  1.00  0.00     0.136 HD
HETATM   31  H   UNL     1      43.687 -13.486  -3.777  1.00  0.00     0.136 HD
ENDBRANCH  26  29
ENDBRANCH  23  26
ENDBRANCH  19  20
ENDBRANCH  18  19
ENDBRANCH  15  18
ENDBRANCH  13  14
ENDBRANCH  12  13
ENDBRANCH   9  12
BRANCH  10  32
HETATM   32  C   UNL     1      42.403 -16.612   3.475  1.00  0.00     0.043 A 
HETATM   33  C   UNL     1      43.340 -16.116   2.567  1.00  0.00     0.031 A 
HETATM   34  C   UNL     1      42.914 -15.786   1.280  1.00  0.00     0.021 A 
HETATM   35  C   UNL     1      41.576 -15.969   0.921  1.00  0.00     0.011 A 
HETATM   36 BR   UNL     1      41.010 -15.521  -0.825  1.00  0.00    -0.051 Br
HETATM   37  C   UNL     1      40.653 -16.487   1.834  1.00  0.00     0.021 A 
HETATM   38  C   UNL     1      41.065 -16.817   3.125  1.00  0.00     0.031 A 
ENDBRANCH  10  32
BRANCH  11  39
HETATM   39  N   UNL     1      43.124 -19.264   4.025  1.00  0.00    -0.384 N 
HETATM   40  H   UNL     1      42.312 -19.859   3.905  1.00  0.00     0.157 HD
HETATM   41  H   UNL     1      43.607 -19.056   3.156  1.00  0.00     0.157 HD
ENDBRANCH  11  39
TORSDOF 10
ENDMDL
