MODEL 1
REMARK VINA RESULT:      -8.1      0.000      0.000
REMARK  9 active torsions:
REMARK  status: ('A' for Active; 'I' for Inactive)
REMARK    1  A    between atoms: C_2  and  C_3 
REMARK    2  A    between atoms: C_3  and  C_4 
REMARK    3  A    between atoms: C_4  and  N_5 
REMARK    4  A    between atoms: C_9  and  C_10 
REMARK    5  A    between atoms: C_13  and  C_14 
REMARK    6  A    between atoms: C_14  and  O_15 
REMARK    7  A    between atoms: C_20  and  C_21 
REMARK       I    between atoms: C_21  and  N_22 
REMARK    8  A    between atoms: N_22  and  C_23 
REMARK    9  A    between atoms: C_24  and  O_25 
ROOT
HETATM    1  N   UNL     1      40.439 -14.513   2.055  1.00  0.00    -0.303 N 
HETATM    2  C   UNL     1      39.857 -14.470   3.321  1.00  0.00     0.323 C 
HETATM    3  O   UNL     1      38.922 -13.734   3.632  1.00  0.00    -0.247 OA
HETATM    4  N   UNL     1      40.345 -15.332   4.249  1.00  0.00    -0.330 N 
HETATM    5  C   UNL     1      41.582 -16.063   4.134  1.00  0.00     0.160 C 
HETATM    6  C   UNL     1      41.973 -16.198   2.696  1.00  0.00     0.059 C 
HETATM    7  C   UNL     1      41.458 -15.420   1.720  1.00  0.00     0.026 C 
HETATM    8  C   UNL     1      41.959 -15.457   0.295  1.00  0.00     0.069 C 
HETATM    9  H   UNL     1      39.938 -15.217   5.167  1.00  0.00     0.165 HD
ENDROOT
BRANCH   6  10
HETATM   10  C   UNL     1      42.993 -17.253   2.441  1.00  0.00     0.256 C 
HETATM   11  N   UNL     1      42.595 -18.491   2.889  1.00  0.00    -0.321 N 
HETATM   12  H   UNL     1      41.666 -18.589   3.289  1.00  0.00     0.169 HD
HETATM   13  O   UNL     1      44.059 -16.963   1.919  1.00  0.00    -0.267 OA
BRANCH  11  14
HETATM   14  C   UNL     1      43.314 -19.706   2.831  1.00  0.00     0.068 A 
HETATM   15  C   UNL     1      44.111 -20.032   3.950  1.00  0.00     0.095 A 
HETATM   16  C   UNL     1      44.857 -21.215   3.950  1.00  0.00     0.039 A 
HETATM   17  C   UNL     1      44.807 -22.075   2.851  1.00  0.00     0.003 A 
HETATM   18  C   UNL     1      44.015 -21.758   1.751  1.00  0.00     0.002 A 
HETATM   19  C   UNL     1      43.271 -20.577   1.740  1.00  0.00     0.032 A 
BRANCH  15  20
HETATM   20  O   UNL     1      44.081 -19.121   4.981  1.00  0.00    -0.354 OA
HETATM   21  C   UNL     1      44.034 -19.650   6.301  1.00  0.00     0.210 C 
ENDBRANCH  15  20
ENDBRANCH  11  14
ENDBRANCH   6  10
BRANCH   5  22
HETATM   22  C   UNL     1      42.653 -15.435   5.015  1.00  0.00    -0.031 A 
HETATM   23  C   UNL     1      43.249 -14.223   4.633  1.00  0.00     0.010 A 
HETATM   24  C   UNL     1      44.175 -13.589   5.467  1.00  0.00     0.018 A 
HETATM   25  C   UNL     1      44.519 -14.154   6.700  1.00  0.00     0.039 A 
HETATM   26  C   UNL     1      43.956 -15.379   7.075  1.00  0.00     0.018 A 
HETATM   27  C   UNL     1      43.034 -16.016   6.237  1.00  0.00     0.010 A 
BRANCH  25  28
HETATM   28  C   UNL     1      45.460 -13.405   7.576  1.00  0.00     0.292 C 
HETATM   29  O   UNL     1      46.526 -12.951   7.190  1.00  0.00    -0.259 OA
BRANCH  28  30
HETATM   30  O   UNL     1      44.946 -13.271   8.824  1.00  0.00    -0.323 OA
HETATM   31  C   UNL     1      44.990 -11.935   9.326  1.00  0.00     0.213 C 
ENDBRANCH  28  30
ENDBRANCH  25  28
ENDBRANCH   5  22
BRANCH   1  32
HETATM   32  C   UNL     1      39.829 -13.634   1.047  1.00  0.00     0.133 C 
BRANCH  32  33
HETATM   33  C   UNL     1      38.553 -14.240   0.453  1.00  0.00     0.020 C 
BRANCH  33  34
HETATM   34  C   UNL     1      37.991 -13.364  -0.666  1.00  0.00    -0.003 C 
HETATM   35  C   UNL     1      38.130 -14.036  -2.023  1.00  0.00     0.005 C 
ENDBRANCH  33  34
ENDBRANCH  32  33
ENDBRANCH   1  32
TORSDOF 9
ENDMDL
MODEL 2
REMARK VINA RESULT:      -7.8      1.856      2.281
REMARK  9 active torsions:
REMARK  status: ('A' for Active; 'I' for Inactive)
REMARK    1  A    between atoms: C_2  and  C_3 
REMARK    2  A    between atoms: C_3  and  C_4 
REMARK    3  A    between atoms: C_4  and  N_5 
REMARK    4  A    between atoms: C_9  and  C_10 
REMARK    5  A    between atoms: C_13  and  C_14 
REMARK    6  A    between atoms: C_14  and  O_15 
REMARK    7  A    between atoms: C_20  and  C_21 
REMARK       I    between atoms: C_21  and  N_22 
REMARK    8  A    between atoms: N_22  and  C_23 
REMARK    9  A    between atoms: C_24  and  O_25 
ROOT
HETATM    1  N   UNL     1      40.551 -13.742   0.403  1.00  0.00    -0.303 N 
HETATM    2  C   UNL     1      39.994 -12.940   1.398  1.00  0.00     0.323 C 
HETATM    3  O   UNL     1      39.587 -11.793   1.220  1.00  0.00    -0.247 OA
HETATM    4  N   UNL     1      39.866 -13.493   2.631  1.00  0.00    -0.330 N 
HETATM    5  C   UNL     1      40.512 -14.705   3.068  1.00  0.00     0.160 C 
HETATM    6  C   UNL     1      40.873 -15.555   1.891  1.00  0.00     0.059 C 
HETATM    7  C   UNL     1      40.936 -15.074   0.631  1.00  0.00     0.026 C 
HETATM    8  C   UNL     1      41.441 -15.894  -0.533  1.00  0.00     0.069 C 
HETATM    9  H   UNL     1      39.519 -12.853   3.332  1.00  0.00     0.165 HD
ENDROOT
BRANCH   6  10
HETATM   10  C   UNL     1      41.173 -16.973   2.235  1.00  0.00     0.256 C 
HETATM   11  N   UNL     1      42.523 -17.217   2.333  1.00  0.00    -0.321 N 
HETATM   12  H   UNL     1      43.169 -16.440   2.220  1.00  0.00     0.169 HD
HETATM   13  O   UNL     1      40.264 -17.779   2.365  1.00  0.00    -0.267 OA
BRANCH  11  14
HETATM   14  C   UNL     1      43.163 -18.443   2.622  1.00  0.00     0.068 A 
HETATM   15  C   UNL     1      43.808 -18.549   3.873  1.00  0.00     0.095 A 
HETATM   16  C   UNL     1      44.470 -19.732   4.215  1.00  0.00     0.039 A 
HETATM   17  C   UNL     1      44.486 -20.809   3.326  1.00  0.00     0.003 A 
HETATM   18  C   UNL     1      43.843 -20.708   2.096  1.00  0.00     0.002 A 
HETATM   19  C   UNL     1      43.183 -19.530   1.744  1.00  0.00     0.032 A 
BRANCH  15  20
HETATM   20  O   UNL     1      43.725 -17.434   4.676  1.00  0.00    -0.354 OA
HETATM   21  C   UNL     1      44.237 -17.557   5.998  1.00  0.00     0.210 C 
ENDBRANCH  15  20
ENDBRANCH  11  14
ENDBRANCH   6  10
BRANCH   5  22
HETATM   22  C   UNL     1      41.684 -14.379   3.984  1.00  0.00    -0.031 A 
HETATM   23  C   UNL     1      41.550 -14.539   5.373  1.00  0.00     0.010 A 
HETATM   24  C   UNL     1      42.639 -14.324   6.223  1.00  0.00     0.018 A 
HETATM   25  C   UNL     1      43.881 -13.947   5.701  1.00  0.00     0.039 A 
HETATM   26  C   UNL     1      44.015 -13.752   4.322  1.00  0.00     0.018 A 
HETATM   27  C   UNL     1      42.925 -13.961   3.472  1.00  0.00     0.010 A 
BRANCH  25  28
HETATM   28  C   UNL     1      45.021 -13.794   6.645  1.00  0.00     0.292 C 
HETATM   29  O   UNL     1      46.151 -13.492   6.296  1.00  0.00    -0.259 OA
BRANCH  28  30
HETATM   30  O   UNL     1      44.612 -13.993   7.924  1.00  0.00    -0.323 OA
HETATM   31  C   UNL     1      44.793 -12.858   8.771  1.00  0.00     0.213 C 
ENDBRANCH  28  30
ENDBRANCH  25  28
ENDBRANCH   5  22
BRANCH   1  32
HETATM   32  C   UNL     1      40.591 -13.148  -0.941  1.00  0.00     0.133 C 
BRANCH  32  33
HETATM   33  C   UNL     1      41.951 -12.512  -1.248  1.00  0.00     0.020 C 
BRANCH  33  34
HETATM   34  C   UNL     1      42.219 -12.475  -2.752  1.00  0.00    -0.003 C 
HETATM   35  C   UNL     1      41.561 -13.646  -3.465  1.00  0.00     0.005 C 
ENDBRANCH  33  34
ENDBRANCH  32  33
ENDBRANCH   1  32
TORSDOF 9
ENDMDL
MODEL 3
REMARK VINA RESULT:      -7.6      2.394      7.264
REMARK  9 active torsions:
REMARK  status: ('A' for Active; 'I' for Inactive)
REMARK    1  A    between atoms: C_2  and  C_3 
REMARK    2  A    between atoms: C_3  and  C_4 
REMARK    3  A    between atoms: C_4  and  N_5 
REMARK    4  A    between atoms: C_9  and  C_10 
REMARK    5  A    between atoms: C_13  and  C_14 
REMARK    6  A    between atoms: C_14  and  O_15 
REMARK    7  A    between atoms: C_20  and  C_21 
REMARK       I    between atoms: C_21  and  N_22 
REMARK    8  A    between atoms: N_22  and  C_23 
REMARK    9  A    between atoms: C_24  and  O_25 
ROOT
HETATM    1  N   UNL     1      41.816 -14.712   4.846  1.00  0.00    -0.303 N 
HETATM    2  C   UNL     1      41.068 -15.790   5.321  1.00  0.00     0.323 C 
HETATM    3  O   UNL     1      40.718 -15.931   6.491  1.00  0.00    -0.247 OA
HETATM    4  N   UNL     1      40.680 -16.716   4.407  1.00  0.00    -0.330 N 
HETATM    5  C   UNL     1      41.210 -16.838   3.073  1.00  0.00     0.160 C 
HETATM    6  C   UNL     1      41.803 -15.538   2.628  1.00  0.00     0.059 C 
HETATM    7  C   UNL     1      42.133 -14.551   3.487  1.00  0.00     0.026 C 
HETATM    8  C   UNL     1      42.864 -13.301   3.056  1.00  0.00     0.069 C 
HETATM    9  H   UNL     1      40.199 -17.509   4.808  1.00  0.00     0.165 HD
ENDROOT
BRANCH   6  10
HETATM   10  C   UNL     1      42.012 -15.438   1.156  1.00  0.00     0.256 C 
HETATM   11  N   UNL     1      40.933 -14.890   0.505  1.00  0.00    -0.321 N 
HETATM   12  H   UNL     1      40.143 -14.566   1.058  1.00  0.00     0.169 HD
HETATM   13  O   UNL     1      43.045 -15.856   0.654  1.00  0.00    -0.267 OA
BRANCH  11  14
HETATM   14  C   UNL     1      40.779 -14.666  -0.881  1.00  0.00     0.068 A 
HETATM   15  C   UNL     1      40.508 -13.342  -1.290  1.00  0.00     0.095 A 
HETATM   16  C   UNL     1      40.334 -13.056  -2.647  1.00  0.00     0.039 A 
HETATM   17  C   UNL     1      40.434 -14.075  -3.597  1.00  0.00     0.003 A 
HETATM   18  C   UNL     1      40.708 -15.379  -3.195  1.00  0.00     0.002 A 
HETATM   19  C   UNL     1      40.880 -15.675  -1.842  1.00  0.00     0.032 A 
BRANCH  15  20
HETATM   20  O   UNL     1      40.439 -12.414  -0.275  1.00  0.00    -0.354 OA
HETATM   21  C   UNL     1      40.055 -11.094  -0.641  1.00  0.00     0.210 C 
ENDBRANCH  15  20
ENDBRANCH  11  14
ENDBRANCH   6  10
BRANCH   5  22
HETATM   22  C   UNL     1      42.166 -18.020   2.989  1.00  0.00    -0.031 A 
HETATM   23  C   UNL     1      43.052 -18.278   4.048  1.00  0.00     0.010 A 
HETATM   24  C   UNL     1      43.879 -19.405   4.027  1.00  0.00     0.018 A 
HETATM   25  C   UNL     1      43.835 -20.295   2.948  1.00  0.00     0.039 A 
HETATM   26  C   UNL     1      42.981 -20.028   1.872  1.00  0.00     0.018 A 
HETATM   27  C   UNL     1      42.157 -18.898   1.891  1.00  0.00     0.010 A 
BRANCH  25  28
HETATM   28  C   UNL     1      44.691 -21.511   3.006  1.00  0.00     0.292 C 
HETATM   29  O   UNL     1      44.743 -22.344   2.115  1.00  0.00    -0.259 OA
BRANCH  28  30
HETATM   30  O   UNL     1      45.418 -21.528   4.152  1.00  0.00    -0.323 OA
HETATM   31  C   UNL     1      45.046 -22.568   5.056  1.00  0.00     0.213 C 
ENDBRANCH  28  30
ENDBRANCH  25  28
ENDBRANCH   5  22
BRANCH   1  32
HETATM   32  C   UNL     1      42.142 -13.681   5.841  1.00  0.00     0.133 C 
BRANCH  32  33
HETATM   33  C   UNL     1      43.631 -13.680   6.202  1.00  0.00     0.020 C 
BRANCH  33  34
HETATM   34  C   UNL     1      43.944 -14.725   7.271  1.00  0.00    -0.003 C 
HETATM   35  C   UNL     1      44.492 -16.004   6.657  1.00  0.00     0.005 C 
ENDBRANCH  33  34
ENDBRANCH  32  33
ENDBRANCH   1  32
TORSDOF 9
ENDMDL
MODEL 4
REMARK VINA RESULT:      -7.6      2.444      3.340
REMARK  9 active torsions:
REMARK  status: ('A' for Active; 'I' for Inactive)
REMARK    1  A    between atoms: C_2  and  C_3 
REMARK    2  A    between atoms: C_3  and  C_4 
REMARK    3  A    between atoms: C_4  and  N_5 
REMARK    4  A    between atoms: C_9  and  C_10 
REMARK    5  A    between atoms: C_13  and  C_14 
REMARK    6  A    between atoms: C_14  and  O_15 
REMARK    7  A    between atoms: C_20  and  C_21 
REMARK       I    between atoms: C_21  and  N_22 
REMARK    8  A    between atoms: N_22  and  C_23 
REMARK    9  A    between atoms: C_24  and  O_25 
ROOT
HETATM    1  N   UNL     1      39.335 -14.070  -0.047  1.00  0.00    -0.303 N 
HETATM    2  C   UNL     1      38.208 -14.176   0.768  1.00  0.00     0.323 C 
HETATM    3  O   UNL     1      37.095 -13.744   0.474  1.00  0.00    -0.247 OA
HETATM    4  N   UNL     1      38.362 -14.837   1.943  1.00  0.00    -0.330 N 
HETATM    5  C   UNL     1      39.627 -15.172   2.548  1.00  0.00     0.160 C 
HETATM    6  C   UNL     1      40.704 -15.214   1.509  1.00  0.00     0.059 C 
HETATM    7  C   UNL     1      40.572 -14.642   0.293  1.00  0.00     0.026 C 
HETATM    8  C   UNL     1      41.709 -14.556  -0.698  1.00  0.00     0.069 C 
HETATM    9  H   UNL     1      37.538 -14.831   2.527  1.00  0.00     0.165 HD
ENDROOT
BRANCH   6  10
HETATM   10  C   UNL     1      41.939 -15.924   1.943  1.00  0.00     0.256 C 
HETATM   11  N   UNL     1      41.713 -17.251   2.225  1.00  0.00    -0.321 N 
HETATM   12  H   UNL     1      40.782 -17.630   2.071  1.00  0.00     0.169 HD
HETATM   13  O   UNL     1      42.993 -15.314   2.049  1.00  0.00    -0.267 OA
BRANCH  11  14
HETATM   14  C   UNL     1      42.644 -18.212   2.678  1.00  0.00     0.068 A 
HETATM   15  C   UNL     1      42.947 -18.209   4.057  1.00  0.00     0.095 A 
HETATM   16  C   UNL     1      43.870 -19.127   4.567  1.00  0.00     0.039 A 
HETATM   17  C   UNL     1      44.485 -20.049   3.717  1.00  0.00     0.003 A 
HETATM   18  C   UNL     1      44.180 -20.057   2.359  1.00  0.00     0.002 A 
HETATM   19  C   UNL     1      43.264 -19.142   1.840  1.00  0.00     0.032 A 
BRANCH  15  20
HETATM   20  O   UNL     1      42.280 -17.266   4.805  1.00  0.00    -0.354 OA
HETATM   21  C   UNL     1      43.081 -16.337   5.527  1.00  0.00     0.210 C 
ENDBRANCH  15  20
ENDBRANCH  11  14
ENDBRANCH   6  10
BRANCH   5  22
HETATM   22  C   UNL     1      39.921 -14.238   3.714  1.00  0.00    -0.031 A 
HETATM   23  C   UNL     1      40.172 -12.878   3.473  1.00  0.00     0.010 A 
HETATM   24  C   UNL     1      40.363 -11.989   4.535  1.00  0.00     0.018 A 
HETATM   25  C   UNL     1      40.304 -12.444   5.857  1.00  0.00     0.039 A 
HETATM   26  C   UNL     1      40.087 -13.804   6.106  1.00  0.00     0.018 A 
HETATM   27  C   UNL     1      39.902 -14.693   5.044  1.00  0.00     0.010 A 
BRANCH  25  28
HETATM   28  C   UNL     1      40.450 -11.444   6.949  1.00  0.00     0.292 C 
HETATM   29  O   UNL     1      41.524 -10.985   7.305  1.00  0.00    -0.259 OA
BRANCH  28  30
HETATM   30  O   UNL     1      39.236 -11.098   7.446  1.00  0.00    -0.323 OA
HETATM   31  C   UNL     1      39.241 -10.825   8.847  1.00  0.00     0.213 C 
ENDBRANCH  28  30
ENDBRANCH  25  28
ENDBRANCH   5  22
BRANCH   1  32
HETATM   32  C   UNL     1      39.114 -13.431  -1.352  1.00  0.00     0.133 C 
BRANCH  32  33
HETATM   33  C   UNL     1      38.442 -14.379  -2.351  1.00  0.00     0.020 C 
BRANCH  33  34
HETATM   34  C   UNL     1      39.360 -14.679  -3.535  1.00  0.00    -0.003 C 
HETATM   35  C   UNL     1      39.787 -16.138  -3.554  1.00  0.00     0.005 C 
ENDBRANCH  33  34
ENDBRANCH  32  33
ENDBRANCH   1  32
TORSDOF 9
ENDMDL
MODEL 5
REMARK VINA RESULT:      -7.6      2.597      5.932
REMARK  9 active torsions:
REMARK  status: ('A' for Active; 'I' for Inactive)
REMARK    1  A    between atoms: C_2  and  C_3 
REMARK    2  A    between atoms: C_3  and  C_4 
REMARK    3  A    between atoms: C_4  and  N_5 
REMARK    4  A    between atoms: C_9  and  C_10 
REMARK    5  A    between atoms: C_13  and  C_14 
REMARK    6  A    between atoms: C_14  and  O_15 
REMARK    7  A    between atoms: C_20  and  C_21 
REMARK       I    between atoms: C_21  and  N_22 
REMARK    8  A    between atoms: N_22  and  C_23 
REMARK    9  A    between atoms: C_24  and  O_25 
ROOT
HETATM    1  N   UNL     1      41.415 -13.800   4.965  1.00  0.00    -0.303 N 
HETATM    2  C   UNL     1      42.242 -13.019   4.157  1.00  0.00     0.323 C 
HETATM    3  O   UNL     1      42.403 -11.808   4.292  1.00  0.00    -0.247 OA
HETATM    4  N   UNL     1      42.934 -13.666   3.185  1.00  0.00    -0.330 N 
HETATM    5  C   UNL     1      42.672 -15.008   2.731  1.00  0.00     0.160 C 
HETATM    6  C   UNL     1      41.953 -15.783   3.791  1.00  0.00     0.059 C 
HETATM    7  C   UNL     1      41.315 -15.193   4.824  1.00  0.00     0.026 C 
HETATM    8  C   UNL     1      40.468 -15.964   5.809  1.00  0.00     0.069 C 
HETATM    9  H   UNL     1      43.466 -13.051   2.585  1.00  0.00     0.165 HD
ENDROOT
BRANCH   6  10
HETATM   10  C   UNL     1      41.988 -17.259   3.592  1.00  0.00     0.256 C 
HETATM   11  N   UNL     1      43.267 -17.740   3.438  1.00  0.00    -0.321 N 
HETATM   12  H   UNL     1      44.045 -17.092   3.520  1.00  0.00     0.169 HD
HETATM   13  O   UNL     1      40.946 -17.897   3.546  1.00  0.00    -0.267 OA
BRANCH  11  14
HETATM   14  C   UNL     1      43.668 -19.076   3.212  1.00  0.00     0.068 A 
HETATM   15  C   UNL     1      44.380 -19.714   4.251  1.00  0.00     0.095 A 
HETATM   16  C   UNL     1      44.816 -21.033   4.085  1.00  0.00     0.039 A 
HETATM   17  C   UNL     1      44.542 -21.719   2.900  1.00  0.00     0.003 A 
HETATM   18  C   UNL     1      43.833 -21.092   1.879  1.00  0.00     0.002 A 
HETATM   19  C   UNL     1      43.397 -19.775   2.033  1.00  0.00     0.032 A 
BRANCH  15  20
HETATM   20  O   UNL     1      44.589 -18.952   5.378  1.00  0.00    -0.354 OA
HETATM   21  C   UNL     1      44.022 -19.434   6.591  1.00  0.00     0.210 C 
ENDBRANCH  15  20
ENDBRANCH  11  14
ENDBRANCH   6  10
BRANCH   5  22
HETATM   22  C   UNL     1      41.961 -14.983   1.385  1.00  0.00    -0.031 A 
HETATM   23  C   UNL     1      41.363 -13.796   0.934  1.00  0.00     0.010 A 
HETATM   24  C   UNL     1      40.776 -13.730  -0.333  1.00  0.00     0.018 A 
HETATM   25  C   UNL     1      40.779 -14.849  -1.173  1.00  0.00     0.039 A 
HETATM   26  C   UNL     1      41.343 -16.047  -0.719  1.00  0.00     0.018 A 
HETATM   27  C   UNL     1      41.924 -16.114   0.551  1.00  0.00     0.010 A 
BRANCH  25  28
HETATM   28  C   UNL     1      40.199 -14.705  -2.536  1.00  0.00     0.292 C 
HETATM   29  O   UNL     1      40.715 -15.165  -3.542  1.00  0.00    -0.259 OA
BRANCH  28  30
HETATM   30  O   UNL     1      39.017 -14.041  -2.483  1.00  0.00    -0.323 OA
HETATM   31  C   UNL     1      37.938 -14.731  -3.115  1.00  0.00     0.213 C 
ENDBRANCH  28  30
ENDBRANCH  25  28
ENDBRANCH   5  22
BRANCH   1  32
HETATM   32  C   UNL     1      40.751 -13.087   6.066  1.00  0.00     0.133 C 
BRANCH  32  33
HETATM   33  C   UNL     1      39.265 -12.844   5.780  1.00  0.00     0.020 C 
BRANCH  33  34
HETATM   34  C   UNL     1      39.048 -11.509   5.067  1.00  0.00    -0.003 C 
HETATM   35  C   UNL     1      38.787 -11.706   3.582  1.00  0.00     0.005 C 
ENDBRANCH  33  34
ENDBRANCH  32  33
ENDBRANCH   1  32
TORSDOF 9
ENDMDL
MODEL 6
REMARK VINA RESULT:      -7.5      3.067      7.053
REMARK  9 active torsions:
REMARK  status: ('A' for Active; 'I' for Inactive)
REMARK    1  A    between atoms: C_2  and  C_3 
REMARK    2  A    between atoms: C_3  and  C_4 
REMARK    3  A    between atoms: C_4  and  N_5 
REMARK    4  A    between atoms: C_9  and  C_10 
REMARK    5  A    between atoms: C_13  and  C_14 
REMARK    6  A    between atoms: C_14  and  O_15 
REMARK    7  A    between atoms: C_20  and  C_21 
REMARK       I    between atoms: C_21  and  N_22 
REMARK    8  A    between atoms: N_22  and  C_23 
REMARK    9  A    between atoms: C_24  and  O_25 
ROOT
HETATM    1  N   UNL     1      40.695 -12.057   2.394  1.00  0.00    -0.303 N 
HETATM    2  C   UNL     1      41.311 -11.492   1.278  1.00  0.00     0.323 C 
HETATM    3  O   UNL     1      41.379 -10.284   1.058  1.00  0.00    -0.247 OA
HETATM    4  N   UNL     1      41.901 -12.348   0.405  1.00  0.00    -0.330 N 
HETATM    5  C   UNL     1      41.696 -13.774   0.374  1.00  0.00     0.160 C 
HETATM    6  C   UNL     1      41.224 -14.260   1.708  1.00  0.00     0.059 C 
HETATM    7  C   UNL     1      40.703 -13.439   2.645  1.00  0.00     0.026 C 
HETATM    8  C   UNL     1      40.093 -13.948   3.930  1.00  0.00     0.069 C 
HETATM    9  H   UNL     1      42.274 -11.898  -0.419  1.00  0.00     0.165 HD
ENDROOT
BRANCH   6  10
HETATM   10  C   UNL     1      41.363 -15.730   1.903  1.00  0.00     0.256 C 
HETATM   11  N   UNL     1      42.632 -16.094   2.288  1.00  0.00    -0.321 N 
HETATM   12  H   UNL     1      43.320 -15.363   2.451  1.00  0.00     0.169 HD
HETATM   13  O   UNL     1      40.415 -16.470   1.687  1.00  0.00    -0.267 OA
BRANCH  11  14
HETATM   14  C   UNL     1      43.122 -17.395   2.540  1.00  0.00     0.068 A 
HETATM   15  C   UNL     1      43.398 -17.726   3.884  1.00  0.00     0.095 A 
HETATM   16  C   UNL     1      43.896 -18.994   4.199  1.00  0.00     0.039 A 
HETATM   17  C   UNL     1      44.113 -19.933   3.188  1.00  0.00     0.003 A 
HETATM   18  C   UNL     1      43.833 -19.610   1.864  1.00  0.00     0.002 A 
HETATM   19  C   UNL     1      43.340 -18.345   1.539  1.00  0.00     0.032 A 
BRANCH  15  20
HETATM   20  O   UNL     1      43.142 -16.731   4.801  1.00  0.00    -0.354 OA
HETATM   21  C   UNL     1      42.067 -16.957   5.706  1.00  0.00     0.210 C 
ENDBRANCH  15  20
ENDBRANCH  11  14
ENDBRANCH   6  10
BRANCH   5  22
HETATM   22  C   UNL     1      40.785 -14.154  -0.786  1.00  0.00    -0.031 A 
HETATM   23  C   UNL     1      41.236 -15.059  -1.760  1.00  0.00     0.010 A 
HETATM   24  C   UNL     1      40.387 -15.483  -2.786  1.00  0.00     0.018 A 
HETATM   25  C   UNL     1      39.071 -15.011  -2.856  1.00  0.00     0.039 A 
HETATM   26  C   UNL     1      38.624 -14.082  -1.910  1.00  0.00     0.018 A 
HETATM   27  C   UNL     1      39.475 -13.654  -0.887  1.00  0.00     0.010 A 
BRANCH  25  28
HETATM   28  C   UNL     1      38.191 -15.544  -3.932  1.00  0.00     0.292 C 
HETATM   29  O   UNL     1      38.598 -16.218  -4.865  1.00  0.00    -0.259 OA
BRANCH  28  30
HETATM   30  O   UNL     1      36.897 -15.211  -3.698  1.00  0.00    -0.323 OA
HETATM   31  C   UNL     1      36.351 -14.307  -4.659  1.00  0.00     0.213 C 
ENDBRANCH  28  30
ENDBRANCH  25  28
ENDBRANCH   5  22
BRANCH   1  32
HETATM   32  C   UNL     1      40.146 -11.101   3.366  1.00  0.00     0.133 C 
BRANCH  32  33
HETATM   33  C   UNL     1      38.614 -11.126   3.397  1.00  0.00     0.020 C 
BRANCH  33  34
HETATM   34  C   UNL     1      38.024 -10.560   2.106  1.00  0.00    -0.003 C 
HETATM   35  C   UNL     1      37.296 -11.631   1.309  1.00  0.00     0.005 C 
ENDBRANCH  33  34
ENDBRANCH  32  33
ENDBRANCH   1  32
TORSDOF 9
ENDMDL
MODEL 7
REMARK VINA RESULT:      -7.4      3.097      6.947
REMARK  9 active torsions:
REMARK  status: ('A' for Active; 'I' for Inactive)
REMARK    1  A    between atoms: C_2  and  C_3 
REMARK    2  A    between atoms: C_3  and  C_4 
REMARK    3  A    between atoms: C_4  and  N_5 
REMARK    4  A    between atoms: C_9  and  C_10 
REMARK    5  A    between atoms: C_13  and  C_14 
REMARK    6  A    between atoms: C_14  and  O_15 
REMARK    7  A    between atoms: C_20  and  C_21 
REMARK       I    between atoms: C_21  and  N_22 
REMARK    8  A    between atoms: N_22  and  C_23 
REMARK    9  A    between atoms: C_24  and  O_25 
ROOT
HETATM    1  N   UNL     1      42.552 -17.285   2.816  1.00  0.00    -0.303 N 
HETATM    2  C   UNL     1      43.412 -16.720   3.757  1.00  0.00     0.323 C 
HETATM    3  O   UNL     1      44.045 -17.362   4.594  1.00  0.00    -0.247 OA
HETATM    4  N   UNL     1      43.576 -15.374   3.707  1.00  0.00    -0.330 N 
HETATM    5  C   UNL     1      42.732 -14.461   2.978  1.00  0.00     0.160 C 
HETATM    6  C   UNL     1      42.026 -15.180   1.871  1.00  0.00     0.059 C 
HETATM    7  C   UNL     1      41.903 -16.524   1.830  1.00  0.00     0.026 C 
HETATM    8  C   UNL     1      41.067 -17.238   0.794  1.00  0.00     0.069 C 
HETATM    9  H   UNL     1      44.154 -15.005   4.449  1.00  0.00     0.165 HD
ENDROOT
BRANCH   6  10
HETATM   10  C   UNL     1      41.455 -14.279   0.831  1.00  0.00     0.256 C 
HETATM   11  N   UNL     1      42.263 -14.172  -0.276  1.00  0.00    -0.321 N 
HETATM   12  H   UNL     1      43.114 -14.727  -0.314  1.00  0.00     0.169 HD
HETATM   13  O   UNL     1      40.393 -13.706   1.030  1.00  0.00    -0.267 OA
BRANCH  11  14
HETATM   14  C   UNL     1      42.046 -13.394  -1.436  1.00  0.00     0.068 A 
HETATM   15  C   UNL     1      41.326 -14.001  -2.487  1.00  0.00     0.095 A 
HETATM   16  C   UNL     1      41.087 -13.289  -3.667  1.00  0.00     0.039 A 
HETATM   17  C   UNL     1      41.553 -11.980  -3.802  1.00  0.00     0.003 A 
HETATM   18  C   UNL     1      42.257 -11.379  -2.763  1.00  0.00     0.002 A 
HETATM   19  C   UNL     1      42.504 -12.083  -1.583  1.00  0.00     0.032 A 
BRANCH  15  20
HETATM   20  O   UNL     1      40.905 -15.290  -2.247  1.00  0.00    -0.354 OA
HETATM   21  C   UNL     1      40.132 -15.911  -3.268  1.00  0.00     0.210 C 
ENDBRANCH  15  20
ENDBRANCH  11  14
ENDBRANCH   6  10
BRANCH   5  22
HETATM   22  C   UNL     1      41.805 -13.719   3.931  1.00  0.00    -0.031 A 
HETATM   23  C   UNL     1      40.853 -14.433   4.676  1.00  0.00     0.010 A 
HETATM   24  C   UNL     1      40.049 -13.783   5.616  1.00  0.00     0.018 A 
HETATM   25  C   UNL     1      40.183 -12.406   5.829  1.00  0.00     0.039 A 
HETATM   26  C   UNL     1      41.105 -11.680   5.068  1.00  0.00     0.018 A 
HETATM   27  C   UNL     1      41.905 -12.331   4.123  1.00  0.00     0.010 A 
BRANCH  25  28
HETATM   28  C   UNL     1      39.347 -11.776   6.887  1.00  0.00     0.292 C 
HETATM   29  O   UNL     1      38.974 -12.361   7.892  1.00  0.00    -0.259 OA
BRANCH  28  30
HETATM   30  O   UNL     1      39.106 -10.474   6.591  1.00  0.00    -0.323 OA
HETATM   31  C   UNL     1      39.344  -9.581   7.679  1.00  0.00     0.213 C 
ENDBRANCH  28  30
ENDBRANCH  25  28
ENDBRANCH   5  22
BRANCH   1  32
HETATM   32  C   UNL     1      42.467 -18.752   2.836  1.00  0.00     0.133 C 
BRANCH  32  33
HETATM   33  C   UNL     1      43.500 -19.401   1.909  1.00  0.00     0.020 C 
BRANCH  33  34
HETATM   34  C   UNL     1      44.137 -20.628   2.560  1.00  0.00    -0.003 C 
HETATM   35  C   UNL     1      44.033 -21.853   1.665  1.00  0.00     0.005 C 
ENDBRANCH  33  34
ENDBRANCH  32  33
ENDBRANCH   1  32
TORSDOF 9
ENDMDL
MODEL 8
REMARK VINA RESULT:      -7.4      2.709      4.001
REMARK  9 active torsions:
REMARK  status: ('A' for Active; 'I' for Inactive)
REMARK    1  A    between atoms: C_2  and  C_3 
REMARK    2  A    between atoms: C_3  and  C_4 
REMARK    3  A    between atoms: C_4  and  N_5 
REMARK    4  A    between atoms: C_9  and  C_10 
REMARK    5  A    between atoms: C_13  and  C_14 
REMARK    6  A    between atoms: C_14  and  O_15 
REMARK    7  A    between atoms: C_20  and  C_21 
REMARK       I    between atoms: C_21  and  N_22 
REMARK    8  A    between atoms: N_22  and  C_23 
REMARK    9  A    between atoms: C_24  and  O_25 
ROOT
HETATM    1  N   UNL     1      40.728 -14.893   0.067  1.00  0.00    -0.303 N 
HETATM    2  C   UNL     1      39.531 -14.233   0.342  1.00  0.00     0.323 C 
HETATM    3  O   UNL     1      38.912 -13.547  -0.469  1.00  0.00    -0.247 OA
HETATM    4  N   UNL     1      39.011 -14.402   1.585  1.00  0.00    -0.330 N 
HETATM    5  C   UNL     1      39.720 -14.947   2.715  1.00  0.00     0.160 C 
HETATM    6  C   UNL     1      40.861 -15.797   2.251  1.00  0.00     0.059 C 
HETATM    7  C   UNL     1      41.366 -15.727   1.000  1.00  0.00     0.026 C 
HETATM    8  C   UNL     1      42.608 -16.475   0.577  1.00  0.00     0.069 C 
HETATM    9  H   UNL     1      38.180 -13.852   1.758  1.00  0.00     0.165 HD
ENDROOT
BRANCH   6  10
HETATM   10  C   UNL     1      41.402 -16.710   3.296  1.00  0.00     0.256 C 
HETATM   11  N   UNL     1      42.665 -16.353   3.706  1.00  0.00    -0.321 N 
HETATM   12  H   UNL     1      43.082 -15.510   3.321  1.00  0.00     0.169 HD
HETATM   13  O   UNL     1      40.747 -17.672   3.669  1.00  0.00    -0.267 OA
BRANCH  11  14
HETATM   14  C   UNL     1      43.481 -17.001   4.660  1.00  0.00     0.068 A 
HETATM   15  C   UNL     1      43.698 -16.326   5.880  1.00  0.00     0.095 A 
HETATM   16  C   UNL     1      44.507 -16.908   6.862  1.00  0.00     0.039 A 
HETATM   17  C   UNL     1      45.091 -18.157   6.640  1.00  0.00     0.003 A 
HETATM   18  C   UNL     1      44.870 -18.826   5.439  1.00  0.00     0.002 A 
HETATM   19  C   UNL     1      44.068 -18.251   4.452  1.00  0.00     0.032 A 
BRANCH  15  20
HETATM   20  O   UNL     1      43.070 -15.106   6.000  1.00  0.00    -0.354 OA
HETATM   21  C   UNL     1      43.908 -13.971   6.184  1.00  0.00     0.210 C 
ENDBRANCH  15  20
ENDBRANCH  11  14
ENDBRANCH   6  10
BRANCH   5  22
HETATM   22  C   UNL     1      40.119 -13.836   3.676  1.00  0.00    -0.031 A 
HETATM   23  C   UNL     1      39.758 -13.921   5.030  1.00  0.00     0.010 A 
HETATM   24  C   UNL     1      40.185 -12.953   5.944  1.00  0.00     0.018 A 
HETATM   25  C   UNL     1      40.983 -11.885   5.521  1.00  0.00     0.039 A 
HETATM   26  C   UNL     1      41.321 -11.773   4.168  1.00  0.00     0.018 A 
HETATM   27  C   UNL     1      40.888 -12.738   3.253  1.00  0.00     0.010 A 
BRANCH  25  28
HETATM   28  C   UNL     1      41.462 -10.919   6.547  1.00  0.00     0.292 C 
HETATM   29  O   UNL     1      42.093 -11.246   7.540  1.00  0.00    -0.259 OA
BRANCH  28  30
HETATM   30  O   UNL     1      41.138  -9.649   6.195  1.00  0.00    -0.323 OA
HETATM   31  C   UNL     1      39.796  -9.285   6.522  1.00  0.00     0.213 C 
ENDBRANCH  28  30
ENDBRANCH  25  28
ENDBRANCH   5  22
BRANCH   1  32
HETATM   32  C   UNL     1      41.218 -14.766  -1.314  1.00  0.00     0.133 C 
BRANCH  32  33
HETATM   33  C   UNL     1      40.656 -15.862  -2.226  1.00  0.00     0.020 C 
BRANCH  33  34
HETATM   34  C   UNL     1      40.049 -15.269  -3.496  1.00  0.00    -0.003 C 
HETATM   35  C   UNL     1      39.025 -16.208  -4.116  1.00  0.00     0.005 C 
ENDBRANCH  33  34
ENDBRANCH  32  33
ENDBRANCH   1  32
TORSDOF 9
ENDMDL
MODEL 9
REMARK VINA RESULT:      -7.3      2.503      6.902
REMARK  9 active torsions:
REMARK  status: ('A' for Active; 'I' for Inactive)
REMARK    1  A    between atoms: C_2  and  C_3 
REMARK    2  A    between atoms: C_3  and  C_4 
REMARK    3  A    between atoms: C_4  and  N_5 
REMARK    4  A    between atoms: C_9  and  C_10 
REMARK    5  A    between atoms: C_13  and  C_14 
REMARK    6  A    between atoms: C_14  and  O_15 
REMARK    7  A    between atoms: C_20  and  C_21 
REMARK       I    between atoms: C_21  and  N_22 
REMARK    8  A    between atoms: N_22  and  C_23 
REMARK    9  A    between atoms: C_24  and  O_25 
ROOT
HETATM    1  N   UNL     1      39.630 -14.384  -1.435  1.00  0.00    -0.303 N 
HETATM    2  C   UNL     1      40.944 -14.474  -1.892  1.00  0.00     0.323 C 
HETATM    3  O   UNL     1      41.263 -14.576  -3.076  1.00  0.00    -0.247 OA
HETATM    4  N   UNL     1      41.925 -14.407  -0.956  1.00  0.00    -0.330 N 
HETATM    5  C   UNL     1      41.728 -14.546   0.464  1.00  0.00     0.160 C 
HETATM    6  C   UNL     1      40.312 -14.220   0.826  1.00  0.00     0.059 C 
HETATM    7  C   UNL     1      39.312 -14.195  -0.080  1.00  0.00     0.026 C 
HETATM    8  C   UNL     1      37.863 -14.011   0.307  1.00  0.00     0.069 C 
HETATM    9  H   UNL     1      42.855 -14.543  -1.328  1.00  0.00     0.165 HD
ENDROOT
BRANCH   6  10
HETATM   10  C   UNL     1      40.104 -13.947   2.275  1.00  0.00     0.256 C 
HETATM   11  N   UNL     1      40.718 -12.788   2.687  1.00  0.00    -0.321 N 
HETATM   12  H   UNL     1      41.193 -12.215   1.995  1.00  0.00     0.169 HD
HETATM   13  O   UNL     1      39.475 -14.737   2.965  1.00  0.00    -0.267 OA
BRANCH  11  14
HETATM   14  C   UNL     1      40.745 -12.236   3.988  1.00  0.00     0.068 A 
HETATM   15  C   UNL     1      41.727 -12.730   4.872  1.00  0.00     0.095 A 
HETATM   16  C   UNL     1      41.799 -12.234   6.178  1.00  0.00     0.039 A 
HETATM   17  C   UNL     1      40.908 -11.247   6.603  1.00  0.00     0.003 A 
HETATM   18  C   UNL     1      39.944 -10.754   5.728  1.00  0.00     0.002 A 
HETATM   19  C   UNL     1      39.861 -11.246   4.425  1.00  0.00     0.032 A 
BRANCH  15  20
HETATM   20  O   UNL     1      42.560 -13.695   4.350  1.00  0.00    -0.354 OA
HETATM   21  C   UNL     1      43.804 -13.892   5.012  1.00  0.00     0.210 C 
ENDBRANCH  15  20
ENDBRANCH  11  14
ENDBRANCH   6  10
BRANCH   5  22
HETATM   22  C   UNL     1      42.191 -15.919   0.932  1.00  0.00    -0.031 A 
HETATM   23  C   UNL     1      43.461 -16.067   1.511  1.00  0.00     0.010 A 
HETATM   24  C   UNL     1      43.873 -17.302   2.021  1.00  0.00     0.018 A 
HETATM   25  C   UNL     1      43.021 -18.411   1.962  1.00  0.00     0.039 A 
HETATM   26  C   UNL     1      41.767 -18.281   1.356  1.00  0.00     0.018 A 
HETATM   27  C   UNL     1      41.357 -17.047   0.841  1.00  0.00     0.010 A 
BRANCH  25  28
HETATM   28  C   UNL     1      43.484 -19.684   2.577  1.00  0.00     0.292 C 
HETATM   29  O   UNL     1      44.079 -19.743   3.642  1.00  0.00    -0.259 OA
BRANCH  28  30
HETATM   30  O   UNL     1      43.116 -20.744   1.814  1.00  0.00    -0.323 OA
HETATM   31  C   UNL     1      44.080 -21.798   1.786  1.00  0.00     0.213 C 
ENDBRANCH  28  30
ENDBRANCH  25  28
ENDBRANCH   5  22
BRANCH   1  32
HETATM   32  C   UNL     1      38.596 -14.367  -2.479  1.00  0.00     0.133 C 
BRANCH  32  33
HETATM   33  C   UNL     1      38.378 -12.962  -3.051  1.00  0.00     0.020 C 
BRANCH  33  34
HETATM   34  C   UNL     1      37.031 -12.856  -3.763  1.00  0.00    -0.003 C 
HETATM   35  C   UNL     1      36.597 -14.194  -4.340  1.00  0.00     0.005 C 
ENDBRANCH  33  34
ENDBRANCH  32  33
ENDBRANCH   1  32
TORSDOF 9
ENDMDL
MODEL 10
REMARK VINA RESULT:      -7.2      3.138      8.698
REMARK  9 active torsions:
REMARK  status: ('A' for Active; 'I' for Inactive)
REMARK    1  A    between atoms: C_2  and  C_3 
REMARK    2  A    between atoms: C_3  and  C_4 
REMARK    3  A    between atoms: C_4  and  N_5 
REMARK    4  A    between atoms: C_9  and  C_10 
REMARK    5  A    between atoms: C_13  and  C_14 
REMARK    6  A    between atoms: C_14  and  O_15 
REMARK    7  A    between atoms: C_20  and  C_21 
REMARK       I    between atoms: C_21  and  N_22 
REMARK    8  A    between atoms: N_22  and  C_23 
REMARK    9  A    between atoms: C_24  and  O_25 
ROOT
HETATM    1  N   UNL     1      42.700 -16.666   5.769  1.00  0.00    -0.303 N 
HETATM    2  C   UNL     1      41.537 -17.292   5.319  1.00  0.00     0.323 C 
HETATM    3  O   UNL     1      41.367 -18.510   5.299  1.00  0.00    -0.247 OA
HETATM    4  N   UNL     1      40.523 -16.485   4.916  1.00  0.00    -0.330 N 
HETATM    5  C   UNL     1      40.644 -15.077   4.637  1.00  0.00     0.160 C 
HETATM    6  C   UNL     1      41.827 -14.505   5.353  1.00  0.00     0.059 C 
HETATM    7  C   UNL     1      42.826 -15.269   5.845  1.00  0.00     0.026 C 
HETATM    8  C   UNL     1      44.088 -14.685   6.436  1.00  0.00     0.069 C 
HETATM    9  H   UNL     1      39.730 -16.984   4.538  1.00  0.00     0.165 HD
ENDROOT
BRANCH   6  10
HETATM   10  C   UNL     1      41.814 -13.019   5.457  1.00  0.00     0.256 C 
HETATM   11  N   UNL     1      41.081 -12.572   6.530  1.00  0.00    -0.321 N 
HETATM   12  H   UNL     1      40.673 -13.256   7.162  1.00  0.00     0.169 HD
HETATM   13  O   UNL     1      42.387 -12.340   4.617  1.00  0.00    -0.267 OA
BRANCH  11  14
HETATM   14  C   UNL     1      40.839 -11.234   6.918  1.00  0.00     0.068 A 
HETATM   15  C   UNL     1      39.624 -10.655   6.495  1.00  0.00     0.095 A 
HETATM   16  C   UNL     1      39.330  -9.331   6.836  1.00  0.00     0.039 A 
HETATM   17  C   UNL     1      40.232  -8.587   7.599  1.00  0.00     0.003 A 
HETATM   18  C   UNL     1      41.427  -9.161   8.023  1.00  0.00     0.002 A 
HETATM   19  C   UNL     1      41.731 -10.480   7.684  1.00  0.00     0.032 A 
BRANCH  15  20
HETATM   20  O   UNL     1      38.804 -11.478   5.756  1.00  0.00    -0.354 OA
HETATM   21  C   UNL     1      38.639 -11.149   4.381  1.00  0.00     0.210 C 
ENDBRANCH  15  20
ENDBRANCH  11  14
ENDBRANCH   6  10
BRANCH   5  22
HETATM   22  C   UNL     1      40.647 -14.833   3.134  1.00  0.00    -0.031 A 
HETATM   23  C   UNL     1      41.804 -15.102   2.385  1.00  0.00     0.010 A 
HETATM   24  C   UNL     1      41.802 -14.963   0.995  1.00  0.00     0.018 A 
HETATM   25  C   UNL     1      40.643 -14.555   0.326  1.00  0.00     0.039 A 
HETATM   26  C   UNL     1      39.495 -14.252   1.066  1.00  0.00     0.018 A 
HETATM   27  C   UNL     1      39.499 -14.385   2.458  1.00  0.00     0.010 A 
BRANCH  25  28
HETATM   28  C   UNL     1      40.678 -14.485  -1.160  1.00  0.00     0.292 C 
HETATM   29  O   UNL     1      40.482 -13.459  -1.793  1.00  0.00    -0.259 OA
BRANCH  28  30
HETATM   30  O   UNL     1      40.995 -15.694  -1.687  1.00  0.00    -0.323 OA
HETATM   31  C   UNL     1      40.573 -15.863  -3.041  1.00  0.00     0.213 C 
ENDBRANCH  28  30
ENDBRANCH  25  28
ENDBRANCH   5  22
BRANCH   1  32
HETATM   32  C   UNL     1      43.743 -17.563   6.285  1.00  0.00     0.133 C 
BRANCH  32  33
HETATM   33  C   UNL     1      44.603 -18.151   5.161  1.00  0.00     0.020 C 
BRANCH  33  34
HETATM   34  C   UNL     1      44.637 -19.677   5.229  1.00  0.00    -0.003 C 
HETATM   35  C   UNL     1      44.580 -20.299   3.843  1.00  0.00     0.005 C 
ENDBRANCH  33  34
ENDBRANCH  32  33
ENDBRANCH   1  32
TORSDOF 9
ENDMDL
