MODEL 1
REMARK VINA RESULT:      -9.3      0.000      0.000
REMARK  7 active torsions:
REMARK  status: ('A' for Active; 'I' for Inactive)
REMARK    1  A    between atoms: C_4  and  N_5 
REMARK    2  A    between atoms: N_5  and  C_6 
REMARK    3  A    between atoms: C_6  and  C_7 
REMARK    4  A    between atoms: C_7  and  N_8 
REMARK       I    between atoms: N_8  and  C_9 
REMARK    5  A    between atoms: C_9  and  C_10 
REMARK       I    between atoms: C_10  and  N_11 
REMARK    6  A    between atoms: N_11  and  C_12 
REMARK    7  A    between atoms: N_15  and  C_16 
ROOT
HETATM    1  C   UNL     1      44.885 -13.788   7.049  1.00  0.00     0.314 C 
HETATM    2  N   UNL     1      43.911 -14.725   7.286  1.00  0.00    -0.313 N 
HETATM    3  O   UNL     1      45.491 -13.545   6.016  1.00  0.00    -0.262 OA
HETATM    4  H   UNL     1      43.546 -14.734   8.243  1.00  0.00     0.169 HD
ENDROOT
BRANCH   1   5
HETATM    5  C   UNL     1      45.193 -12.935   8.302  1.00  0.00     0.309 C 
HETATM    6  N   UNL     1      44.161 -12.891   9.210  1.00  0.00    -0.351 N 
HETATM    7  H   UNL     1      43.305 -13.378   8.951  1.00  0.00     0.162 HD
HETATM    8  O   UNL     1      46.283 -12.397   8.422  1.00  0.00    -0.262 OA
BRANCH   6   9
HETATM    9  C   UNL     1      44.269 -12.219  10.487  1.00  0.00     0.142 C 
BRANCH   9  10
HETATM   10  C   UNL     1      43.938 -10.719  10.420  1.00  0.00     0.139 C 
BRANCH  10  11
HETATM   11  N   UNL     1      44.188 -10.091  11.717  1.00  0.00    -0.388 N 
HETATM   12  H   UNL     1      44.891 -10.569  12.277  1.00  0.00     0.159 HD
BRANCH  11  13
HETATM   13  C   UNL     1      43.122  -9.657  12.511  1.00  0.00     0.028 A 
HETATM   14  C   UNL     1      43.196  -9.488  13.899  1.00  0.00     0.035 A 
HETATM   15  C   UNL     1      42.073  -9.113  14.655  1.00  0.00    -0.060 A 
HETATM   16  C   UNL     1      42.177  -8.896  16.136  1.00  0.00     0.048 C 
HETATM   17  C   UNL     1      40.845  -8.929  14.012  1.00  0.00     0.007 A 
HETATM   18  C   UNL     1      40.739  -9.137  12.641  1.00  0.00     0.003 A 
HETATM   19  C   UNL     1      41.865  -9.510  11.904  1.00  0.00     0.029 A 
ENDBRANCH  11  13
ENDBRANCH  10  11
ENDBRANCH   9  10
ENDBRANCH   6   9
ENDBRANCH   1   5
BRANCH   2  20
HETATM   20  C   UNL     1      43.343 -15.645   6.450  1.00  0.00     0.124 A 
HETATM   21  C   UNL     1      44.049 -16.950   6.226  1.00  0.00     0.291 A 
HETATM   22  O   UNL     1      45.129 -17.200   6.741  1.00  0.00    -0.264 OA
HETATM   23  N   UNL     1      43.272 -17.675   5.321  1.00  0.00    -0.234 N 
HETATM   24  N   UNL     1      42.099 -16.929   5.014  1.00  0.00    -0.193 NA
HETATM   25  C   UNL     1      40.853 -17.697   5.197  1.00  0.00     0.143 C 
HETATM   26  C   UNL     1      42.228 -15.703   5.702  1.00  0.00     0.037 A 
HETATM   27  C   UNL     1      41.168 -14.659   5.554  1.00  0.00     0.066 C 
BRANCH  23  28
HETATM   28  C   UNL     1      43.747 -18.707   4.471  1.00  0.00     0.055 A 
HETATM   29  C   UNL     1      43.615 -18.609   3.079  1.00  0.00     0.031 A 
HETATM   30  C   UNL     1      44.084 -19.623   2.236  1.00  0.00     0.002 A 
HETATM   31  C   UNL     1      44.686 -20.755   2.775  1.00  0.00     0.000 A 
HETATM   32  C   UNL     1      44.819 -20.876   4.154  1.00  0.00     0.002 A 
HETATM   33  C   UNL     1      44.354 -19.859   4.994  1.00  0.00     0.031 A 
ENDBRANCH  23  28
ENDBRANCH   2  20
TORSDOF 7
ENDMDL
MODEL 2
REMARK VINA RESULT:      -9.0      1.641      2.301
REMARK  7 active torsions:
REMARK  status: ('A' for Active; 'I' for Inactive)
REMARK    1  A    between atoms: C_4  and  N_5 
REMARK    2  A    between atoms: N_5  and  C_6 
REMARK    3  A    between atoms: C_6  and  C_7 
REMARK    4  A    between atoms: C_7  and  N_8 
REMARK       I    between atoms: N_8  and  C_9 
REMARK    5  A    between atoms: C_9  and  C_10 
REMARK       I    between atoms: C_10  and  N_11 
REMARK    6  A    between atoms: N_11  and  C_12 
REMARK    7  A    between atoms: N_15  and  C_16 
ROOT
HETATM    1  C   UNL     1      44.946 -13.716   7.195  1.00  0.00     0.314 C 
HETATM    2  N   UNL     1      43.912 -14.597   7.393  1.00  0.00    -0.313 N 
HETATM    3  O   UNL     1      45.620 -13.527   6.193  1.00  0.00    -0.262 OA
HETATM    4  H   UNL     1      43.495 -14.568   8.328  1.00  0.00     0.169 HD
ENDROOT
BRANCH   1   5
HETATM    5  C   UNL     1      45.227 -12.853   8.447  1.00  0.00     0.309 C 
HETATM    6  N   UNL     1      44.249 -12.938   9.410  1.00  0.00    -0.351 N 
HETATM    7  H   UNL     1      43.439 -13.513   9.188  1.00  0.00     0.162 HD
HETATM    8  O   UNL     1      46.257 -12.199   8.519  1.00  0.00    -0.262 OA
BRANCH   6   9
HETATM    9  C   UNL     1      44.354 -12.277  10.694  1.00  0.00     0.142 C 
BRANCH   9  10
HETATM   10  C   UNL     1      43.125 -11.423  11.045  1.00  0.00     0.139 C 
BRANCH  10  11
HETATM   11  N   UNL     1      42.262 -11.281   9.873  1.00  0.00    -0.388 N 
HETATM   12  H   UNL     1      42.752 -10.976   9.034  1.00  0.00     0.159 HD
BRANCH  11  13
HETATM   13  C   UNL     1      41.017 -10.654   9.983  1.00  0.00     0.028 A 
HETATM   14  C   UNL     1      40.541 -10.056  11.156  1.00  0.00     0.035 A 
HETATM   15  C   UNL     1      39.253  -9.498  11.228  1.00  0.00    -0.060 A 
HETATM   16  C   UNL     1      38.773  -8.825  12.479  1.00  0.00     0.048 C 
HETATM   17  C   UNL     1      38.416  -9.563  10.110  1.00  0.00     0.007 A 
HETATM   18  C   UNL     1      38.851 -10.194   8.950  1.00  0.00     0.003 A 
HETATM   19  C   UNL     1      40.134 -10.744   8.896  1.00  0.00     0.029 A 
ENDBRANCH  11  13
ENDBRANCH  10  11
ENDBRANCH   9  10
ENDBRANCH   6   9
ENDBRANCH   1   5
BRANCH   2  20
HETATM   20  C   UNL     1      43.345 -15.505   6.544  1.00  0.00     0.124 A 
HETATM   21  C   UNL     1      44.052 -16.805   6.299  1.00  0.00     0.291 A 
HETATM   22  O   UNL     1      45.133 -17.063   6.810  1.00  0.00    -0.264 OA
HETATM   23  N   UNL     1      43.275 -17.517   5.384  1.00  0.00    -0.234 N 
HETATM   24  N   UNL     1      42.101 -16.768   5.090  1.00  0.00    -0.193 NA
HETATM   25  C   UNL     1      40.856 -17.540   5.262  1.00  0.00     0.143 C 
HETATM   26  C   UNL     1      42.229 -15.553   5.796  1.00  0.00     0.037 A 
HETATM   27  C   UNL     1      41.168 -14.507   5.665  1.00  0.00     0.066 C 
BRANCH  23  28
HETATM   28  C   UNL     1      43.751 -18.536   4.518  1.00  0.00     0.055 A 
HETATM   29  C   UNL     1      44.330 -19.704   5.033  1.00  0.00     0.031 A 
HETATM   30  C   UNL     1      44.798 -20.712   4.183  1.00  0.00     0.002 A 
HETATM   31  C   UNL     1      44.702 -20.563   2.803  1.00  0.00     0.000 A 
HETATM   32  C   UNL     1      44.138 -19.407   2.271  1.00  0.00     0.002 A 
HETATM   33  C   UNL     1      43.667 -18.403   3.123  1.00  0.00     0.031 A 
ENDBRANCH  23  28
ENDBRANCH   2  20
TORSDOF 7
ENDMDL
MODEL 3
REMARK VINA RESULT:      -8.9      2.817      3.634
REMARK  7 active torsions:
REMARK  status: ('A' for Active; 'I' for Inactive)
REMARK    1  A    between atoms: C_4  and  N_5 
REMARK    2  A    between atoms: N_5  and  C_6 
REMARK    3  A    between atoms: C_6  and  C_7 
REMARK    4  A    between atoms: C_7  and  N_8 
REMARK       I    between atoms: N_8  and  C_9 
REMARK    5  A    between atoms: C_9  and  C_10 
REMARK       I    between atoms: C_10  and  N_11 
REMARK    6  A    between atoms: N_11  and  C_12 
REMARK    7  A    between atoms: N_15  and  C_16 
ROOT
HETATM    1  C   UNL     1      40.954 -13.139   5.454  1.00  0.00     0.314 C 
HETATM    2  N   UNL     1      40.585 -14.256   4.748  1.00  0.00    -0.313 N 
HETATM    3  O   UNL     1      42.013 -12.528   5.438  1.00  0.00    -0.262 OA
HETATM    4  H   UNL     1      39.632 -14.585   4.929  1.00  0.00     0.169 HD
ENDROOT
BRANCH   1   5
HETATM    5  C   UNL     1      39.814 -12.615   6.358  1.00  0.00     0.309 C 
HETATM    6  N   UNL     1      40.251 -12.086   7.550  1.00  0.00    -0.351 N 
HETATM    7  H   UNL     1      41.252 -12.130   7.729  1.00  0.00     0.162 HD
HETATM    8  O   UNL     1      38.655 -12.674   5.976  1.00  0.00    -0.262 OA
BRANCH   6   9
HETATM    9  C   UNL     1      39.359 -11.465   8.505  1.00  0.00     0.142 C 
BRANCH   9  10
HETATM   10  C   UNL     1      40.085 -10.597   9.547  1.00  0.00     0.139 C 
BRANCH  10  11
HETATM   11  N   UNL     1      40.614 -11.439  10.619  1.00  0.00    -0.388 N 
HETATM   12  H   UNL     1      39.909 -12.002  11.088  1.00  0.00     0.159 HD
BRANCH  11  13
HETATM   13  C   UNL     1      41.535 -10.921  11.535  1.00  0.00     0.028 A 
HETATM   14  C   UNL     1      41.261 -10.722  12.894  1.00  0.00     0.035 A 
HETATM   15  C   UNL     1      42.204 -10.135  13.756  1.00  0.00    -0.060 A 
HETATM   16  C   UNL     1      41.912  -9.966  15.218  1.00  0.00     0.048 C 
HETATM   17  C   UNL     1      43.435  -9.717  13.242  1.00  0.00     0.007 A 
HETATM   18  C   UNL     1      43.709  -9.862  11.886  1.00  0.00     0.003 A 
HETATM   19  C   UNL     1      42.761 -10.447  11.043  1.00  0.00     0.029 A 
ENDBRANCH  11  13
ENDBRANCH  10  11
ENDBRANCH   9  10
ENDBRANCH   6   9
ENDBRANCH   1   5
BRANCH   2  20
HETATM   20  C   UNL     1      41.282 -15.000   3.837  1.00  0.00     0.124 A 
HETATM   21  C   UNL     1      41.416 -16.477   4.061  1.00  0.00     0.291 A 
HETATM   22  O   UNL     1      40.950 -17.028   5.048  1.00  0.00    -0.264 OA
HETATM   23  N   UNL     1      42.187 -16.974   3.009  1.00  0.00    -0.234 N 
HETATM   24  N   UNL     1      42.491 -15.909   2.114  1.00  0.00    -0.193 NA
HETATM   25  C   UNL     1      42.148 -16.209   0.711  1.00  0.00     0.143 C 
HETATM   26  C   UNL     1      41.944 -14.745   2.695  1.00  0.00     0.037 A 
HETATM   27  C   UNL     1      42.130 -13.425   2.018  1.00  0.00     0.066 C 
BRANCH  23  28
HETATM   28  C   UNL     1      42.955 -18.166   3.044  1.00  0.00     0.055 A 
HETATM   29  C   UNL     1      43.849 -18.414   4.094  1.00  0.00     0.031 A 
HETATM   30  C   UNL     1      44.607 -19.590   4.133  1.00  0.00     0.002 A 
HETATM   31  C   UNL     1      44.487 -20.533   3.117  1.00  0.00     0.000 A 
HETATM   32  C   UNL     1      43.612 -20.302   2.061  1.00  0.00     0.002 A 
HETATM   33  C   UNL     1      42.852 -19.128   2.026  1.00  0.00     0.031 A 
ENDBRANCH  23  28
ENDBRANCH   2  20
TORSDOF 7
ENDMDL
MODEL 4
REMARK VINA RESULT:      -8.7      2.864      3.974
REMARK  7 active torsions:
REMARK  status: ('A' for Active; 'I' for Inactive)
REMARK    1  A    between atoms: C_4  and  N_5 
REMARK    2  A    between atoms: N_5  and  C_6 
REMARK    3  A    between atoms: C_6  and  C_7 
REMARK    4  A    between atoms: C_7  and  N_8 
REMARK       I    between atoms: N_8  and  C_9 
REMARK    5  A    between atoms: C_9  and  C_10 
REMARK       I    between atoms: C_10  and  N_11 
REMARK    6  A    between atoms: N_11  and  C_12 
REMARK    7  A    between atoms: N_15  and  C_16 
ROOT
HETATM    1  C   UNL     1      40.950 -13.215   5.593  1.00  0.00     0.314 C 
HETATM    2  N   UNL     1      40.536 -14.110   4.639  1.00  0.00    -0.313 N 
HETATM    3  O   UNL     1      42.084 -12.868   5.889  1.00  0.00    -0.262 OA
HETATM    4  H   UNL     1      39.521 -14.232   4.573  1.00  0.00     0.169 HD
ENDROOT
BRANCH   1   5
HETATM    5  C   UNL     1      39.762 -12.571   6.344  1.00  0.00     0.309 C 
HETATM    6  N   UNL     1      40.064 -12.184   7.630  1.00  0.00    -0.351 N 
HETATM    7  H   UNL     1      41.003 -12.396   7.961  1.00  0.00     0.162 HD
HETATM    8  O   UNL     1      38.689 -12.425   5.780  1.00  0.00    -0.262 OA
BRANCH   6   9
HETATM    9  C   UNL     1      39.123 -11.486   8.479  1.00  0.00     0.142 C 
BRANCH   9  10
HETATM   10  C   UNL     1      39.785 -10.452   9.406  1.00  0.00     0.139 C 
BRANCH  10  11
HETATM   11  N   UNL     1      40.243 -11.101  10.634  1.00  0.00    -0.388 N 
HETATM   12  H   UNL     1      39.520 -11.197  11.344  1.00  0.00     0.159 HD
BRANCH  11  13
HETATM   13  C   UNL     1      41.467 -10.743  11.209  1.00  0.00     0.028 A 
HETATM   14  C   UNL     1      42.713 -11.011  10.629  1.00  0.00     0.035 A 
HETATM   15  C   UNL     1      43.914 -10.688  11.284  1.00  0.00    -0.060 A 
HETATM   16  C   UNL     1      45.240 -10.942  10.632  1.00  0.00     0.048 C 
HETATM   17  C   UNL     1      43.866 -10.109  12.556  1.00  0.00     0.007 A 
HETATM   18  C   UNL     1      42.639  -9.879  13.170  1.00  0.00     0.003 A 
HETATM   19  C   UNL     1      41.455 -10.206  12.505  1.00  0.00     0.029 A 
ENDBRANCH  11  13
ENDBRANCH  10  11
ENDBRANCH   9  10
ENDBRANCH   6   9
ENDBRANCH   1   5
BRANCH   2  20
HETATM   20  C   UNL     1      41.258 -14.864   3.756  1.00  0.00     0.124 A 
HETATM   21  C   UNL     1      41.370 -16.341   3.990  1.00  0.00     0.291 A 
HETATM   22  O   UNL     1      40.863 -16.885   4.961  1.00  0.00    -0.264 OA
HETATM   23  N   UNL     1      42.174 -16.849   2.969  1.00  0.00    -0.234 N 
HETATM   24  N   UNL     1      42.521 -15.791   2.082  1.00  0.00    -0.193 NA
HETATM   25  C   UNL     1      42.227 -16.092   0.669  1.00  0.00     0.143 C 
HETATM   26  C   UNL     1      41.964 -14.619   2.639  1.00  0.00     0.037 A 
HETATM   27  C   UNL     1      42.188 -13.304   1.965  1.00  0.00     0.066 C 
BRANCH  23  28
HETATM   28  C   UNL     1      42.929 -18.049   3.035  1.00  0.00     0.055 A 
HETATM   29  C   UNL     1      43.783 -18.301   4.117  1.00  0.00     0.031 A 
HETATM   30  C   UNL     1      44.527 -19.484   4.188  1.00  0.00     0.002 A 
HETATM   31  C   UNL     1      44.435 -20.429   3.172  1.00  0.00     0.000 A 
HETATM   32  C   UNL     1      43.600 -20.194   2.084  1.00  0.00     0.002 A 
HETATM   33  C   UNL     1      42.853 -19.013   2.018  1.00  0.00     0.031 A 
ENDBRANCH  23  28
ENDBRANCH   2  20
TORSDOF 7
ENDMDL
MODEL 5
REMARK VINA RESULT:      -8.6      2.615     11.137
REMARK  7 active torsions:
REMARK  status: ('A' for Active; 'I' for Inactive)
REMARK    1  A    between atoms: C_4  and  N_5 
REMARK    2  A    between atoms: N_5  and  C_6 
REMARK    3  A    between atoms: C_6  and  C_7 
REMARK    4  A    between atoms: C_7  and  N_8 
REMARK       I    between atoms: N_8  and  C_9 
REMARK    5  A    between atoms: C_9  and  C_10 
REMARK       I    between atoms: C_10  and  N_11 
REMARK    6  A    between atoms: N_11  and  C_12 
REMARK    7  A    between atoms: N_15  and  C_16 
ROOT
HETATM    1  C   UNL     1      40.971 -12.517   6.240  1.00  0.00     0.314 C 
HETATM    2  N   UNL     1      41.726 -11.538   6.836  1.00  0.00    -0.313 N 
HETATM    3  O   UNL     1      39.853 -12.917   6.529  1.00  0.00    -0.262 OA
HETATM    4  H   UNL     1      42.641 -11.378   6.405  1.00  0.00     0.169 HD
ENDROOT
BRANCH   1   5
HETATM    5  C   UNL     1      41.685 -13.145   5.020  1.00  0.00     0.309 C 
HETATM    6  N   UNL     1      41.457 -14.494   4.878  1.00  0.00    -0.351 N 
HETATM    7  H   UNL     1      40.890 -14.938   5.597  1.00  0.00     0.162 HD
HETATM    8  O   UNL     1      42.355 -12.444   4.277  1.00  0.00    -0.262 OA
BRANCH   6   9
HETATM    9  C   UNL     1      41.961 -15.260   3.759  1.00  0.00     0.142 C 
BRANCH   9  10
HETATM   10  C   UNL     1      41.478 -16.720   3.749  1.00  0.00     0.139 C 
BRANCH  10  11
HETATM   11  N   UNL     1      42.114 -17.452   2.654  1.00  0.00    -0.388 N 
HETATM   12  H   UNL     1      41.482 -17.684   1.891  1.00  0.00     0.159 HD
BRANCH  11  13
HETATM   13  C   UNL     1      42.986 -18.511   2.924  1.00  0.00     0.028 A 
HETATM   14  C   UNL     1      43.138 -19.631   2.098  1.00  0.00     0.035 A 
HETATM   15  C   UNL     1      43.981 -20.698   2.453  1.00  0.00    -0.060 A 
HETATM   16  C   UNL     1      44.165 -21.873   1.538  1.00  0.00     0.048 C 
HETATM   17  C   UNL     1      44.666 -20.653   3.671  1.00  0.00     0.007 A 
HETATM   18  C   UNL     1      44.493 -19.572   4.528  1.00  0.00     0.003 A 
HETATM   19  C   UNL     1      43.651 -18.520   4.160  1.00  0.00     0.029 A 
ENDBRANCH  11  13
ENDBRANCH  10  11
ENDBRANCH   9  10
ENDBRANCH   6   9
ENDBRANCH   1   5
BRANCH   2  20
HETATM   20  C   UNL     1      41.453 -10.737   7.909  1.00  0.00     0.124 A 
HETATM   21  C   UNL     1      42.371 -10.779   9.095  1.00  0.00     0.291 A 
HETATM   22  O   UNL     1      43.335 -11.530   9.142  1.00  0.00    -0.264 OA
HETATM   23  N   UNL     1      41.846  -9.897  10.040  1.00  0.00    -0.234 N 
HETATM   24  N   UNL     1      40.692  -9.265   9.494  1.00  0.00    -0.193 NA
HETATM   25  C   UNL     1      40.735  -7.794   9.583  1.00  0.00     0.143 C 
HETATM   26  C   UNL     1      40.496  -9.847   8.223  1.00  0.00     0.037 A 
HETATM   27  C   UNL     1      39.323  -9.430   7.394  1.00  0.00     0.066 C 
BRANCH  23  28
HETATM   28  C   UNL     1      42.076  -9.957  11.439  1.00  0.00     0.055 A 
HETATM   29  C   UNL     1      43.242  -9.417  11.998  1.00  0.00     0.031 A 
HETATM   30  C   UNL     1      43.473  -9.471  13.377  1.00  0.00     0.002 A 
HETATM   31  C   UNL     1      42.544 -10.075  14.217  1.00  0.00     0.000 A 
HETATM   32  C   UNL     1      41.384 -10.626  13.681  1.00  0.00     0.002 A 
HETATM   33  C   UNL     1      41.153 -10.566  12.303  1.00  0.00     0.031 A 
ENDBRANCH  23  28
ENDBRANCH   2  20
TORSDOF 7
ENDMDL
MODEL 6
REMARK VINA RESULT:      -8.6      5.208      8.872
REMARK  7 active torsions:
REMARK  status: ('A' for Active; 'I' for Inactive)
REMARK    1  A    between atoms: C_4  and  N_5 
REMARK    2  A    between atoms: N_5  and  C_6 
REMARK    3  A    between atoms: C_6  and  C_7 
REMARK    4  A    between atoms: C_7  and  N_8 
REMARK       I    between atoms: N_8  and  C_9 
REMARK    5  A    between atoms: C_9  and  C_10 
REMARK       I    between atoms: C_10  and  N_11 
REMARK    6  A    between atoms: N_11  and  C_12 
REMARK    7  A    between atoms: N_15  and  C_16 
ROOT
HETATM    1  C   UNL     1      42.896 -14.328   5.611  1.00  0.00     0.314 C 
HETATM    2  N   UNL     1      42.341 -15.145   4.659  1.00  0.00    -0.313 N 
HETATM    3  O   UNL     1      42.827 -13.112   5.724  1.00  0.00    -0.262 OA
HETATM    4  H   UNL     1      42.538 -16.143   4.781  1.00  0.00     0.169 HD
ENDROOT
BRANCH   1   5
HETATM    5  C   UNL     1      43.685 -15.123   6.678  1.00  0.00     0.309 C 
HETATM    6  N   UNL     1      42.943 -16.098   7.304  1.00  0.00    -0.351 N 
HETATM    7  H   UNL     1      41.963 -16.166   7.036  1.00  0.00     0.162 HD
HETATM    8  O   UNL     1      44.864 -14.873   6.878  1.00  0.00    -0.262 OA
BRANCH   6   9
HETATM    9  C   UNL     1      43.508 -17.012   8.273  1.00  0.00     0.142 C 
BRANCH   9  10
HETATM   10  C   UNL     1      43.886 -18.378   7.678  1.00  0.00     0.139 C 
BRANCH  10  11
HETATM   11  N   UNL     1      43.071 -18.653   6.495  1.00  0.00    -0.388 N 
HETATM   12  H   UNL     1      42.168 -19.072   6.705  1.00  0.00     0.159 HD
BRANCH  11  13
HETATM   13  C   UNL     1      43.645 -19.236   5.361  1.00  0.00     0.028 A 
HETATM   14  C   UNL     1      43.374 -18.829   4.049  1.00  0.00     0.035 A 
HETATM   15  C   UNL     1      43.929 -19.497   2.943  1.00  0.00    -0.060 A 
HETATM   16  C   UNL     1      43.663 -19.024   1.544  1.00  0.00     0.048 C 
HETATM   17  C   UNL     1      44.749 -20.609   3.155  1.00  0.00     0.007 A 
HETATM   18  C   UNL     1      44.992 -21.058   4.448  1.00  0.00     0.003 A 
HETATM   19  C   UNL     1      44.433 -20.384   5.536  1.00  0.00     0.029 A 
ENDBRANCH  11  13
ENDBRANCH  10  11
ENDBRANCH   9  10
ENDBRANCH   6   9
ENDBRANCH   1   5
BRANCH   2  20
HETATM   20  C   UNL     1      41.563 -14.846   3.576  1.00  0.00     0.124 A 
HETATM   21  C   UNL     1      42.031 -15.261   2.213  1.00  0.00     0.291 A 
HETATM   22  O   UNL     1      43.100 -15.830   2.039  1.00  0.00    -0.264 OA
HETATM   23  N   UNL     1      41.073 -14.809   1.305  1.00  0.00    -0.234 N 
HETATM   24  N   UNL     1      40.009 -14.191   2.023  1.00  0.00    -0.193 NA
HETATM   25  C   UNL     1      38.679 -14.718   1.667  1.00  0.00     0.143 C 
HETATM   26  C   UNL     1      40.391 -14.217   3.381  1.00  0.00     0.037 A 
HETATM   27  C   UNL     1      39.501 -13.597   4.410  1.00  0.00     0.066 C 
BRANCH  23  28
HETATM   28  C   UNL     1      41.301 -14.546  -0.070  1.00  0.00     0.055 A 
HETATM   29  C   UNL     1      41.013 -15.511  -1.044  1.00  0.00     0.031 A 
HETATM   30  C   UNL     1      41.235 -15.255  -2.402  1.00  0.00     0.002 A 
HETATM   31  C   UNL     1      41.757 -14.031  -2.805  1.00  0.00     0.000 A 
HETATM   32  C   UNL     1      42.059 -13.062  -1.854  1.00  0.00     0.002 A 
HETATM   33  C   UNL     1      41.832 -13.318  -0.497  1.00  0.00     0.031 A 
ENDBRANCH  23  28
ENDBRANCH   2  20
TORSDOF 7
ENDMDL
MODEL 7
REMARK VINA RESULT:      -8.6      5.880      9.775
REMARK  7 active torsions:
REMARK  status: ('A' for Active; 'I' for Inactive)
REMARK    1  A    between atoms: C_4  and  N_5 
REMARK    2  A    between atoms: N_5  and  C_6 
REMARK    3  A    between atoms: C_6  and  C_7 
REMARK    4  A    between atoms: C_7  and  N_8 
REMARK       I    between atoms: N_8  and  C_9 
REMARK    5  A    between atoms: C_9  and  C_10 
REMARK       I    between atoms: C_10  and  N_11 
REMARK    6  A    between atoms: N_11  and  C_12 
REMARK    7  A    between atoms: N_15  and  C_16 
ROOT
HETATM    1  C   UNL     1      43.153 -14.062   3.166  1.00  0.00     0.314 C 
HETATM    2  N   UNL     1      42.639 -15.316   3.377  1.00  0.00    -0.313 N 
HETATM    3  O   UNL     1      44.217 -13.589   3.538  1.00  0.00    -0.262 OA
HETATM    4  H   UNL     1      41.719 -15.481   2.956  1.00  0.00     0.169 HD
ENDROOT
BRANCH   1   5
HETATM    5  C   UNL     1      42.216 -13.183   2.306  1.00  0.00     0.309 C 
HETATM    6  N   UNL     1      40.900 -13.219   2.705  1.00  0.00    -0.351 N 
HETATM    7  H   UNL     1      40.676 -13.839   3.481  1.00  0.00     0.162 HD
HETATM    8  O   UNL     1      42.673 -12.521   1.386  1.00  0.00    -0.262 OA
BRANCH   6   9
HETATM    9  C   UNL     1      39.872 -12.407   2.091  1.00  0.00     0.142 C 
BRANCH   9  10
HETATM   10  C   UNL     1      39.163 -13.101   0.916  1.00  0.00     0.139 C 
BRANCH  10  11
HETATM   11  N   UNL     1      40.064 -14.066   0.287  1.00  0.00    -0.388 N 
HETATM   12  H   UNL     1      41.048 -13.908   0.495  1.00  0.00     0.159 HD
BRANCH  11  13
HETATM   13  C   UNL     1      39.887 -14.431  -1.051  1.00  0.00     0.028 A 
HETATM   14  C   UNL     1      38.707 -14.214  -1.773  1.00  0.00     0.035 A 
HETATM   15  C   UNL     1      38.561 -14.663  -3.097  1.00  0.00    -0.060 A 
HETATM   16  C   UNL     1      37.306 -14.387  -3.871  1.00  0.00     0.048 C 
HETATM   17  C   UNL     1      39.608 -15.366  -3.701  1.00  0.00     0.007 A 
HETATM   18  C   UNL     1      40.770 -15.633  -2.986  1.00  0.00     0.003 A 
HETATM   19  C   UNL     1      40.899 -15.180  -1.671  1.00  0.00     0.029 A 
ENDBRANCH  11  13
ENDBRANCH  10  11
ENDBRANCH   9  10
ENDBRANCH   6   9
ENDBRANCH   1   5
BRANCH   2  20
HETATM   20  C   UNL     1      43.155 -16.385   4.054  1.00  0.00     0.124 A 
HETATM   21  C   UNL     1      43.746 -17.520   3.272  1.00  0.00     0.291 A 
HETATM   22  O   UNL     1      43.749 -17.532   2.049  1.00  0.00    -0.264 OA
HETATM   23  N   UNL     1      44.165 -18.473   4.201  1.00  0.00    -0.234 N 
HETATM   24  N   UNL     1      43.927 -17.976   5.514  1.00  0.00    -0.193 NA
HETATM   25  C   UNL     1      45.116 -18.030   6.385  1.00  0.00     0.143 C 
HETATM   26  C   UNL     1      43.284 -16.730   5.347  1.00  0.00     0.037 A 
HETATM   27  C   UNL     1      42.851 -15.956   6.551  1.00  0.00     0.066 C 
BRANCH  23  28
HETATM   28  C   UNL     1      44.330 -19.858   3.943  1.00  0.00     0.055 A 
HETATM   29  C   UNL     1      44.681 -20.744   4.971  1.00  0.00     0.031 A 
HETATM   30  C   UNL     1      44.842 -22.111   4.721  1.00  0.00     0.002 A 
HETATM   31  C   UNL     1      44.663 -22.613   3.436  1.00  0.00     0.000 A 
HETATM   32  C   UNL     1      44.324 -21.748   2.399  1.00  0.00     0.002 A 
HETATM   33  C   UNL     1      44.158 -20.383   2.652  1.00  0.00     0.031 A 
ENDBRANCH  23  28
ENDBRANCH   2  20
TORSDOF 7
ENDMDL
MODEL 8
REMARK VINA RESULT:      -8.5      2.524      3.673
REMARK  7 active torsions:
REMARK  status: ('A' for Active; 'I' for Inactive)
REMARK    1  A    between atoms: C_4  and  N_5 
REMARK    2  A    between atoms: N_5  and  C_6 
REMARK    3  A    between atoms: C_6  and  C_7 
REMARK    4  A    between atoms: C_7  and  N_8 
REMARK       I    between atoms: N_8  and  C_9 
REMARK    5  A    between atoms: C_9  and  C_10 
REMARK       I    between atoms: C_10  and  N_11 
REMARK    6  A    between atoms: N_11  and  C_12 
REMARK    7  A    between atoms: N_15  and  C_16 
ROOT
HETATM    1  C   UNL     1      41.055 -14.441   5.459  1.00  0.00     0.314 C 
HETATM    2  N   UNL     1      42.389 -14.758   5.452  1.00  0.00    -0.313 N 
HETATM    3  O   UNL     1      40.083 -15.181   5.506  1.00  0.00    -0.262 OA
HETATM    4  H   UNL     1      43.023 -13.955   5.413  1.00  0.00     0.169 HD
ENDROOT
BRANCH   1   5
HETATM    5  C   UNL     1      40.817 -12.913   5.428  1.00  0.00     0.309 C 
HETATM    6  N   UNL     1      40.494 -12.377   6.653  1.00  0.00    -0.351 N 
HETATM    7  H   UNL     1      40.406 -13.032   7.427  1.00  0.00     0.162 HD
HETATM    8  O   UNL     1      40.945 -12.296   4.381  1.00  0.00    -0.262 OA
BRANCH   6   9
HETATM    9  C   UNL     1      40.312 -10.957   6.864  1.00  0.00     0.142 C 
BRANCH   9  10
HETATM   10  C   UNL     1      41.561 -10.257   7.426  1.00  0.00     0.139 C 
BRANCH  10  11
HETATM   11  N   UNL     1      41.364  -9.938   8.839  1.00  0.00    -0.388 N 
HETATM   12  H   UNL     1      40.966  -9.016   9.002  1.00  0.00     0.159 HD
BRANCH  11  13
HETATM   13  C   UNL     1      42.362 -10.227   9.775  1.00  0.00     0.028 A 
HETATM   14  C   UNL     1      42.364  -9.748  11.091  1.00  0.00     0.035 A 
HETATM   15  C   UNL     1      43.428 -10.017  11.970  1.00  0.00    -0.060 A 
HETATM   16  C   UNL     1      43.398  -9.531  13.389  1.00  0.00     0.048 C 
HETATM   17  C   UNL     1      44.523 -10.758  11.513  1.00  0.00     0.007 A 
HETATM   18  C   UNL     1      44.561 -11.203  10.196  1.00  0.00     0.003 A 
HETATM   19  C   UNL     1      43.496 -10.927   9.336  1.00  0.00     0.029 A 
ENDBRANCH  11  13
ENDBRANCH  10  11
ENDBRANCH   9  10
ENDBRANCH   6   9
ENDBRANCH   1   5
BRANCH   2  20
HETATM   20  C   UNL     1      43.013 -15.974   5.495  1.00  0.00     0.124 A 
HETATM   21  C   UNL     1      43.314 -16.677   4.205  1.00  0.00     0.291 A 
HETATM   22  O   UNL     1      42.992 -16.211   3.121  1.00  0.00    -0.264 OA
HETATM   23  N   UNL     1      43.917 -17.890   4.541  1.00  0.00    -0.234 N 
HETATM   24  N   UNL     1      44.063 -17.960   5.955  1.00  0.00    -0.193 NA
HETATM   25  C   UNL     1      45.436 -18.278   6.387  1.00  0.00     0.143 C 
HETATM   26  C   UNL     1      43.463 -16.788   6.465  1.00  0.00     0.037 A 
HETATM   27  C   UNL     1      43.406 -16.571   7.943  1.00  0.00     0.066 C 
BRANCH  23  28
HETATM   28  C   UNL     1      43.936 -19.053   3.728  1.00  0.00     0.055 A 
HETATM   29  C   UNL     1      44.688 -20.176   4.097  1.00  0.00     0.031 A 
HETATM   30  C   UNL     1      44.708 -21.325   3.300  1.00  0.00     0.002 A 
HETATM   31  C   UNL     1      43.982 -21.366   2.114  1.00  0.00     0.000 A 
HETATM   32  C   UNL     1      43.236 -20.258   1.724  1.00  0.00     0.002 A 
HETATM   33  C   UNL     1      43.213 -19.112   2.526  1.00  0.00     0.031 A 
ENDBRANCH  23  28
ENDBRANCH   2  20
TORSDOF 7
ENDMDL
MODEL 9
REMARK VINA RESULT:      -8.3      7.274     10.748
REMARK  7 active torsions:
REMARK  status: ('A' for Active; 'I' for Inactive)
REMARK    1  A    between atoms: C_4  and  N_5 
REMARK    2  A    between atoms: N_5  and  C_6 
REMARK    3  A    between atoms: C_6  and  C_7 
REMARK    4  A    between atoms: C_7  and  N_8 
REMARK       I    between atoms: N_8  and  C_9 
REMARK    5  A    between atoms: C_9  and  C_10 
REMARK       I    between atoms: C_10  and  N_11 
REMARK    6  A    between atoms: N_11  and  C_12 
REMARK    7  A    between atoms: N_15  and  C_16 
ROOT
HETATM    1  C   UNL     1      41.430 -15.142  -1.128  1.00  0.00     0.314 C 
HETATM    2  N   UNL     1      41.182 -16.285  -0.411  1.00  0.00    -0.313 N 
HETATM    3  O   UNL     1      41.951 -14.097  -0.764  1.00  0.00    -0.262 OA
HETATM    4  H   UNL     1      40.735 -17.038  -0.943  1.00  0.00     0.169 HD
ENDROOT
BRANCH   1   5
HETATM    5  C   UNL     1      40.989 -15.269  -2.605  1.00  0.00     0.309 C 
HETATM    6  N   UNL     1      39.901 -16.089  -2.789  1.00  0.00    -0.351 N 
HETATM    7  H   UNL     1      39.531 -16.550  -1.960  1.00  0.00     0.162 HD
HETATM    8  O   UNL     1      41.583 -14.651  -3.475  1.00  0.00    -0.262 OA
BRANCH   6   9
HETATM    9  C   UNL     1      39.274 -16.282  -4.080  1.00  0.00     0.142 C 
BRANCH   9  10
HETATM   10  C   UNL     1      37.966 -15.491  -4.248  1.00  0.00     0.139 C 
BRANCH  10  11
HETATM   11  N   UNL     1      37.396 -15.179  -2.938  1.00  0.00    -0.388 N 
HETATM   12  H   UNL     1      36.410 -15.414  -2.851  1.00  0.00     0.159 HD
BRANCH  11  13
HETATM   13  C   UNL     1      37.678 -13.959  -2.317  1.00  0.00     0.028 A 
HETATM   14  C   UNL     1      37.870 -13.807  -0.938  1.00  0.00     0.035 A 
HETATM   15  C   UNL     1      38.086 -12.544  -0.359  1.00  0.00    -0.060 A 
HETATM   16  C   UNL     1      38.331 -12.403   1.114  1.00  0.00     0.048 C 
HETATM   17  C   UNL     1      38.083 -11.409  -1.174  1.00  0.00     0.007 A 
HETATM   18  C   UNL     1      37.848 -11.532  -2.540  1.00  0.00     0.003 A 
HETATM   19  C   UNL     1      37.635 -12.794  -3.098  1.00  0.00     0.029 A 
ENDBRANCH  11  13
ENDBRANCH  10  11
ENDBRANCH   9  10
ENDBRANCH   6   9
ENDBRANCH   1   5
BRANCH   2  20
HETATM   20  C   UNL     1      41.438 -16.586   0.897  1.00  0.00     0.124 A 
HETATM   21  C   UNL     1      42.743 -17.237   1.247  1.00  0.00     0.291 A 
HETATM   22  O   UNL     1      43.568 -17.535   0.395  1.00  0.00    -0.264 OA
HETATM   23  N   UNL     1      42.726 -17.454   2.625  1.00  0.00    -0.234 N 
HETATM   24  N   UNL     1      41.519 -16.925   3.163  1.00  0.00    -0.193 NA
HETATM   25  C   UNL     1      41.736 -16.006   4.296  1.00  0.00     0.143 C 
HETATM   26  C   UNL     1      40.777 -16.451   2.060  1.00  0.00     0.037 A 
HETATM   27  C   UNL     1      39.419 -15.867   2.280  1.00  0.00     0.066 C 
BRANCH  23  28
HETATM   28  C   UNL     1      43.487 -18.433   3.314  1.00  0.00     0.055 A 
HETATM   29  C   UNL     1      44.008 -18.173   4.589  1.00  0.00     0.031 A 
HETATM   30  C   UNL     1      44.757 -19.137   5.273  1.00  0.00     0.002 A 
HETATM   31  C   UNL     1      45.005 -20.374   4.687  1.00  0.00     0.000 A 
HETATM   32  C   UNL     1      44.504 -20.649   3.418  1.00  0.00     0.002 A 
HETATM   33  C   UNL     1      43.752 -19.686   2.739  1.00  0.00     0.031 A 
ENDBRANCH  23  28
ENDBRANCH   2  20
TORSDOF 7
ENDMDL
MODEL 10
REMARK VINA RESULT:      -8.3      6.778     10.529
REMARK  7 active torsions:
REMARK  status: ('A' for Active; 'I' for Inactive)
REMARK    1  A    between atoms: C_4  and  N_5 
REMARK    2  A    between atoms: N_5  and  C_6 
REMARK    3  A    between atoms: C_6  and  C_7 
REMARK    4  A    between atoms: C_7  and  N_8 
REMARK       I    between atoms: N_8  and  C_9 
REMARK    5  A    between atoms: C_9  and  C_10 
REMARK       I    between atoms: C_10  and  N_11 
REMARK    6  A    between atoms: N_11  and  C_12 
REMARK    7  A    between atoms: N_15  and  C_16 
ROOT
HETATM    1  C   UNL     1      42.534 -13.848   1.945  1.00  0.00     0.314 C 
HETATM    2  N   UNL     1      42.292 -15.190   1.791  1.00  0.00    -0.313 N 
HETATM    3  O   UNL     1      43.006 -13.251   2.902  1.00  0.00    -0.262 OA
HETATM    4  H   UNL     1      41.891 -15.454   0.886  1.00  0.00     0.169 HD
ENDROOT
BRANCH   1   5
HETATM    5  C   UNL     1      42.160 -13.037   0.683  1.00  0.00     0.309 C 
HETATM    6  N   UNL     1      41.446 -13.756  -0.247  1.00  0.00    -0.351 N 
HETATM    7  H   UNL     1      41.278 -14.737  -0.033  1.00  0.00     0.162 HD
HETATM    8  O   UNL     1      42.479 -11.861   0.595  1.00  0.00    -0.262 OA
BRANCH   6   9
HETATM    9  C   UNL     1      40.925 -13.167  -1.462  1.00  0.00     0.142 C 
BRANCH   9  10
HETATM   10  C   UNL     1      41.652 -13.639  -2.732  1.00  0.00     0.139 C 
BRANCH  10  11
HETATM   11  N   UNL     1      42.794 -12.768  -3.008  1.00  0.00    -0.388 N 
HETATM   12  H   UNL     1      43.519 -12.800  -2.295  1.00  0.00     0.159 HD
BRANCH  11  13
HETATM   13  C   UNL     1      42.593 -11.461  -3.463  1.00  0.00     0.028 A 
HETATM   14  C   UNL     1      42.312 -11.129  -4.794  1.00  0.00     0.035 A 
HETATM   15  C   UNL     1      42.186  -9.791  -5.207  1.00  0.00    -0.060 A 
HETATM   16  C   UNL     1      41.843  -9.452  -6.627  1.00  0.00     0.048 C 
HETATM   17  C   UNL     1      42.370  -8.766  -4.274  1.00  0.00     0.007 A 
HETATM   18  C   UNL     1      42.697  -9.074  -2.958  1.00  0.00     0.003 A 
HETATM   19  C   UNL     1      42.819 -10.408  -2.564  1.00  0.00     0.029 A 
ENDBRANCH  11  13
ENDBRANCH  10  11
ENDBRANCH   9  10
ENDBRANCH   6   9
ENDBRANCH   1   5
BRANCH   2  20
HETATM   20  C   UNL     1      42.502 -16.234   2.648  1.00  0.00     0.124 A 
HETATM   21  C   UNL     1      43.466 -17.312   2.251  1.00  0.00     0.291 A 
HETATM   22  O   UNL     1      44.044 -17.301   1.173  1.00  0.00    -0.264 OA
HETATM   23  N   UNL     1      43.464 -18.251   3.283  1.00  0.00    -0.234 N 
HETATM   24  N   UNL     1      42.605 -17.796   4.323  1.00  0.00    -0.193 NA
HETATM   25  C   UNL     1      43.247 -17.786   5.650  1.00  0.00     0.143 C 
HETATM   26  C   UNL     1      42.032 -16.593   3.855  1.00  0.00     0.037 A 
HETATM   27  C   UNL     1      41.033 -15.873   4.702  1.00  0.00     0.066 C 
BRANCH  23  28
HETATM   28  C   UNL     1      43.825 -19.617   3.153  1.00  0.00     0.055 A 
HETATM   29  C   UNL     1      44.549 -20.268   4.161  1.00  0.00     0.031 A 
HETATM   30  C   UNL     1      44.905 -21.615   4.038  1.00  0.00     0.002 A 
HETATM   31  C   UNL     1      44.549 -22.331   2.899  1.00  0.00     0.000 A 
HETATM   32  C   UNL     1      43.838 -21.701   1.883  1.00  0.00     0.002 A 
HETATM   33  C   UNL     1      43.479 -20.355   2.010  1.00  0.00     0.031 A 
ENDBRANCH  23  28
ENDBRANCH   2  20
TORSDOF 7
ENDMDL
