MODEL 1
REMARK VINA RESULT:      -9.5      0.000      0.000
REMARK  3 active torsions:
REMARK  status: ('A' for Active; 'I' for Inactive)
REMARK    1  A    between atoms: C_2  and  C_3 
REMARK    2  A    between atoms: C_7  and  C_8 
REMARK       I    between atoms: C_8  and  N_9 
REMARK    3  A    between atoms: N_9  and  N_10 
ROOT
HETATM    1  C   UNL     1      43.654 -17.710   1.958  1.00  0.00     0.272 C 
HETATM    2  N   UNL     1      42.334 -17.690   1.540  1.00  0.00    -0.242 N 
HETATM    3  O   UNL     1      44.588 -17.174   1.364  1.00  0.00    -0.266 OA
HETATM    4  H   UNL     1      41.594 -18.161   2.060  1.00  0.00     0.192 HD
ENDROOT
BRANCH   1   5
HETATM    5  C   UNL     1      43.957 -18.494   3.185  1.00  0.00     0.048 A 
HETATM    6  C   UNL     1      44.184 -19.893   3.218  1.00  0.00     0.008 A 
HETATM    7  C   UNL     1      44.495 -20.436   4.484  1.00  0.00     0.068 A 
HETATM    8  C   UNL     1      44.090 -20.782   2.114  1.00  0.00     0.015 A 
HETATM    9  N   UNL     1      44.528 -19.708   5.613  1.00  0.00    -0.253 NA
HETATM   10  C   UNL     1      44.761 -21.794   4.593  1.00  0.00     0.032 A 
HETATM   11  C   UNL     1      44.240 -18.390   5.560  1.00  0.00     0.036 A 
HETATM   12  C   UNL     1      43.971 -17.747   4.368  1.00  0.00     0.045 A 
HETATM   13  C   UNL     1      44.710 -22.649   3.493  1.00  0.00     0.002 A 
HETATM   14  C   UNL     1      44.364 -22.144   2.250  1.00  0.00     0.001 A 
BRANCH  11  15
HETATM   15  C   UNL     1      44.215 -17.640   6.865  1.00  0.00     0.055 C 
HETATM   16  C   UNL     1      42.796 -17.402   7.356  1.00  0.00     0.011 C 
ENDBRANCH  11  15
ENDBRANCH   1   5
BRANCH   2  17
HETATM   17  N   UNL     1      42.015 -17.026   0.389  1.00  0.00    -0.166 NA
HETATM   18  C   UNL     1      41.156 -16.062   0.472  1.00  0.00     0.157 A 
HETATM   19  C   UNL     1      40.472 -15.492   1.716  1.00  0.00     0.277 A 
HETATM   20  C   UNL     1      40.696 -15.248  -0.645  1.00  0.00     0.027 A 
HETATM   21  O   UNL     1      40.588 -15.939   2.838  1.00  0.00    -0.266 OA
HETATM   22  N   UNL     1      39.739 -14.412   1.273  1.00  0.00    -0.321 N 
HETATM   23  C   UNL     1      39.863 -14.268  -0.107  1.00  0.00     0.048 A 
HETATM   24  H   UNL     1      39.185 -13.827   1.880  1.00  0.00     0.169 HD
HETATM   25  C   UNL     1      39.276 -13.313  -0.910  1.00  0.00     0.030 A 
HETATM   26  C   UNL     1      39.539 -13.377  -2.285  1.00  0.00     0.002 A 
HETATM   27  C   UNL     1      40.375 -14.380  -2.822  1.00  0.00     0.001 A 
HETATM   28  C   UNL     1      40.971 -15.333  -1.994  1.00  0.00     0.016 A 
ENDBRANCH   2  17
TORSDOF 3
ENDMDL
MODEL 2
REMARK VINA RESULT:      -9.5      2.017      2.331
REMARK  3 active torsions:
REMARK  status: ('A' for Active; 'I' for Inactive)
REMARK    1  A    between atoms: C_2  and  C_3 
REMARK    2  A    between atoms: C_7  and  C_8 
REMARK       I    between atoms: C_8  and  N_9 
REMARK    3  A    between atoms: N_9  and  N_10 
ROOT
HETATM    1  C   UNL     1      42.361 -17.290   2.540  1.00  0.00     0.272 C 
HETATM    2  N   UNL     1      41.081 -17.048   3.011  1.00  0.00    -0.242 N 
HETATM    3  O   UNL     1      42.804 -16.881   1.469  1.00  0.00    -0.266 OA
HETATM    4  H   UNL     1      40.753 -17.420   3.902  1.00  0.00     0.192 HD
ENDROOT
BRANCH   1   5
HETATM    5  C   UNL     1      43.229 -18.163   3.375  1.00  0.00     0.048 A 
HETATM    6  C   UNL     1      43.602 -19.490   3.045  1.00  0.00     0.008 A 
HETATM    7  C   UNL     1      44.467 -20.131   3.960  1.00  0.00     0.068 A 
HETATM    8  C   UNL     1      43.159 -20.227   1.915  1.00  0.00     0.015 A 
HETATM    9  N   UNL     1      44.884 -19.565   5.104  1.00  0.00    -0.253 NA
HETATM   10  C   UNL     1      44.903 -21.421   3.690  1.00  0.00     0.032 A 
HETATM   11  C   UNL     1      44.456 -18.325   5.424  1.00  0.00     0.036 A 
HETATM   12  C   UNL     1      43.648 -17.589   4.580  1.00  0.00     0.045 A 
HETATM   13  C   UNL     1      44.496 -22.118   2.553  1.00  0.00     0.002 A 
HETATM   14  C   UNL     1      43.614 -21.523   1.666  1.00  0.00     0.001 A 
BRANCH  11  15
HETATM   15  C   UNL     1      44.890 -17.771   6.756  1.00  0.00     0.055 C 
HETATM   16  C   UNL     1      43.711 -17.541   7.687  1.00  0.00     0.011 C 
ENDBRANCH  11  15
ENDBRANCH   1   5
BRANCH   2  17
HETATM   17  N   UNL     1      40.229 -16.295   2.254  1.00  0.00    -0.166 NA
HETATM   18  C   UNL     1      39.942 -15.107   2.678  1.00  0.00     0.157 A 
HETATM   19  C   UNL     1      40.481 -14.370   3.905  1.00  0.00     0.277 A 
HETATM   20  C   UNL     1      39.054 -14.167   2.006  1.00  0.00     0.027 A 
HETATM   21  O   UNL     1      41.229 -14.851   4.730  1.00  0.00    -0.266 OA
HETATM   22  N   UNL     1      39.943 -13.103   3.842  1.00  0.00    -0.321 N 
HETATM   23  C   UNL     1      39.104 -12.981   2.736  1.00  0.00     0.048 A 
HETATM   24  H   UNL     1      40.133 -12.382   4.522  1.00  0.00     0.169 HD
HETATM   25  C   UNL     1      38.383 -11.872   2.345  1.00  0.00     0.030 A 
HETATM   26  C   UNL     1      37.592 -11.992   1.195  1.00  0.00     0.002 A 
HETATM   27  C   UNL     1      37.539 -13.201   0.468  1.00  0.00     0.001 A 
HETATM   28  C   UNL     1      38.283 -14.311   0.871  1.00  0.00     0.016 A 
ENDBRANCH   2  17
TORSDOF 3
ENDMDL
MODEL 3
REMARK VINA RESULT:      -9.0      2.035      3.778
REMARK  3 active torsions:
REMARK  status: ('A' for Active; 'I' for Inactive)
REMARK    1  A    between atoms: C_2  and  C_3 
REMARK    2  A    between atoms: C_7  and  C_8 
REMARK       I    between atoms: C_8  and  N_9 
REMARK    3  A    between atoms: N_9  and  N_10 
ROOT
HETATM    1  C   UNL     1      42.078 -17.119   2.032  1.00  0.00     0.272 C 
HETATM    2  N   UNL     1      40.774 -16.955   2.471  1.00  0.00    -0.242 N 
HETATM    3  O   UNL     1      42.561 -16.569   1.045  1.00  0.00    -0.266 OA
HETATM    4  H   UNL     1      40.412 -17.443   3.290  1.00  0.00     0.192 HD
ENDROOT
BRANCH   1   5
HETATM    5  C   UNL     1      42.923 -18.083   2.786  1.00  0.00     0.048 A 
HETATM    6  C   UNL     1      43.512 -17.829   4.051  1.00  0.00     0.008 A 
HETATM    7  C   UNL     1      44.247 -18.896   4.612  1.00  0.00     0.068 A 
HETATM    8  C   UNL     1      43.456 -16.605   4.769  1.00  0.00     0.015 A 
HETATM    9  N   UNL     1      44.439 -20.070   3.988  1.00  0.00    -0.253 NA
HETATM   10  C   UNL     1      44.827 -18.736   5.862  1.00  0.00     0.032 A 
HETATM   11  C   UNL     1      43.924 -20.257   2.755  1.00  0.00     0.036 A 
HETATM   12  C   UNL     1      43.147 -19.299   2.133  1.00  0.00     0.045 A 
HETATM   13  C   UNL     1      44.727 -17.543   6.578  1.00  0.00     0.002 A 
HETATM   14  C   UNL     1      44.047 -16.470   6.026  1.00  0.00     0.001 A 
BRANCH  11  15
HETATM   15  C   UNL     1      44.237 -21.561   2.070  1.00  0.00     0.055 C 
HETATM   16  C   UNL     1      44.663 -22.635   3.057  1.00  0.00     0.011 C 
ENDBRANCH  11  15
ENDBRANCH   1   5
BRANCH   2  17
HETATM   17  N   UNL     1      39.944 -16.119   1.778  1.00  0.00    -0.166 NA
HETATM   18  C   UNL     1      39.658 -14.978   2.317  1.00  0.00     0.157 A 
HETATM   19  C   UNL     1      40.179 -14.376   3.622  1.00  0.00     0.277 A 
HETATM   20  C   UNL     1      38.792 -13.965   1.727  1.00  0.00     0.027 A 
HETATM   21  O   UNL     1      40.907 -14.947   4.408  1.00  0.00    -0.266 OA
HETATM   22  N   UNL     1      39.653 -13.103   3.680  1.00  0.00    -0.321 N 
HETATM   23  C   UNL     1      38.838 -12.860   2.576  1.00  0.00     0.048 A 
HETATM   24  H   UNL     1      39.835 -12.458   4.433  1.00  0.00     0.169 HD
HETATM   25  C   UNL     1      38.134 -11.710   2.288  1.00  0.00     0.030 A 
HETATM   26  C   UNL     1      37.365 -11.703   1.116  1.00  0.00     0.002 A 
HETATM   27  C   UNL     1      37.316 -12.830   0.268  1.00  0.00     0.001 A 
HETATM   28  C   UNL     1      38.043 -13.984   0.570  1.00  0.00     0.016 A 
ENDBRANCH   2  17
TORSDOF 3
ENDMDL
MODEL 4
REMARK VINA RESULT:      -9.0      1.803      2.138
REMARK  3 active torsions:
REMARK  status: ('A' for Active; 'I' for Inactive)
REMARK    1  A    between atoms: C_2  and  C_3 
REMARK    2  A    between atoms: C_7  and  C_8 
REMARK       I    between atoms: C_8  and  N_9 
REMARK    3  A    between atoms: N_9  and  N_10 
ROOT
HETATM    1  C   UNL     1      42.100 -17.108   2.473  1.00  0.00     0.272 C 
HETATM    2  N   UNL     1      42.716 -16.216   1.610  1.00  0.00    -0.242 N 
HETATM    3  O   UNL     1      40.884 -17.245   2.592  1.00  0.00    -0.266 OA
HETATM    4  H   UNL     1      43.731 -16.128   1.555  1.00  0.00     0.192 HD
ENDROOT
BRANCH   1   5
HETATM    5  C   UNL     1      42.989 -17.909   3.356  1.00  0.00     0.048 A 
HETATM    6  C   UNL     1      43.440 -19.224   3.078  1.00  0.00     0.008 A 
HETATM    7  C   UNL     1      44.312 -19.790   4.033  1.00  0.00     0.068 A 
HETATM    8  C   UNL     1      43.068 -20.016   1.958  1.00  0.00     0.015 A 
HETATM    9  N   UNL     1      44.667 -19.170   5.170  1.00  0.00    -0.253 NA
HETATM   10  C   UNL     1      44.822 -21.062   3.815  1.00  0.00     0.032 A 
HETATM   11  C   UNL     1      44.166 -17.946   5.441  1.00  0.00     0.036 A 
HETATM   12  C   UNL     1      43.344 -17.278   4.554  1.00  0.00     0.045 A 
HETATM   13  C   UNL     1      44.484 -21.814   2.689  1.00  0.00     0.002 A 
HETATM   14  C   UNL     1      43.597 -21.292   1.762  1.00  0.00     0.001 A 
BRANCH  11  15
HETATM   15  C   UNL     1      44.533 -17.331   6.766  1.00  0.00     0.055 C 
HETATM   16  C   UNL     1      43.358 -17.312   7.729  1.00  0.00     0.011 C 
ENDBRANCH  11  15
ENDBRANCH   1   5
BRANCH   2  17
HETATM   17  N   UNL     1      41.939 -15.421   0.816  1.00  0.00    -0.166 NA
HETATM   18  C   UNL     1      41.823 -14.175   1.147  1.00  0.00     0.157 A 
HETATM   19  C   UNL     1      42.500 -13.420   2.291  1.00  0.00     0.277 A 
HETATM   20  C   UNL     1      41.038 -13.184   0.423  1.00  0.00     0.027 A 
HETATM   21  O   UNL     1      43.212 -13.928   3.132  1.00  0.00    -0.266 OA
HETATM   22  N   UNL     1      42.127 -12.102   2.137  1.00  0.00    -0.321 N 
HETATM   23  C   UNL     1      41.269 -11.959   1.049  1.00  0.00     0.048 A 
HETATM   24  H   UNL     1      42.435 -11.360   2.748  1.00  0.00     0.169 HD
HETATM   25  C   UNL     1      40.682 -10.801   0.587  1.00  0.00     0.030 A 
HETATM   26  C   UNL     1      39.837 -10.907  -0.527  1.00  0.00     0.002 A 
HETATM   27  C   UNL     1      39.601 -12.152  -1.147  1.00  0.00     0.001 A 
HETATM   28  C   UNL     1      40.212 -13.315  -0.673  1.00  0.00     0.016 A 
ENDBRANCH   2  17
TORSDOF 3
ENDMDL
MODEL 5
REMARK VINA RESULT:      -8.8      1.419      3.662
REMARK  3 active torsions:
REMARK  status: ('A' for Active; 'I' for Inactive)
REMARK    1  A    between atoms: C_2  and  C_3 
REMARK    2  A    between atoms: C_7  and  C_8 
REMARK       I    between atoms: C_8  and  N_9 
REMARK    3  A    between atoms: N_9  and  N_10 
ROOT
HETATM    1  C   UNL     1      41.894 -16.617   3.840  1.00  0.00     0.272 C 
HETATM    2  N   UNL     1      40.993 -16.977   2.851  1.00  0.00    -0.242 N 
HETATM    3  O   UNL     1      42.042 -15.476   4.273  1.00  0.00    -0.266 OA
HETATM    4  H   UNL     1      40.914 -17.936   2.513  1.00  0.00     0.192 HD
ENDROOT
BRANCH   1   5
HETATM    5  C   UNL     1      42.782 -17.690   4.361  1.00  0.00     0.048 A 
HETATM    6  C   UNL     1      43.162 -17.842   5.718  1.00  0.00     0.008 A 
HETATM    7  C   UNL     1      43.982 -18.954   6.007  1.00  0.00     0.068 A 
HETATM    8  C   UNL     1      42.822 -16.966   6.784  1.00  0.00     0.015 A 
HETATM    9  N   UNL     1      44.435 -19.802   5.069  1.00  0.00    -0.253 NA
HETATM   10  C   UNL     1      44.370 -19.188   7.319  1.00  0.00     0.032 A 
HETATM   11  C   UNL     1      44.113 -19.592   3.775  1.00  0.00     0.036 A 
HETATM   12  C   UNL     1      43.277 -18.564   3.386  1.00  0.00     0.045 A 
HETATM   13  C   UNL     1      43.993 -18.346   8.364  1.00  0.00     0.002 A 
HETATM   14  C   UNL     1      43.224 -17.225   8.096  1.00  0.00     0.001 A 
BRANCH  11  15
HETATM   15  C   UNL     1      44.714 -20.525   2.757  1.00  0.00     0.055 C 
HETATM   16  C   UNL     1      43.655 -21.144   1.859  1.00  0.00     0.011 C 
ENDBRANCH  11  15
ENDBRANCH   1   5
BRANCH   2  17
HETATM   17  N   UNL     1      40.192 -16.015   2.304  1.00  0.00    -0.166 NA
HETATM   18  C   UNL     1      40.487 -15.594   1.116  1.00  0.00     0.157 A 
HETATM   19  C   UNL     1      41.594 -16.075   0.177  1.00  0.00     0.277 A 
HETATM   20  C   UNL     1      39.751 -14.576   0.379  1.00  0.00     0.027 A 
HETATM   21  O   UNL     1      42.434 -16.902   0.460  1.00  0.00    -0.266 OA
HETATM   22  N   UNL     1      41.408 -15.380  -1.000  1.00  0.00    -0.321 N 
HETATM   23  C   UNL     1      40.334 -14.500  -0.885  1.00  0.00     0.048 A 
HETATM   24  H   UNL     1      41.990 -15.500  -1.815  1.00  0.00     0.169 HD
HETATM   25  C   UNL     1      39.850 -13.634  -1.843  1.00  0.00     0.030 A 
HETATM   26  C   UNL     1      38.759 -12.829  -1.489  1.00  0.00     0.002 A 
HETATM   27  C   UNL     1      38.181 -12.905  -0.204  1.00  0.00     0.001 A 
HETATM   28  C   UNL     1      38.677 -13.795   0.752  1.00  0.00     0.016 A 
ENDBRANCH   2  17
TORSDOF 3
ENDMDL
MODEL 6
REMARK VINA RESULT:      -8.6      1.608      3.725
REMARK  3 active torsions:
REMARK  status: ('A' for Active; 'I' for Inactive)
REMARK    1  A    between atoms: C_2  and  C_3 
REMARK    2  A    between atoms: C_7  and  C_8 
REMARK       I    between atoms: C_8  and  N_9 
REMARK    3  A    between atoms: N_9  and  N_10 
ROOT
HETATM    1  C   UNL     1      41.859 -16.289   2.996  1.00  0.00     0.272 C 
HETATM    2  N   UNL     1      42.379 -15.412   2.059  1.00  0.00    -0.242 N 
HETATM    3  O   UNL     1      40.780 -16.147   3.567  1.00  0.00    -0.266 OA
HETATM    4  H   UNL     1      43.287 -15.563   1.620  1.00  0.00     0.192 HD
ENDROOT
BRANCH   1   5
HETATM    5  C   UNL     1      42.709 -17.449   3.373  1.00  0.00     0.048 A 
HETATM    6  C   UNL     1      43.496 -17.530   4.550  1.00  0.00     0.008 A 
HETATM    7  C   UNL     1      44.200 -18.740   4.736  1.00  0.00     0.068 A 
HETATM    8  C   UNL     1      43.659 -16.505   5.519  1.00  0.00     0.015 A 
HETATM    9  N   UNL     1      44.190 -19.746   3.847  1.00  0.00    -0.253 NA
HETATM   10  C   UNL     1      44.967 -18.908   5.881  1.00  0.00     0.032 A 
HETATM   11  C   UNL     1      43.487 -19.612   2.703  1.00  0.00     0.036 A 
HETATM   12  C   UNL     1      42.722 -18.492   2.441  1.00  0.00     0.045 A 
HETATM   13  C   UNL     1      45.084 -17.910   6.848  1.00  0.00     0.002 A 
HETATM   14  C   UNL     1      44.436 -16.700   6.662  1.00  0.00     0.001 A 
BRANCH  11  15
HETATM   15  C   UNL     1      43.574 -20.738   1.706  1.00  0.00     0.055 C 
HETATM   16  C   UNL     1      44.398 -21.902   2.234  1.00  0.00     0.011 C 
ENDBRANCH  11  15
ENDBRANCH   1   5
BRANCH   2  17
HETATM   17  N   UNL     1      41.657 -14.302   1.719  1.00  0.00    -0.166 NA
HETATM   18  C   UNL     1      41.054 -14.308   0.574  1.00  0.00     0.157 A 
HETATM   19  C   UNL     1      40.970 -15.432  -0.460  1.00  0.00     0.277 A 
HETATM   20  C   UNL     1      40.244 -13.218   0.046  1.00  0.00     0.027 A 
HETATM   21  O   UNL     1      41.550 -16.494  -0.379  1.00  0.00    -0.266 OA
HETATM   22  N   UNL     1      40.122 -14.968  -1.443  1.00  0.00    -0.321 N 
HETATM   23  C   UNL     1      39.699 -13.672  -1.154  1.00  0.00     0.048 A 
HETATM   24  H   UNL     1      39.868 -15.505  -2.258  1.00  0.00     0.169 HD
HETATM   25  C   UNL     1      38.856 -12.877  -1.900  1.00  0.00     0.030 A 
HETATM   26  C   UNL     1      38.582 -11.592  -1.411  1.00  0.00     0.002 A 
HETATM   27  C   UNL     1      39.147 -11.137  -0.200  1.00  0.00     0.001 A 
HETATM   28  C   UNL     1      39.991 -11.959   0.550  1.00  0.00     0.016 A 
ENDBRANCH   2  17
TORSDOF 3
ENDMDL
MODEL 7
REMARK VINA RESULT:      -8.6      1.557      7.740
REMARK  3 active torsions:
REMARK  status: ('A' for Active; 'I' for Inactive)
REMARK    1  A    between atoms: C_2  and  C_3 
REMARK    2  A    between atoms: C_7  and  C_8 
REMARK       I    between atoms: C_8  and  N_9 
REMARK    3  A    between atoms: N_9  and  N_10 
ROOT
HETATM    1  C   UNL     1      41.563 -16.911   0.872  1.00  0.00     0.272 C 
HETATM    2  N   UNL     1      42.905 -17.235   0.979  1.00  0.00    -0.242 N 
HETATM    3  O   UNL     1      40.636 -17.709   0.992  1.00  0.00    -0.266 OA
HETATM    4  H   UNL     1      43.642 -16.540   0.859  1.00  0.00     0.192 HD
ENDROOT
BRANCH   1   5
HETATM    5  C   UNL     1      41.240 -15.502   0.523  1.00  0.00     0.048 A 
HETATM    6  C   UNL     1      41.013 -15.022  -0.791  1.00  0.00     0.008 A 
HETATM    7  C   UNL     1      40.681 -13.653  -0.898  1.00  0.00     0.068 A 
HETATM    8  C   UNL     1      41.126 -15.778  -1.988  1.00  0.00     0.015 A 
HETATM    9  N   UNL     1      40.628 -12.821   0.155  1.00  0.00    -0.253 NA
HETATM   10  C   UNL     1      40.414 -13.117  -2.149  1.00  0.00     0.032 A 
HETATM   11  C   UNL     1      40.916 -13.292   1.387  1.00  0.00     0.036 A 
HETATM   12  C   UNL     1      41.205 -14.623   1.612  1.00  0.00     0.045 A 
HETATM   13  C   UNL     1      40.484 -13.880  -3.314  1.00  0.00     0.002 A 
HETATM   14  C   UNL     1      40.850 -15.214  -3.235  1.00  0.00     0.001 A 
BRANCH  11  15
HETATM   15  C   UNL     1      40.919 -12.299   2.518  1.00  0.00     0.055 C 
HETATM   16  C   UNL     1      42.106 -12.499   3.448  1.00  0.00     0.011 C 
ENDBRANCH  11  15
ENDBRANCH   1   5
BRANCH   2  17
HETATM   17  N   UNL     1      43.254 -18.529   1.246  1.00  0.00    -0.166 NA
HETATM   18  C   UNL     1      43.662 -18.805   2.442  1.00  0.00     0.157 A 
HETATM   19  C   UNL     1      43.755 -17.884   3.660  1.00  0.00     0.277 A 
HETATM   20  C   UNL     1      44.076 -20.123   2.905  1.00  0.00     0.027 A 
HETATM   21  O   UNL     1      43.519 -16.694   3.650  1.00  0.00    -0.266 OA
HETATM   22  N   UNL     1      44.144 -18.693   4.706  1.00  0.00    -0.321 N 
HETATM   23  C   UNL     1      44.337 -20.002   4.269  1.00  0.00     0.048 A 
HETATM   24  H   UNL     1      44.278 -18.359   5.649  1.00  0.00     0.169 HD
HETATM   25  C   UNL     1      44.734 -21.089   5.019  1.00  0.00     0.030 A 
HETATM   26  C   UNL     1      44.874 -22.313   4.352  1.00  0.00     0.002 A 
HETATM   27  C   UNL     1      44.617 -22.425   2.968  1.00  0.00     0.001 A 
HETATM   28  C   UNL     1      44.206 -21.316   2.226  1.00  0.00     0.016 A 
ENDBRANCH   2  17
TORSDOF 3
ENDMDL
MODEL 8
REMARK VINA RESULT:      -8.6      1.683      8.065
REMARK  3 active torsions:
REMARK  status: ('A' for Active; 'I' for Inactive)
REMARK    1  A    between atoms: C_2  and  C_3 
REMARK    2  A    between atoms: C_7  and  C_8 
REMARK       I    between atoms: C_8  and  N_9 
REMARK    3  A    between atoms: N_9  and  N_10 
ROOT
HETATM    1  C   UNL     1      41.568 -16.951   1.018  1.00  0.00     0.272 C 
HETATM    2  N   UNL     1      42.905 -17.263   1.203  1.00  0.00    -0.242 N 
HETATM    3  O   UNL     1      40.647 -17.765   1.042  1.00  0.00    -0.266 OA
HETATM    4  H   UNL     1      43.638 -16.554   1.161  1.00  0.00     0.192 HD
ENDROOT
BRANCH   1   5
HETATM    5  C   UNL     1      41.247 -15.532   0.706  1.00  0.00     0.048 A 
HETATM    6  C   UNL     1      40.714 -14.599   1.630  1.00  0.00     0.008 A 
HETATM    7  C   UNL     1      40.519 -13.290   1.139  1.00  0.00     0.068 A 
HETATM    8  C   UNL     1      40.333 -14.874   2.971  1.00  0.00     0.015 A 
HETATM    9  N   UNL     1      40.763 -12.933  -0.133  1.00  0.00    -0.253 NA
HETATM   10  C   UNL     1      40.030 -12.311   1.993  1.00  0.00     0.032 A 
HETATM   11  C   UNL     1      41.205 -13.861  -1.008  1.00  0.00     0.036 A 
HETATM   12  C   UNL     1      41.476 -15.159  -0.623  1.00  0.00     0.045 A 
HETATM   13  C   UNL     1      39.702 -12.583   3.321  1.00  0.00     0.002 A 
HETATM   14  C   UNL     1      39.845 -13.871   3.810  1.00  0.00     0.001 A 
BRANCH  11  15
HETATM   15  C   UNL     1      41.385 -13.426  -2.438  1.00  0.00     0.055 C 
HETATM   16  C   UNL     1      42.782 -12.888  -2.698  1.00  0.00     0.011 C 
ENDBRANCH  11  15
ENDBRANCH   1   5
BRANCH   2  17
HETATM   17  N   UNL     1      43.254 -18.562   1.440  1.00  0.00    -0.166 NA
HETATM   18  C   UNL     1      43.674 -18.863   2.626  1.00  0.00     0.157 A 
HETATM   19  C   UNL     1      43.780 -17.968   3.861  1.00  0.00     0.277 A 
HETATM   20  C   UNL     1      44.090 -20.191   3.058  1.00  0.00     0.027 A 
HETATM   21  O   UNL     1      43.545 -16.777   3.878  1.00  0.00    -0.266 OA
HETATM   22  N   UNL     1      44.178 -18.798   4.887  1.00  0.00    -0.321 N 
HETATM   23  C   UNL     1      44.365 -20.098   4.422  1.00  0.00     0.048 A 
HETATM   24  H   UNL     1      44.322 -18.483   5.835  1.00  0.00     0.169 HD
HETATM   25  C   UNL     1      44.768 -21.200   5.144  1.00  0.00     0.030 A 
HETATM   26  C   UNL     1      44.900 -22.411   4.451  1.00  0.00     0.002 A 
HETATM   27  C   UNL     1      44.630 -22.494   3.068  1.00  0.00     0.001 A 
HETATM   28  C   UNL     1      44.213 -21.369   2.353  1.00  0.00     0.016 A 
ENDBRANCH   2  17
TORSDOF 3
ENDMDL
MODEL 9
REMARK VINA RESULT:      -8.4      2.420      4.084
REMARK  3 active torsions:
REMARK  status: ('A' for Active; 'I' for Inactive)
REMARK    1  A    between atoms: C_2  and  C_3 
REMARK    2  A    between atoms: C_7  and  C_8 
REMARK       I    between atoms: C_8  and  N_9 
REMARK    3  A    between atoms: N_9  and  N_10 
ROOT
HETATM    1  C   UNL     1      42.479 -15.681   3.514  1.00  0.00     0.272 C 
HETATM    2  N   UNL     1      41.180 -15.395   3.901  1.00  0.00    -0.242 N 
HETATM    3  O   UNL     1      43.208 -14.919   2.883  1.00  0.00    -0.266 OA
HETATM    4  H   UNL     1      40.607 -16.066   4.413  1.00  0.00     0.192 HD
ENDROOT
BRANCH   1   5
HETATM    5  C   UNL     1      42.992 -17.038   3.840  1.00  0.00     0.048 A 
HETATM    6  C   UNL     1      43.381 -17.470   5.134  1.00  0.00     0.008 A 
HETATM    7  C   UNL     1      43.804 -18.813   5.232  1.00  0.00     0.068 A 
HETATM    8  C   UNL     1      43.413 -16.670   6.307  1.00  0.00     0.015 A 
HETATM    9  N   UNL     1      43.896 -19.639   4.178  1.00  0.00    -0.253 NA
HETATM   10  C   UNL     1      44.170 -19.319   6.472  1.00  0.00     0.032 A 
HETATM   11  C   UNL     1      43.586 -19.179   2.947  1.00  0.00     0.036 A 
HETATM   12  C   UNL     1      43.114 -17.897   2.742  1.00  0.00     0.045 A 
HETATM   13  C   UNL     1      44.154 -18.536   7.626  1.00  0.00     0.002 A 
HETATM   14  C   UNL     1      43.783 -17.204   7.542  1.00  0.00     0.001 A 
BRANCH  11  15
HETATM   15  C   UNL     1      43.783 -20.123   1.790  1.00  0.00     0.055 C 
HETATM   16  C   UNL     1      44.152 -21.522   2.255  1.00  0.00     0.011 C 
ENDBRANCH  11  15
ENDBRANCH   1   5
BRANCH   2  17
HETATM   17  N   UNL     1      40.646 -14.180   3.577  1.00  0.00    -0.166 NA
HETATM   18  C   UNL     1      39.725 -14.154   2.668  1.00  0.00     0.157 A 
HETATM   19  C   UNL     1      39.077 -15.324   1.926  1.00  0.00     0.277 A 
HETATM   20  C   UNL     1      39.046 -12.955   2.195  1.00  0.00     0.027 A 
HETATM   21  O   UNL     1      39.408 -16.486   2.038  1.00  0.00    -0.266 OA
HETATM   22  N   UNL     1      38.083 -14.766   1.151  1.00  0.00    -0.321 N 
HETATM   23  C   UNL     1      38.064 -13.380   1.301  1.00  0.00     0.048 A 
HETATM   24  H   UNL     1      37.473 -15.304   0.553  1.00  0.00     0.169 HD
HETATM   25  C   UNL     1      37.221 -12.479   0.686  1.00  0.00     0.030 A 
HETATM   26  C   UNL     1      37.401 -11.122   0.985  1.00  0.00     0.002 A 
HETATM   27  C   UNL     1      38.405 -10.700   1.883  1.00  0.00     0.001 A 
HETATM   28  C   UNL     1      39.244 -11.627   2.507  1.00  0.00     0.016 A 
ENDBRANCH   2  17
TORSDOF 3
ENDMDL
MODEL 10
REMARK VINA RESULT:      -8.4      1.550      2.446
REMARK  3 active torsions:
REMARK  status: ('A' for Active; 'I' for Inactive)
REMARK    1  A    between atoms: C_2  and  C_3 
REMARK    2  A    between atoms: C_7  and  C_8 
REMARK       I    between atoms: C_8  and  N_9 
REMARK    3  A    between atoms: N_9  and  N_10 
ROOT
HETATM    1  C   UNL     1      41.409 -16.446   3.055  1.00  0.00     0.272 C 
HETATM    2  N   UNL     1      41.773 -15.280   2.402  1.00  0.00    -0.242 N 
HETATM    3  O   UNL     1      40.263 -16.885   3.123  1.00  0.00    -0.266 OA
HETATM    4  H   UNL     1      42.738 -14.948   2.384  1.00  0.00     0.192 HD
ENDROOT
BRANCH   1   5
HETATM    5  C   UNL     1      42.487 -17.177   3.773  1.00  0.00     0.048 A 
HETATM    6  C   UNL     1      43.081 -18.386   3.332  1.00  0.00     0.008 A 
HETATM    7  C   UNL     1      44.117 -18.895   4.145  1.00  0.00     0.068 A 
HETATM    8  C   UNL     1      42.706 -19.132   2.182  1.00  0.00     0.015 A 
HETATM    9  N   UNL     1      44.501 -18.323   5.298  1.00  0.00    -0.253 NA
HETATM   10  C   UNL     1      44.770 -20.058   3.762  1.00  0.00     0.032 A 
HETATM   11  C   UNL     1      43.869 -17.210   5.728  1.00  0.00     0.036 A 
HETATM   12  C   UNL     1      42.876 -16.600   4.987  1.00  0.00     0.045 A 
HETATM   13  C   UNL     1      44.422 -20.758   2.607  1.00  0.00     0.002 A 
HETATM   14  C   UNL     1      43.380 -20.298   1.818  1.00  0.00     0.001 A 
BRANCH  11  15
HETATM   15  C   UNL     1      44.286 -16.657   7.065  1.00  0.00     0.055 C 
HETATM   16  C   UNL     1      44.245 -15.138   7.089  1.00  0.00     0.011 C 
ENDBRANCH  11  15
ENDBRANCH   1   5
BRANCH   2  17
HETATM   17  N   UNL     1      40.808 -14.546   1.772  1.00  0.00    -0.166 NA
HETATM   18  C   UNL     1      40.637 -14.744   0.505  1.00  0.00     0.157 A 
HETATM   19  C   UNL     1      41.330 -15.755  -0.409  1.00  0.00     0.277 A 
HETATM   20  C   UNL     1      39.661 -14.054  -0.328  1.00  0.00     0.027 A 
HETATM   21  O   UNL     1      42.232 -16.492  -0.072  1.00  0.00    -0.266 OA
HETATM   22  N   UNL     1      40.710 -15.631  -1.635  1.00  0.00    -0.321 N 
HETATM   23  C   UNL     1      39.737 -14.635  -1.593  1.00  0.00     0.048 A 
HETATM   24  H   UNL     1      40.953 -16.187  -2.441  1.00  0.00     0.169 HD
HETATM   25  C   UNL     1      38.917 -14.217  -2.620  1.00  0.00     0.030 A 
HETATM   26  C   UNL     1      38.017 -13.179  -2.342  1.00  0.00     0.002 A 
HETATM   27  C   UNL     1      37.954 -12.590  -1.062  1.00  0.00     0.001 A 
HETATM   28  C   UNL     1      38.785 -13.032  -0.029  1.00  0.00     0.016 A 
ENDBRANCH   2  17
TORSDOF 3
ENDMDL
