MODEL 1
REMARK VINA RESULT:      -9.3      0.000      0.000
REMARK  3 active torsions:
REMARK  status: ('A' for Active; 'I' for Inactive)
REMARK    1  A    between atoms: C_6  and  C_7 
REMARK    2  A    between atoms: C_14  and  N_15 
REMARK    3  A    between atoms: N_15  and  C_16 
ROOT
HETATM    1  C   UNL     1      39.695 -13.773   4.676  1.00  0.00     0.001 A 
HETATM    2  C   UNL     1      39.865 -14.355   3.422  1.00  0.00     0.018 A 
HETATM    3  C   UNL     1      40.672 -15.511   3.260  1.00  0.00     0.039 A 
HETATM    4  C   UNL     1      41.291 -16.081   4.380  1.00  0.00     0.073 A 
HETATM    5  N   UNL     1      42.051 -17.178   4.308  1.00  0.00    -0.228 NA
HETATM    6  C   UNL     1      42.211 -17.745   3.102  1.00  0.00     0.164 A 
HETATM    7  N   UNL     1      41.661 -17.283   1.970  1.00  0.00    -0.210 NA
HETATM    8  C   UNL     1      40.904 -16.175   2.043  1.00  0.00     0.143 A 
HETATM    9  C   UNL     1      41.105 -15.482   5.620  1.00  0.00     0.032 A 
HETATM   10  C   UNL     1      40.319 -14.338   5.779  1.00  0.00     0.002 A 
ENDROOT
BRANCH   8  11
HETATM   11  N   UNL     1      40.341 -15.647   0.850  1.00  0.00    -0.340 N 
HETATM   12  H   UNL     1      39.407 -15.307   1.051  1.00  0.00     0.167 HD
BRANCH  11  13
HETATM   13  C   UNL     1      40.985 -14.867  -0.137  1.00  0.00     0.036 A 
HETATM   14  C   UNL     1      41.617 -13.671   0.235  1.00  0.00     0.069 A 
HETATM   15  C   UNL     1      42.193 -12.832  -0.725  1.00  0.00     0.104 A 
HETATM   16  C   UNL     1      42.148 -13.181  -2.075  1.00  0.00     0.102 A 
HETATM   17  O   UNL     1      42.869 -11.739  -0.253  1.00  0.00    -0.348 OA
HETATM   18  O   UNL     1      42.774 -12.467  -3.058  1.00  0.00    -0.348 OA
HETATM   19  C   UNL     1      41.521 -14.362  -2.461  1.00  0.00     0.042 A 
HETATM   20  C   UNL     1      42.248 -11.145  -3.182  1.00  0.00     0.178 C 
HETATM   21  C   UNL     1      42.846 -10.198  -2.155  1.00  0.00     0.053 C 
HETATM   22  C   UNL     1      42.336 -10.514  -0.757  1.00  0.00     0.178 C 
HETATM   23  C   UNL     1      40.922 -15.183  -1.502  1.00  0.00     0.032 A 
ENDBRANCH  11  13
ENDBRANCH   8  11
BRANCH   6  24
HETATM   24  C   UNL     1      43.053 -18.944   3.008  1.00  0.00     0.029 A 
HETATM   25  C   UNL     1      43.969 -19.283   4.004  1.00  0.00     0.131 A 
HETATM   26  N   UNL     1      44.781 -20.373   3.985  1.00  0.00    -0.272 NA
HETATM   27  C   UNL     1      44.684 -21.180   2.909  1.00  0.00     0.116 A 
HETATM   28  C   UNL     1      43.815 -20.950   1.858  1.00  0.00     0.020 A 
HETATM   29  C   UNL     1      42.995 -19.823   1.913  1.00  0.00     0.018 A 
ENDBRANCH   6  24
TORSDOF 3
ENDMDL
MODEL 2
REMARK VINA RESULT:      -9.2      1.833      2.356
REMARK  3 active torsions:
REMARK  status: ('A' for Active; 'I' for Inactive)
REMARK    1  A    between atoms: C_6  and  C_7 
REMARK    2  A    between atoms: C_14  and  N_15 
REMARK    3  A    between atoms: N_15  and  C_16 
ROOT
HETATM    1  C   UNL     1      41.898 -13.201   5.544  1.00  0.00     0.001 A 
HETATM    2  C   UNL     1      41.176 -14.040   4.700  1.00  0.00     0.018 A 
HETATM    3  C   UNL     1      41.694 -15.303   4.311  1.00  0.00     0.039 A 
HETATM    4  C   UNL     1      42.941 -15.715   4.798  1.00  0.00     0.073 A 
HETATM    5  N   UNL     1      43.485 -16.896   4.489  1.00  0.00    -0.228 NA
HETATM    6  C   UNL     1      42.788 -17.710   3.682  1.00  0.00     0.164 A 
HETATM    7  N   UNL     1      41.586 -17.414   3.165  1.00  0.00    -0.210 NA
HETATM    8  C   UNL     1      41.044 -16.223   3.469  1.00  0.00     0.143 A 
HETATM    9  C   UNL     1      43.642 -14.860   5.639  1.00  0.00     0.032 A 
HETATM   10  C   UNL     1      43.137 -13.612   6.014  1.00  0.00     0.002 A 
ENDROOT
BRANCH   8  11
HETATM   11  N   UNL     1      39.788 -15.874   2.904  1.00  0.00    -0.340 N 
HETATM   12  H   UNL     1      39.186 -15.519   3.638  1.00  0.00     0.167 HD
BRANCH  11  13
HETATM   13  C   UNL     1      39.546 -15.235   1.667  1.00  0.00     0.036 A 
HETATM   14  C   UNL     1      40.573 -15.170   0.713  1.00  0.00     0.069 A 
HETATM   15  C   UNL     1      40.398 -14.474  -0.487  1.00  0.00     0.104 A 
HETATM   16  C   UNL     1      39.187 -13.835  -0.754  1.00  0.00     0.102 A 
HETATM   17  O   UNL     1      41.423 -14.551  -1.392  1.00  0.00    -0.348 OA
HETATM   18  O   UNL     1      38.905 -13.224  -1.944  1.00  0.00    -0.348 OA
HETATM   19  C   UNL     1      38.160 -13.887   0.183  1.00  0.00     0.042 A 
HETATM   20  C   UNL     1      39.769 -12.115  -2.198  1.00  0.00     0.178 C 
HETATM   21  C   UNL     1      41.103 -12.558  -2.777  1.00  0.00     0.053 C 
HETATM   22  C   UNL     1      41.947 -13.265  -1.728  1.00  0.00     0.178 C 
HETATM   23  C   UNL     1      38.349 -14.558   1.394  1.00  0.00     0.032 A 
ENDBRANCH  11  13
ENDBRANCH   8  11
BRANCH   6  24
HETATM   24  C   UNL     1      43.380 -19.005   3.326  1.00  0.00     0.029 A 
HETATM   25  C   UNL     1      44.282 -19.660   4.166  1.00  0.00     0.131 A 
HETATM   26  N   UNL     1      44.871 -20.857   3.904  1.00  0.00    -0.272 NA
HETATM   27  C   UNL     1      44.550 -21.444   2.734  1.00  0.00     0.116 A 
HETATM   28  C   UNL     1      43.670 -20.894   1.819  1.00  0.00     0.020 A 
HETATM   29  C   UNL     1      43.083 -19.666   2.122  1.00  0.00     0.018 A 
ENDBRANCH   6  24
TORSDOF 3
ENDMDL
MODEL 3
REMARK VINA RESULT:      -8.7      2.880      7.208
REMARK  3 active torsions:
REMARK  status: ('A' for Active; 'I' for Inactive)
REMARK    1  A    between atoms: C_6  and  C_7 
REMARK    2  A    between atoms: C_14  and  N_15 
REMARK    3  A    between atoms: N_15  and  C_16 
ROOT
HETATM    1  C   UNL     1      39.496 -12.965   5.551  1.00  0.00     0.001 A 
HETATM    2  C   UNL     1      39.871 -14.177   4.979  1.00  0.00     0.018 A 
HETATM    3  C   UNL     1      40.140 -14.274   3.589  1.00  0.00     0.039 A 
HETATM    4  C   UNL     1      40.040 -13.130   2.787  1.00  0.00     0.073 A 
HETATM    5  N   UNL     1      40.294 -13.140   1.475  1.00  0.00    -0.228 NA
HETATM    6  C   UNL     1      40.663 -14.306   0.922  1.00  0.00     0.164 A 
HETATM    7  N   UNL     1      40.791 -15.457   1.599  1.00  0.00    -0.210 NA
HETATM    8  C   UNL     1      40.528 -15.446   2.917  1.00  0.00     0.143 A 
HETATM    9  C   UNL     1      39.664 -11.932   3.382  1.00  0.00     0.032 A 
HETATM   10  C   UNL     1      39.390 -11.838   4.749  1.00  0.00     0.002 A 
ENDROOT
BRANCH   8  11
HETATM   11  N   UNL     1      40.623 -16.662   3.647  1.00  0.00    -0.340 N 
HETATM   12  H   UNL     1      39.770 -17.193   3.511  1.00  0.00     0.167 HD
BRANCH  11  13
HETATM   13  C   UNL     1      41.752 -17.501   3.782  1.00  0.00     0.036 A 
HETATM   14  C   UNL     1      42.168 -18.276   2.689  1.00  0.00     0.069 A 
HETATM   15  C   UNL     1      43.229 -19.179   2.809  1.00  0.00     0.104 A 
HETATM   16  C   UNL     1      43.894 -19.318   4.028  1.00  0.00     0.102 A 
HETATM   17  O   UNL     1      43.621 -19.816   1.662  1.00  0.00    -0.348 OA
HETATM   18  O   UNL     1      45.000 -20.102   4.196  1.00  0.00    -0.348 OA
HETATM   19  C   UNL     1      43.491 -18.560   5.123  1.00  0.00     0.042 A 
HETATM   20  C   UNL     1      44.721 -21.485   3.970  1.00  0.00     0.178 C 
HETATM   21  C   UNL     1      44.738 -21.831   2.490  1.00  0.00     0.053 C 
HETATM   22  C   UNL     1      43.534 -21.237   1.775  1.00  0.00     0.178 C 
HETATM   23  C   UNL     1      42.412 -17.680   5.006  1.00  0.00     0.032 A 
ENDBRANCH  11  13
ENDBRANCH   8  11
BRANCH   6  24
HETATM   24  C   UNL     1      40.933 -14.332  -0.520  1.00  0.00     0.029 A 
HETATM   25  C   UNL     1      41.264 -13.179  -1.231  1.00  0.00     0.131 A 
HETATM   26  N   UNL     1      41.525 -13.126  -2.564  1.00  0.00    -0.272 NA
HETATM   27  C   UNL     1      41.450 -14.290  -3.240  1.00  0.00     0.116 A 
HETATM   28  C   UNL     1      41.131 -15.498  -2.648  1.00  0.00     0.020 A 
HETATM   29  C   UNL     1      40.872 -15.514  -1.278  1.00  0.00     0.018 A 
ENDBRANCH   6  24
TORSDOF 3
ENDMDL
MODEL 4
REMARK VINA RESULT:      -8.6      3.058      5.387
REMARK  3 active torsions:
REMARK  status: ('A' for Active; 'I' for Inactive)
REMARK    1  A    between atoms: C_6  and  C_7 
REMARK    2  A    between atoms: C_14  and  N_15 
REMARK    3  A    between atoms: N_15  and  C_16 
ROOT
HETATM    1  C   UNL     1      39.919 -14.169   0.116  1.00  0.00     0.001 A 
HETATM    2  C   UNL     1      39.995 -14.570   1.447  1.00  0.00     0.018 A 
HETATM    3  C   UNL     1      40.773 -15.695   1.825  1.00  0.00     0.039 A 
HETATM    4  C   UNL     1      41.484 -16.400   0.846  1.00  0.00     0.073 A 
HETATM    5  N   UNL     1      42.250 -17.458   1.128  1.00  0.00    -0.228 NA
HETATM    6  C   UNL     1      42.331 -17.842   2.412  1.00  0.00     0.164 A 
HETATM    7  N   UNL     1      41.694 -17.236   3.424  1.00  0.00    -0.210 NA
HETATM    8  C   UNL     1      40.917 -16.177   3.137  1.00  0.00     0.143 A 
HETATM    9  C   UNL     1      41.393 -15.980  -0.475  1.00  0.00     0.032 A 
HETATM   10  C   UNL     1      40.619 -14.878  -0.850  1.00  0.00     0.002 A 
ENDROOT
BRANCH   8  11
HETATM   11  N   UNL     1      40.205 -15.542   4.190  1.00  0.00    -0.340 N 
HETATM   12  H   UNL     1      39.824 -16.253   4.803  1.00  0.00     0.167 HD
BRANCH  11  13
HETATM   13  C   UNL     1      40.570 -14.374   4.897  1.00  0.00     0.036 A 
HETATM   14  C   UNL     1      39.610 -13.374   5.116  1.00  0.00     0.069 A 
HETATM   15  C   UNL     1      39.954 -12.170   5.738  1.00  0.00     0.104 A 
HETATM   16  C   UNL     1      41.267 -11.949   6.156  1.00  0.00     0.102 A 
HETATM   17  O   UNL     1      38.928 -11.300   5.992  1.00  0.00    -0.348 OA
HETATM   18  O   UNL     1      41.657 -10.845   6.859  1.00  0.00    -0.348 OA
HETATM   19  C   UNL     1      42.231 -12.929   5.943  1.00  0.00     0.042 A 
HETATM   20  C   UNL     1      41.488  -9.641   6.110  1.00  0.00     0.178 C 
HETATM   21  C   UNL     1      40.056  -9.134   6.167  1.00  0.00     0.053 C 
HETATM   22  C   UNL     1      39.126 -10.031   5.366  1.00  0.00     0.178 C 
HETATM   23  C   UNL     1      41.890 -14.119   5.294  1.00  0.00     0.032 A 
ENDBRANCH  11  13
ENDBRANCH   8  11
BRANCH   6  24
HETATM   24  C   UNL     1      43.160 -19.010   2.733  1.00  0.00     0.029 A 
HETATM   25  C   UNL     1      43.890 -19.094   3.919  1.00  0.00     0.131 A 
HETATM   26  N   UNL     1      44.679 -20.140   4.283  1.00  0.00    -0.272 NA
HETATM   27  C   UNL     1      44.753 -21.170   3.417  1.00  0.00     0.116 A 
HETATM   28  C   UNL     1      44.077 -21.204   2.211  1.00  0.00     0.020 A 
HETATM   29  C   UNL     1      43.275 -20.115   1.872  1.00  0.00     0.018 A 
ENDBRANCH   6  24
TORSDOF 3
ENDMDL
MODEL 5
REMARK VINA RESULT:      -8.5      2.905      5.709
REMARK  3 active torsions:
REMARK  status: ('A' for Active; 'I' for Inactive)
REMARK    1  A    between atoms: C_6  and  C_7 
REMARK    2  A    between atoms: C_14  and  N_15 
REMARK    3  A    between atoms: N_15  and  C_16 
ROOT
HETATM    1  C   UNL     1      41.178 -14.070   0.147  1.00  0.00     0.001 A 
HETATM    2  C   UNL     1      41.793 -14.240   1.384  1.00  0.00     0.018 A 
HETATM    3  C   UNL     1      42.282 -15.511   1.785  1.00  0.00     0.039 A 
HETATM    4  C   UNL     1      42.157 -16.602   0.916  1.00  0.00     0.073 A 
HETATM    5  N   UNL     1      42.608 -17.824   1.216  1.00  0.00    -0.228 NA
HETATM    6  C   UNL     1      43.208 -17.989   2.405  1.00  0.00     0.164 A 
HETATM    7  N   UNL     1      43.382 -17.012   3.308  1.00  0.00    -0.210 NA
HETATM    8  C   UNL     1      42.920 -15.786   3.007  1.00  0.00     0.143 A 
HETATM    9  C   UNL     1      41.540 -16.406  -0.314  1.00  0.00     0.032 A 
HETATM   10  C   UNL     1      41.049 -15.158  -0.705  1.00  0.00     0.002 A 
ENDROOT
BRANCH   8  11
HETATM   11  N   UNL     1      43.061 -14.745   3.963  1.00  0.00    -0.340 N 
HETATM   12  H   UNL     1      43.800 -14.120   3.660  1.00  0.00     0.167 HD
BRANCH  11  13
HETATM   13  C   UNL     1      42.033 -14.055   4.646  1.00  0.00     0.036 A 
HETATM   14  C   UNL     1      42.224 -12.710   4.997  1.00  0.00     0.069 A 
HETATM   15  C   UNL     1      41.265 -12.019   5.745  1.00  0.00     0.104 A 
HETATM   16  C   UNL     1      40.097 -12.664   6.152  1.00  0.00     0.102 A 
HETATM   17  O   UNL     1      41.499 -10.686   5.954  1.00  0.00    -0.348 OA
HETATM   18  O   UNL     1      39.072 -12.031   6.796  1.00  0.00    -0.348 OA
HETATM   19  C   UNL     1      39.895 -14.000   5.815  1.00  0.00     0.042 A 
HETATM   20  C   UNL     1      39.467 -11.526   8.072  1.00  0.00     0.178 C 
HETATM   21  C   UNL     1      40.181 -10.189   7.956  1.00  0.00     0.053 C 
HETATM   22  C   UNL     1      41.562 -10.357   7.342  1.00  0.00     0.178 C 
HETATM   23  C   UNL     1      40.869 -14.695   5.092  1.00  0.00     0.032 A 
ENDBRANCH  11  13
ENDBRANCH   8  11
BRANCH   6  24
HETATM   24  C   UNL     1      43.698 -19.329   2.753  1.00  0.00     0.029 A 
HETATM   25  C   UNL     1      44.292 -19.601   3.985  1.00  0.00     0.131 A 
HETATM   26  N   UNL     1      44.769 -20.813   4.376  1.00  0.00    -0.272 NA
HETATM   27  C   UNL     1      44.654 -21.821   3.488  1.00  0.00     0.116 A 
HETATM   28  C   UNL     1      44.085 -21.676   2.236  1.00  0.00     0.020 A 
HETATM   29  C   UNL     1      43.604 -20.419   1.871  1.00  0.00     0.018 A 
ENDBRANCH   6  24
TORSDOF 3
ENDMDL
MODEL 6
REMARK VINA RESULT:      -8.5      3.608      7.287
REMARK  3 active torsions:
REMARK  status: ('A' for Active; 'I' for Inactive)
REMARK    1  A    between atoms: C_6  and  C_7 
REMARK    2  A    between atoms: C_14  and  N_15 
REMARK    3  A    between atoms: N_15  and  C_16 
ROOT
HETATM    1  C   UNL     1      40.448 -12.310   4.757  1.00  0.00     0.001 A 
HETATM    2  C   UNL     1      41.299 -13.167   4.064  1.00  0.00     0.018 A 
HETATM    3  C   UNL     1      41.021 -13.542   2.724  1.00  0.00     0.039 A 
HETATM    4  C   UNL     1      39.883 -13.030   2.088  1.00  0.00     0.073 A 
HETATM    5  N   UNL     1      39.564 -13.324   0.824  1.00  0.00    -0.228 NA
HETATM    6  C   UNL     1      40.387 -14.144   0.151  1.00  0.00     0.164 A 
HETATM    7  N   UNL     1      41.501 -14.686   0.664  1.00  0.00    -0.210 NA
HETATM    8  C   UNL     1      41.815 -14.395   1.938  1.00  0.00     0.143 A 
HETATM    9  C   UNL     1      39.050 -12.176   2.801  1.00  0.00     0.032 A 
HETATM   10  C   UNL     1      39.318 -11.814   4.124  1.00  0.00     0.002 A 
ENDROOT
BRANCH   8  11
HETATM   11  N   UNL     1      42.972 -14.986   2.514  1.00  0.00    -0.340 N 
HETATM   12  H   UNL     1      43.254 -14.437   3.318  1.00  0.00     0.167 HD
BRANCH  11  13
HETATM   13  C   UNL     1      43.240 -16.362   2.693  1.00  0.00     0.036 A 
HETATM   14  C   UNL     1      42.957 -16.963   3.929  1.00  0.00     0.069 A 
HETATM   15  C   UNL     1      43.285 -18.301   4.171  1.00  0.00     0.104 A 
HETATM   16  C   UNL     1      43.899 -19.061   3.175  1.00  0.00     0.102 A 
HETATM   17  O   UNL     1      42.882 -18.820   5.372  1.00  0.00    -0.348 OA
HETATM   18  O   UNL     1      44.157 -20.397   3.299  1.00  0.00    -0.348 OA
HETATM   19  C   UNL     1      44.189 -18.479   1.945  1.00  0.00     0.042 A 
HETATM   20  C   UNL     1      45.084 -20.672   4.351  1.00  0.00     0.178 C 
HETATM   21  C   UNL     1      44.405 -20.707   5.710  1.00  0.00     0.053 C 
HETATM   22  C   UNL     1      43.977 -19.313   6.144  1.00  0.00     0.178 C 
HETATM   23  C   UNL     1      43.886 -17.134   1.717  1.00  0.00     0.032 A 
ENDBRANCH  11  13
ENDBRANCH   8  11
BRANCH   6  24
HETATM   24  C   UNL     1      40.042 -14.484  -1.234  1.00  0.00     0.029 A 
HETATM   25  C   UNL     1      40.902 -15.221  -2.050  1.00  0.00     0.131 A 
HETATM   26  N   UNL     1      40.653 -15.572  -3.339  1.00  0.00    -0.272 NA
HETATM   27  C   UNL     1      39.477 -15.166  -3.858  1.00  0.00     0.116 A 
HETATM   28  C   UNL     1      38.543 -14.431  -3.151  1.00  0.00     0.020 A 
HETATM   29  C   UNL     1      38.831 -14.091  -1.830  1.00  0.00     0.018 A 
ENDBRANCH   6  24
TORSDOF 3
ENDMDL
MODEL 7
REMARK VINA RESULT:      -8.5      1.549      1.831
REMARK  3 active torsions:
REMARK  status: ('A' for Active; 'I' for Inactive)
REMARK    1  A    between atoms: C_6  and  C_7 
REMARK    2  A    between atoms: C_14  and  N_15 
REMARK    3  A    between atoms: N_15  and  C_16 
ROOT
HETATM    1  C   UNL     1      39.779 -13.601   4.703  1.00  0.00     0.001 A 
HETATM    2  C   UNL     1      39.812 -14.296   3.497  1.00  0.00     0.018 A 
HETATM    3  C   UNL     1      40.625 -15.450   3.343  1.00  0.00     0.039 A 
HETATM    4  C   UNL     1      41.390 -15.902   4.426  1.00  0.00     0.073 A 
HETATM    5  N   UNL     1      42.165 -16.988   4.362  1.00  0.00    -0.228 NA
HETATM    6  C   UNL     1      42.193 -17.664   3.202  1.00  0.00     0.164 A 
HETATM    7  N   UNL     1      41.498 -17.319   2.109  1.00  0.00    -0.210 NA
HETATM    8  C   UNL     1      40.726 -16.221   2.172  1.00  0.00     0.143 A 
HETATM    9  C   UNL     1      41.339 -15.192   5.619  1.00  0.00     0.032 A 
HETATM   10  C   UNL     1      40.547 -14.050   5.768  1.00  0.00     0.002 A 
ENDROOT
BRANCH   8  11
HETATM   11  N   UNL     1      40.008 -15.816   1.015  1.00  0.00    -0.340 N 
HETATM   12  H   UNL     1      39.015 -15.864   1.211  1.00  0.00     0.167 HD
BRANCH  11  13
HETATM   13  C   UNL     1      40.322 -14.759   0.131  1.00  0.00     0.036 A 
HETATM   14  C   UNL     1      39.283 -13.998  -0.426  1.00  0.00     0.069 A 
HETATM   15  C   UNL     1      39.549 -12.998  -1.368  1.00  0.00     0.104 A 
HETATM   16  C   UNL     1      40.861 -12.742  -1.765  1.00  0.00     0.102 A 
HETATM   17  O   UNL     1      38.480 -12.248  -1.779  1.00  0.00    -0.348 OA
HETATM   18  O   UNL     1      41.209 -11.719  -2.601  1.00  0.00    -0.348 OA
HETATM   19  C   UNL     1      41.903 -13.491  -1.225  1.00  0.00     0.042 A 
HETATM   20  C   UNL     1      40.640 -11.868  -3.902  1.00  0.00     0.178 C 
HETATM   21  C   UNL     1      39.202 -11.379  -3.951  1.00  0.00     0.053 C 
HETATM   22  C   UNL     1      38.279 -12.319  -3.192  1.00  0.00     0.178 C 
HETATM   23  C   UNL     1      41.630 -14.509  -0.306  1.00  0.00     0.032 A 
ENDBRANCH  11  13
ENDBRANCH   8  11
BRANCH   6  24
HETATM   24  C   UNL     1      43.049 -18.853   3.115  1.00  0.00     0.029 A 
HETATM   25  C   UNL     1      43.929 -19.206   4.139  1.00  0.00     0.131 A 
HETATM   26  N   UNL     1      44.752 -20.288   4.129  1.00  0.00    -0.272 NA
HETATM   27  C   UNL     1      44.704 -21.072   3.033  1.00  0.00     0.116 A 
HETATM   28  C   UNL     1      43.875 -20.826   1.954  1.00  0.00     0.020 A 
HETATM   29  C   UNL     1      43.043 -19.709   2.001  1.00  0.00     0.018 A 
ENDBRANCH   6  24
TORSDOF 3
ENDMDL
MODEL 8
REMARK VINA RESULT:      -8.3      1.944      3.181
REMARK  3 active torsions:
REMARK  status: ('A' for Active; 'I' for Inactive)
REMARK    1  A    between atoms: C_6  and  C_7 
REMARK    2  A    between atoms: C_14  and  N_15 
REMARK    3  A    between atoms: N_15  and  C_16 
ROOT
HETATM    1  C   UNL     1      37.865 -13.429  -0.387  1.00  0.00     0.001 A 
HETATM    2  C   UNL     1      39.092 -13.820  -0.918  1.00  0.00     0.018 A 
HETATM    3  C   UNL     1      39.985 -14.629  -0.167  1.00  0.00     0.039 A 
HETATM    4  C   UNL     1      39.618 -15.051   1.116  1.00  0.00     0.073 A 
HETATM    5  N   UNL     1      40.397 -15.827   1.875  1.00  0.00    -0.228 NA
HETATM    6  C   UNL     1      41.577 -16.211   1.364  1.00  0.00     0.164 A 
HETATM    7  N   UNL     1      42.022 -15.866   0.146  1.00  0.00    -0.210 NA
HETATM    8  C   UNL     1      41.240 -15.079  -0.611  1.00  0.00     0.143 A 
HETATM    9  C   UNL     1      38.388 -14.648   1.623  1.00  0.00     0.032 A 
HETATM   10  C   UNL     1      37.513 -13.843   0.889  1.00  0.00     0.002 A 
ENDROOT
BRANCH   8  11
HETATM   11  N   UNL     1      41.707 -14.672  -1.890  1.00  0.00    -0.340 N 
HETATM   12  H   UNL     1      41.191 -15.176  -2.603  1.00  0.00     0.167 HD
BRANCH  11  13
HETATM   13  C   UNL     1      42.049 -13.366  -2.309  1.00  0.00     0.036 A 
HETATM   14  C   UNL     1      42.778 -12.536  -1.444  1.00  0.00     0.069 A 
HETATM   15  C   UNL     1      43.063 -11.211  -1.789  1.00  0.00     0.104 A 
HETATM   16  C   UNL     1      42.625 -10.696  -3.010  1.00  0.00     0.102 A 
HETATM   17  O   UNL     1      43.861 -10.513  -0.923  1.00  0.00    -0.348 OA
HETATM   18  O   UNL     1      42.949  -9.448  -3.461  1.00  0.00    -0.348 OA
HETATM   19  C   UNL     1      41.897 -11.506  -3.877  1.00  0.00     0.042 A 
HETATM   20  C   UNL     1      42.428  -8.419  -2.620  1.00  0.00     0.178 C 
HETATM   21  C   UNL     1      43.311  -8.177  -1.407  1.00  0.00     0.053 C 
HETATM   22  C   UNL     1      43.223  -9.336  -0.426  1.00  0.00     0.178 C 
HETATM   23  C   UNL     1      41.589 -12.821  -3.515  1.00  0.00     0.032 A 
ENDBRANCH  11  13
ENDBRANCH   8  11
BRANCH   6  24
HETATM   24  C   UNL     1      42.448 -17.054   2.192  1.00  0.00     0.029 A 
HETATM   25  C   UNL     1      42.772 -16.715   3.506  1.00  0.00     0.131 A 
HETATM   26  N   UNL     1      43.571 -17.443   4.330  1.00  0.00    -0.272 NA
HETATM   27  C   UNL     1      44.087 -18.580   3.821  1.00  0.00     0.116 A 
HETATM   28  C   UNL     1      43.840 -19.021   2.534  1.00  0.00     0.020 A 
HETATM   29  C   UNL     1      43.014 -18.250   1.718  1.00  0.00     0.018 A 
ENDBRANCH   6  24
TORSDOF 3
ENDMDL
MODEL 9
REMARK VINA RESULT:      -8.3      2.783      3.588
REMARK  3 active torsions:
REMARK  status: ('A' for Active; 'I' for Inactive)
REMARK    1  A    between atoms: C_6  and  C_7 
REMARK    2  A    between atoms: C_14  and  N_15 
REMARK    3  A    between atoms: N_15  and  C_16 
ROOT
HETATM    1  C   UNL     1      43.610 -14.143   6.286  1.00  0.00     0.001 A 
HETATM    2  C   UNL     1      43.389 -14.538   4.970  1.00  0.00     0.018 A 
HETATM    3  C   UNL     1      43.579 -15.887   4.572  1.00  0.00     0.039 A 
HETATM    4  C   UNL     1      43.978 -16.835   5.523  1.00  0.00     0.073 A 
HETATM    5  N   UNL     1      44.161 -18.125   5.228  1.00  0.00    -0.228 NA
HETATM    6  C   UNL     1      43.941 -18.510   3.961  1.00  0.00     0.164 A 
HETATM    7  N   UNL     1      43.554 -17.686   2.977  1.00  0.00    -0.210 NA
HETATM    8  C   UNL     1      43.379 -16.387   3.274  1.00  0.00     0.143 A 
HETATM    9  C   UNL     1      44.192 -16.416   6.831  1.00  0.00     0.032 A 
HETATM   10  C   UNL     1      44.016 -15.086   7.220  1.00  0.00     0.002 A 
ENDROOT
BRANCH   8  11
HETATM   11  N   UNL     1      43.004 -15.489   2.238  1.00  0.00    -0.340 N 
HETATM   12  H   UNL     1      43.293 -15.877   1.347  1.00  0.00     0.167 HD
BRANCH  11  13
HETATM   13  C   UNL     1      41.804 -14.751   2.129  1.00  0.00     0.036 A 
HETATM   14  C   UNL     1      41.858 -13.405   1.736  1.00  0.00     0.069 A 
HETATM   15  C   UNL     1      40.701 -12.619   1.697  1.00  0.00     0.104 A 
HETATM   16  C   UNL     1      39.469 -13.172   2.047  1.00  0.00     0.102 A 
HETATM   17  O   UNL     1      40.843 -11.348   1.209  1.00  0.00    -0.348 OA
HETATM   18  O   UNL     1      38.284 -12.500   1.937  1.00  0.00    -0.348 OA
HETATM   19  C   UNL     1      39.399 -14.505   2.443  1.00  0.00     0.042 A 
HETATM   20  C   UNL     1      38.232 -11.356   2.790  1.00  0.00     0.178 C 
HETATM   21  C   UNL     1      38.934 -10.157   2.174  1.00  0.00     0.053 C 
HETATM   22  C   UNL     1      40.442 -10.356   2.155  1.00  0.00     0.178 C 
HETATM   23  C   UNL     1      40.562 -15.277   2.509  1.00  0.00     0.032 A 
ENDBRANCH  11  13
ENDBRANCH   8  11
BRANCH   6  24
HETATM   24  C   UNL     1      44.149 -19.923   3.622  1.00  0.00     0.029 A 
HETATM   25  C   UNL     1      44.627 -20.844   4.554  1.00  0.00     0.131 A 
HETATM   26  N   UNL     1      44.846 -22.164   4.313  1.00  0.00    -0.272 NA
HETATM   27  C   UNL     1      44.577 -22.602   3.066  1.00  0.00     0.116 A 
HETATM   28  C   UNL     1      44.101 -21.786   2.056  1.00  0.00     0.020 A 
HETATM   29  C   UNL     1      43.886 -20.438   2.341  1.00  0.00     0.018 A 
ENDBRANCH   6  24
TORSDOF 3
ENDMDL
MODEL 10
REMARK VINA RESULT:      -8.2      3.369      8.034
REMARK  3 active torsions:
REMARK  status: ('A' for Active; 'I' for Inactive)
REMARK    1  A    between atoms: C_6  and  C_7 
REMARK    2  A    between atoms: C_14  and  N_15 
REMARK    3  A    between atoms: N_15  and  C_16 
ROOT
HETATM    1  C   UNL     1      41.118 -15.504  -2.562  1.00  0.00     0.001 A 
HETATM    2  C   UNL     1      41.289 -16.224  -1.383  1.00  0.00     0.018 A 
HETATM    3  C   UNL     1      40.974 -15.647  -0.125  1.00  0.00     0.039 A 
HETATM    4  C   UNL     1      40.469 -14.342  -0.074  1.00  0.00     0.073 A 
HETATM    5  N   UNL     1      40.134 -13.738   1.070  1.00  0.00    -0.228 NA
HETATM    6  C   UNL     1      40.291 -14.433   2.208  1.00  0.00     0.164 A 
HETATM    7  N   UNL     1      40.762 -15.687   2.270  1.00  0.00    -0.210 NA
HETATM    8  C   UNL     1      41.106 -16.289   1.118  1.00  0.00     0.143 A 
HETATM    9  C   UNL     1      40.307 -13.644  -1.265  1.00  0.00     0.032 A 
HETATM   10  C   UNL     1      40.627 -14.207  -2.502  1.00  0.00     0.002 A 
ENDROOT
BRANCH   8  11
HETATM   11  N   UNL     1      41.641 -17.604   1.163  1.00  0.00    -0.340 N 
HETATM   12  H   UNL     1      41.912 -17.880   0.226  1.00  0.00     0.167 HD
BRANCH  11  13
HETATM   13  C   UNL     1      42.496 -18.155   2.144  1.00  0.00     0.036 A 
HETATM   14  C   UNL     1      43.182 -19.348   1.867  1.00  0.00     0.069 A 
HETATM   15  C   UNL     1      43.972 -19.967   2.841  1.00  0.00     0.104 A 
HETATM   16  C   UNL     1      44.090 -19.399   4.110  1.00  0.00     0.102 A 
HETATM   17  O   UNL     1      44.676 -21.072   2.444  1.00  0.00    -0.348 OA
HETATM   18  O   UNL     1      44.920 -19.887   5.079  1.00  0.00    -0.348 OA
HETATM   19  C   UNL     1      43.413 -18.218   4.402  1.00  0.00     0.042 A 
HETATM   20  C   UNL     1      44.551 -21.204   5.491  1.00  0.00     0.178 C 
HETATM   21  C   UNL     1      45.084 -22.265   4.542  1.00  0.00     0.053 C 
HETATM   22  C   UNL     1      44.347 -22.230   3.213  1.00  0.00     0.178 C 
HETATM   23  C   UNL     1      42.602 -17.618   3.435  1.00  0.00     0.032 A 
ENDBRANCH  11  13
ENDBRANCH   8  11
BRANCH   6  24
HETATM   24  C   UNL     1      39.937 -13.777   3.473  1.00  0.00     0.029 A 
HETATM   25  C   UNL     1      39.327 -12.523   3.509  1.00  0.00     0.131 A 
HETATM   26  N   UNL     1      38.973 -11.855   4.639  1.00  0.00    -0.272 NA
HETATM   27  C   UNL     1      39.243 -12.465   5.811  1.00  0.00     0.116 A 
HETATM   28  C   UNL     1      39.845 -13.707   5.904  1.00  0.00     0.020 A 
HETATM   29  C   UNL     1      40.191 -14.364   4.724  1.00  0.00     0.018 A 
ENDBRANCH   6  24
TORSDOF 3
ENDMDL
