MODEL 1
REMARK VINA RESULT:      -9.0      0.000      0.000
REMARK  8 active torsions:
REMARK  status: ('A' for Active; 'I' for Inactive)
REMARK    1  A    between atoms: C_5  and  S_6 
REMARK    2  A    between atoms: S_6  and  C_7 
REMARK    3  A    between atoms: C_7  and  C_8 
REMARK       I    between atoms: C_8  and  N_9 
REMARK    4  A    between atoms: N_9  and  C_10 
REMARK    5  A    between atoms: C_10  and  C_11 
REMARK    6  A    between atoms: C_11  and  C_12 
REMARK    7  A    between atoms: C_14  and  O_15 
REMARK    8  A    between atoms: C_17  and  O_18 
ROOT
HETATM    1  C   UNL     1      44.395 -15.606   6.999  1.00  0.00     0.185 C 
ENDROOT
BRANCH   1   2
HETATM    2  S   UNL     1      42.794 -16.438   6.789  1.00  0.00    -0.080 SA
BRANCH   2   3
HETATM    3  C   UNL     1      43.307 -18.074   6.542  1.00  0.00     0.197 A 
HETATM    4  N   UNL     1      43.656 -18.672   5.342  1.00  0.00    -0.271 N 
HETATM    5  C   UNL     1      44.075 -19.946   5.723  1.00  0.00     0.165 A 
HETATM    6  C   UNL     1      43.651 -18.245   3.983  1.00  0.00     0.053 A 
HETATM    7  C   UNL     1      44.580 -20.873   4.761  1.00  0.00    -0.013 A 
HETATM    8  N   UNL     1      43.922 -20.100   7.023  1.00  0.00    -0.128 NA
HETATM    9  C   UNL     1      45.073 -22.245   5.150  1.00  0.00     0.052 C 
HETATM   10  C   UNL     1      44.616 -20.491   3.470  1.00  0.00     0.024 A 
HETATM   11  C   UNL     1      44.143 -19.170   3.041  1.00  0.00    -0.008 A 
HETATM   12  C   UNL     1      44.177 -18.834   1.681  1.00  0.00     0.014 A 
HETATM   13  C   UNL     1      43.718 -17.589   1.255  1.00  0.00     0.001 A 
HETATM   14  C   UNL     1      43.221 -16.680   2.184  1.00  0.00     0.002 A 
HETATM   15  C   UNL     1      43.185 -17.002   3.545  1.00  0.00     0.031 A 
HETATM   16  N   UNL     1      43.441 -18.930   7.532  1.00  0.00    -0.122 NA
ENDBRANCH   2   3
ENDBRANCH   1   2
BRANCH   1  17
HETATM   17  C   UNL     1      44.331 -14.213   6.402  1.00  0.00     0.227 C 
HETATM   18  N   UNL     1      44.723 -13.135   7.153  1.00  0.00    -0.360 N 
HETATM   19  H   UNL     1      44.551 -12.262   6.667  1.00  0.00     0.162 HD
HETATM   20  O   UNL     1      43.953 -14.015   5.246  1.00  0.00    -0.273 OA
BRANCH  18  21
HETATM   21  C   UNL     1      44.857 -13.088   8.599  1.00  0.00     0.127 C 
BRANCH  21  22
HETATM   22  C   UNL     1      45.341 -11.722   9.088  1.00  0.00     0.058 C 
BRANCH  22  23
HETATM   23  C   UNL     1      44.303 -11.054   9.957  1.00  0.00    -0.054 A 
HETATM   24  C   UNL     1      43.023 -10.784   9.448  1.00  0.00     0.046 A 
HETATM   25  C   UNL     1      42.067 -10.119  10.225  1.00  0.00     0.102 A 
HETATM   26  C   UNL     1      42.382  -9.738  11.543  1.00  0.00     0.101 A 
HETATM   27  C   UNL     1      43.654 -10.016  12.053  1.00  0.00     0.040 A 
HETATM   28  C   UNL     1      44.610 -10.664  11.263  1.00  0.00     0.010 A 
BRANCH  25  29
HETATM   29  O   UNL     1      40.801  -9.811   9.790  1.00  0.00    -0.353 OA
HETATM   30  C   UNL     1      39.917 -10.896   9.536  1.00  0.00     0.210 C 
ENDBRANCH  25  29
BRANCH  26  31
HETATM   31  O   UNL     1      41.389  -9.097  12.241  1.00  0.00    -0.353 OA
HETATM   32  C   UNL     1      41.703  -7.848  12.838  1.00  0.00     0.210 C 
ENDBRANCH  26  31
ENDBRANCH  22  23
ENDBRANCH  21  22
ENDBRANCH  18  21
ENDBRANCH   1  17
TORSDOF 8
ENDMDL
MODEL 2
REMARK VINA RESULT:      -8.9      1.609      2.305
REMARK  8 active torsions:
REMARK  status: ('A' for Active; 'I' for Inactive)
REMARK    1  A    between atoms: C_5  and  S_6 
REMARK    2  A    between atoms: S_6  and  C_7 
REMARK    3  A    between atoms: C_7  and  C_8 
REMARK       I    between atoms: C_8  and  N_9 
REMARK    4  A    between atoms: N_9  and  C_10 
REMARK    5  A    between atoms: C_10  and  C_11 
REMARK    6  A    between atoms: C_11  and  C_12 
REMARK    7  A    between atoms: C_14  and  O_15 
REMARK    8  A    between atoms: C_17  and  O_18 
ROOT
HETATM    1  C   UNL     1      41.983 -13.964   4.685  1.00  0.00     0.185 C 
ENDROOT
BRANCH   1   2
HETATM    2  S   UNL     1      41.452 -15.584   4.060  1.00  0.00    -0.080 SA
BRANCH   2   3
HETATM    3  C   UNL     1      41.991 -16.620   5.339  1.00  0.00     0.197 A 
HETATM    4  N   UNL     1      42.737 -17.782   5.221  1.00  0.00    -0.271 N 
HETATM    5  C   UNL     1      42.970 -18.155   6.544  1.00  0.00     0.165 A 
HETATM    6  C   UNL     1      43.226 -18.537   4.117  1.00  0.00     0.053 A 
HETATM    7  C   UNL     1      43.770 -19.296   6.856  1.00  0.00    -0.013 A 
HETATM    8  N   UNL     1      42.359 -17.321   7.361  1.00  0.00    -0.128 NA
HETATM    9  C   UNL     1      44.068 -19.703   8.278  1.00  0.00     0.052 C 
HETATM   10  C   UNL     1      44.272 -20.018   5.836  1.00  0.00     0.024 A 
HETATM   11  C   UNL     1      44.007 -19.666   4.437  1.00  0.00    -0.008 A 
HETATM   12  C   UNL     1      44.532 -20.467   3.413  1.00  0.00     0.014 A 
HETATM   13  C   UNL     1      44.277 -20.156   2.079  1.00  0.00     0.001 A 
HETATM   14  C   UNL     1      43.496 -19.048   1.764  1.00  0.00     0.002 A 
HETATM   15  C   UNL     1      42.969 -18.239   2.776  1.00  0.00     0.031 A 
HETATM   16  N   UNL     1      41.747 -16.364   6.606  1.00  0.00    -0.122 NA
ENDBRANCH   2   3
ENDBRANCH   1   2
BRANCH   1  17
HETATM   17  C   UNL     1      43.475 -13.794   4.464  1.00  0.00     0.227 C 
HETATM   18  N   UNL     1      44.332 -13.878   5.531  1.00  0.00    -0.360 N 
HETATM   19  H   UNL     1      45.285 -13.663   5.259  1.00  0.00     0.162 HD
HETATM   20  O   UNL     1      43.951 -13.601   3.344  1.00  0.00    -0.273 OA
BRANCH  18  21
HETATM   21  C   UNL     1      43.984 -13.745   6.936  1.00  0.00     0.127 C 
BRANCH  21  22
HETATM   22  C   UNL     1      45.175 -13.296   7.784  1.00  0.00     0.058 C 
BRANCH  22  23
HETATM   23  C   UNL     1      44.754 -12.293   8.831  1.00  0.00    -0.054 A 
HETATM   24  C   UNL     1      43.551 -11.584   8.685  1.00  0.00     0.046 A 
HETATM   25  C   UNL     1      43.171 -10.614   9.621  1.00  0.00     0.102 A 
HETATM   26  C   UNL     1      43.992 -10.364  10.738  1.00  0.00     0.101 A 
HETATM   27  C   UNL     1      45.185 -11.079  10.887  1.00  0.00     0.040 A 
HETATM   28  C   UNL     1      45.566 -12.032   9.937  1.00  0.00     0.010 A 
BRANCH  25  29
HETATM   29  O   UNL     1      42.017  -9.874   9.538  1.00  0.00    -0.353 OA
HETATM   30  C   UNL     1      40.844 -10.544   9.093  1.00  0.00     0.210 C 
ENDBRANCH  25  29
BRANCH  26  31
HETATM   31  O   UNL     1      43.547  -9.405  11.612  1.00  0.00    -0.353 OA
HETATM   32  C   UNL     1      43.341  -9.789  12.963  1.00  0.00     0.210 C 
ENDBRANCH  26  31
ENDBRANCH  22  23
ENDBRANCH  21  22
ENDBRANCH  18  21
ENDBRANCH   1  17
TORSDOF 8
ENDMDL
MODEL 3
REMARK VINA RESULT:      -8.8      3.616      6.382
REMARK  8 active torsions:
REMARK  status: ('A' for Active; 'I' for Inactive)
REMARK    1  A    between atoms: C_5  and  S_6 
REMARK    2  A    between atoms: S_6  and  C_7 
REMARK    3  A    between atoms: C_7  and  C_8 
REMARK       I    between atoms: C_8  and  N_9 
REMARK    4  A    between atoms: N_9  and  C_10 
REMARK    5  A    between atoms: C_10  and  C_11 
REMARK    6  A    between atoms: C_11  and  C_12 
REMARK    7  A    between atoms: C_14  and  O_15 
REMARK    8  A    between atoms: C_17  and  O_18 
ROOT
HETATM    1  C   UNL     1      44.371 -15.766   6.828  1.00  0.00     0.185 C 
ENDROOT
BRANCH   1   2
HETATM    2  S   UNL     1      42.812 -16.686   6.989  1.00  0.00    -0.080 SA
BRANCH   2   3
HETATM    3  C   UNL     1      43.350 -18.298   6.657  1.00  0.00     0.197 A 
HETATM    4  N   UNL     1      43.676 -18.837   5.423  1.00  0.00    -0.271 N 
HETATM    5  C   UNL     1      44.132 -20.117   5.736  1.00  0.00     0.165 A 
HETATM    6  C   UNL     1      43.624 -18.352   4.084  1.00  0.00     0.053 A 
HETATM    7  C   UNL     1      44.627 -20.991   4.721  1.00  0.00    -0.013 A 
HETATM    8  N   UNL     1      44.020 -20.329   7.032  1.00  0.00    -0.128 NA
HETATM    9  C   UNL     1      45.158 -22.367   5.035  1.00  0.00     0.052 C 
HETATM   10  C   UNL     1      44.617 -20.553   3.447  1.00  0.00     0.024 A 
HETATM   11  C   UNL     1      44.106 -19.225   3.089  1.00  0.00    -0.008 A 
HETATM   12  C   UNL     1      44.095 -18.830   1.745  1.00  0.00     0.014 A 
HETATM   13  C   UNL     1      43.598 -17.579   1.386  1.00  0.00     0.001 A 
HETATM   14  C   UNL     1      43.111 -16.720   2.368  1.00  0.00     0.002 A 
HETATM   15  C   UNL     1      43.120 -17.102   3.714  1.00  0.00     0.031 A 
HETATM   16  N   UNL     1      43.529 -19.193   7.604  1.00  0.00    -0.122 NA
ENDBRANCH   2   3
ENDBRANCH   1   2
BRANCH   1  17
HETATM   17  C   UNL     1      44.163 -14.327   7.265  1.00  0.00     0.227 C 
HETATM   18  N   UNL     1      43.456 -13.471   6.461  1.00  0.00    -0.360 N 
HETATM   19  H   UNL     1      43.464 -12.526   6.829  1.00  0.00     0.162 HD
HETATM   20  O   UNL     1      44.595 -13.902   8.337  1.00  0.00    -0.273 OA
BRANCH  18  21
HETATM   21  C   UNL     1      43.173 -13.643   5.046  1.00  0.00     0.127 C 
BRANCH  21  22
HETATM   22  C   UNL     1      41.675 -13.781   4.771  1.00  0.00     0.058 C 
BRANCH  22  23
HETATM   23  C   UNL     1      41.376 -13.657   3.297  1.00  0.00    -0.054 A 
HETATM   24  C   UNL     1      40.189 -14.189   2.770  1.00  0.00     0.046 A 
HETATM   25  C   UNL     1      39.921 -14.127   1.397  1.00  0.00     0.102 A 
HETATM   26  C   UNL     1      40.841 -13.500   0.535  1.00  0.00     0.101 A 
HETATM   27  C   UNL     1      42.019 -12.961   1.063  1.00  0.00     0.040 A 
HETATM   28  C   UNL     1      42.287 -13.044   2.433  1.00  0.00     0.010 A 
BRANCH  25  29
HETATM   29  O   UNL     1      38.789 -14.636   0.810  1.00  0.00    -0.353 OA
HETATM   30  C   UNL     1      37.591 -13.882   0.943  1.00  0.00     0.210 C 
ENDBRANCH  25  29
BRANCH  26  31
HETATM   31  O   UNL     1      40.503 -13.474  -0.794  1.00  0.00    -0.353 OA
HETATM   32  C   UNL     1      41.035 -12.425  -1.590  1.00  0.00     0.210 C 
ENDBRANCH  26  31
ENDBRANCH  22  23
ENDBRANCH  21  22
ENDBRANCH  18  21
ENDBRANCH   1  17
TORSDOF 8
ENDMDL
MODEL 4
REMARK VINA RESULT:      -8.6      3.562      5.888
REMARK  8 active torsions:
REMARK  status: ('A' for Active; 'I' for Inactive)
REMARK    1  A    between atoms: C_5  and  S_6 
REMARK    2  A    between atoms: S_6  and  C_7 
REMARK    3  A    between atoms: C_7  and  C_8 
REMARK       I    between atoms: C_8  and  N_9 
REMARK    4  A    between atoms: N_9  and  C_10 
REMARK    5  A    between atoms: C_10  and  C_11 
REMARK    6  A    between atoms: C_11  and  C_12 
REMARK    7  A    between atoms: C_14  and  O_15 
REMARK    8  A    between atoms: C_17  and  O_18 
ROOT
HETATM    1  C   UNL     1      39.377 -15.095   2.224  1.00  0.00     0.185 C 
ENDROOT
BRANCH   1   2
HETATM    2  S   UNL     1      40.527 -16.496   2.107  1.00  0.00    -0.080 SA
BRANCH   2   3
HETATM    3  C   UNL     1      41.057 -16.620   3.752  1.00  0.00     0.197 A 
HETATM    4  N   UNL     1      42.043 -17.452   4.256  1.00  0.00    -0.271 N 
HETATM    5  C   UNL     1      42.129 -17.081   5.597  1.00  0.00     0.165 A 
HETATM    6  C   UNL     1      42.859 -18.475   3.693  1.00  0.00     0.053 A 
HETATM    7  C   UNL     1      43.092 -17.679   6.466  1.00  0.00    -0.013 A 
HETATM    8  N   UNL     1      41.227 -16.159   5.867  1.00  0.00    -0.128 NA
HETATM    9  C   UNL     1      43.231 -17.272   7.912  1.00  0.00     0.052 C 
HETATM   10  C   UNL     1      43.899 -18.631   5.959  1.00  0.00     0.024 A 
HETATM   11  C   UNL     1      43.799 -19.065   4.561  1.00  0.00    -0.008 A 
HETATM   12  C   UNL     1      44.646 -20.078   4.092  1.00  0.00     0.014 A 
HETATM   13  C   UNL     1      44.555 -20.513   2.772  1.00  0.00     0.001 A 
HETATM   14  C   UNL     1      43.617 -19.939   1.918  1.00  0.00     0.002 A 
HETATM   15  C   UNL     1      42.769 -18.924   2.373  1.00  0.00     0.031 A 
HETATM   16  N   UNL     1      40.557 -15.874   4.713  1.00  0.00    -0.122 NA
ENDBRANCH   2   3
ENDBRANCH   1   2
BRANCH   1  17
HETATM   17  C   UNL     1      39.242 -14.428   0.868  1.00  0.00     0.227 C 
HETATM   18  N   UNL     1      40.369 -14.103   0.158  1.00  0.00    -0.360 N 
HETATM   19  H   UNL     1      40.140 -13.591  -0.687  1.00  0.00     0.162 HD
HETATM   20  O   UNL     1      38.143 -14.185   0.366  1.00  0.00    -0.273 OA
BRANCH  18  21
HETATM   21  C   UNL     1      41.718 -13.971   0.684  1.00  0.00     0.127 C 
BRANCH  21  22
HETATM   22  C   UNL     1      41.893 -12.692   1.504  1.00  0.00     0.058 C 
BRANCH  22  23
HETATM   23  C   UNL     1      42.351 -13.003   2.909  1.00  0.00    -0.054 A 
HETATM   24  C   UNL     1      41.726 -12.390   4.007  1.00  0.00     0.046 A 
HETATM   25  C   UNL     1      42.172 -12.629   5.312  1.00  0.00     0.102 A 
HETATM   26  C   UNL     1      43.244 -13.516   5.531  1.00  0.00     0.101 A 
HETATM   27  C   UNL     1      43.859 -14.133   4.437  1.00  0.00     0.040 A 
HETATM   28  C   UNL     1      43.419 -13.874   3.135  1.00  0.00     0.010 A 
BRANCH  25  29
HETATM   29  O   UNL     1      41.619 -12.056   6.431  1.00  0.00    -0.353 OA
HETATM   30  C   UNL     1      41.361 -10.659   6.388  1.00  0.00     0.210 C 
ENDBRANCH  25  29
BRANCH  26  31
HETATM   31  O   UNL     1      43.616 -13.701   6.838  1.00  0.00    -0.353 OA
HETATM   32  C   UNL     1      44.985 -13.970   7.102  1.00  0.00     0.210 C 
ENDBRANCH  26  31
ENDBRANCH  22  23
ENDBRANCH  21  22
ENDBRANCH  18  21
ENDBRANCH   1  17
TORSDOF 8
ENDMDL
MODEL 5
REMARK VINA RESULT:      -8.5      1.584      2.383
REMARK  8 active torsions:
REMARK  status: ('A' for Active; 'I' for Inactive)
REMARK    1  A    between atoms: C_5  and  S_6 
REMARK    2  A    between atoms: S_6  and  C_7 
REMARK    3  A    between atoms: C_7  and  C_8 
REMARK       I    between atoms: C_8  and  N_9 
REMARK    4  A    between atoms: N_9  and  C_10 
REMARK    5  A    between atoms: C_10  and  C_11 
REMARK    6  A    between atoms: C_11  and  C_12 
REMARK    7  A    between atoms: C_14  and  O_15 
REMARK    8  A    between atoms: C_17  and  O_18 
ROOT
HETATM    1  C   UNL     1      43.996 -13.418   7.403  1.00  0.00     0.185 C 
ENDROOT
BRANCH   1   2
HETATM    2  S   UNL     1      43.561 -14.229   5.835  1.00  0.00    -0.080 SA
BRANCH   2   3
HETATM    3  C   UNL     1      43.520 -15.888   6.328  1.00  0.00     0.197 A 
HETATM    4  N   UNL     1      43.597 -17.008   5.515  1.00  0.00    -0.271 N 
HETATM    5  C   UNL     1      43.616 -18.068   6.421  1.00  0.00     0.165 A 
HETATM    6  C   UNL     1      43.653 -17.207   4.105  1.00  0.00     0.053 A 
HETATM    7  C   UNL     1      43.750 -19.416   5.971  1.00  0.00    -0.013 A 
HETATM    8  N   UNL     1      43.494 -17.611   7.650  1.00  0.00    -0.128 NA
HETATM    9  C   UNL     1      43.808 -20.580   6.930  1.00  0.00     0.052 C 
HETATM   10  C   UNL     1      43.833 -19.639   4.645  1.00  0.00     0.024 A 
HETATM   11  C   UNL     1      43.776 -18.542   3.673  1.00  0.00    -0.008 A 
HETATM   12  C   UNL     1      43.840 -18.831   2.303  1.00  0.00     0.014 A 
HETATM   13  C   UNL     1      43.772 -17.803   1.365  1.00  0.00     0.001 A 
HETATM   14  C   UNL     1      43.638 -16.485   1.793  1.00  0.00     0.002 A 
HETATM   15  C   UNL     1      43.577 -16.183   3.157  1.00  0.00     0.031 A 
HETATM   16  N   UNL     1      43.432 -16.249   7.590  1.00  0.00    -0.122 NA
ENDBRANCH   2   3
ENDBRANCH   1   2
BRANCH   1  17
HETATM   17  C   UNL     1      45.487 -13.141   7.439  1.00  0.00     0.227 C 
HETATM   18  N   UNL     1      46.006 -12.359   8.439  1.00  0.00    -0.360 N 
HETATM   19  H   UNL     1      46.995 -12.186   8.298  1.00  0.00     0.162 HD
HETATM   20  O   UNL     1      46.260 -13.616   6.606  1.00  0.00    -0.273 OA
BRANCH  18  21
HETATM   21  C   UNL     1      45.273 -11.435   9.288  1.00  0.00     0.127 C 
BRANCH  21  22
HETATM   22  C   UNL     1      44.750 -12.111  10.556  1.00  0.00     0.058 C 
BRANCH  22  23
HETATM   23  C   UNL     1      43.452 -11.488  11.012  1.00  0.00    -0.054 A 
HETATM   24  C   UNL     1      43.162 -11.383  12.381  1.00  0.00     0.046 A 
HETATM   25  C   UNL     1      41.941 -10.854  12.818  1.00  0.00     0.102 A 
HETATM   26  C   UNL     1      41.001 -10.398  11.873  1.00  0.00     0.101 A 
HETATM   27  C   UNL     1      41.296 -10.494  10.509  1.00  0.00     0.040 A 
HETATM   28  C   UNL     1      42.511 -11.041  10.082  1.00  0.00     0.010 A 
BRANCH  25  29
HETATM   29  O   UNL     1      41.584 -10.732  14.138  1.00  0.00    -0.353 OA
HETATM   30  C   UNL     1      42.334  -9.824  14.935  1.00  0.00     0.210 C 
ENDBRANCH  25  29
BRANCH  26  31
HETATM   31  O   UNL     1      39.833  -9.888  12.381  1.00  0.00    -0.353 OA
HETATM   32  C   UNL     1      39.639  -8.483  12.305  1.00  0.00     0.210 C 
ENDBRANCH  26  31
ENDBRANCH  22  23
ENDBRANCH  21  22
ENDBRANCH  18  21
ENDBRANCH   1  17
TORSDOF 8
ENDMDL
MODEL 6
REMARK VINA RESULT:      -8.5      5.382      8.797
REMARK  8 active torsions:
REMARK  status: ('A' for Active; 'I' for Inactive)
REMARK    1  A    between atoms: C_5  and  S_6 
REMARK    2  A    between atoms: S_6  and  C_7 
REMARK    3  A    between atoms: C_7  and  C_8 
REMARK       I    between atoms: C_8  and  N_9 
REMARK    4  A    between atoms: N_9  and  C_10 
REMARK    5  A    between atoms: C_10  and  C_11 
REMARK    6  A    between atoms: C_11  and  C_12 
REMARK    7  A    between atoms: C_14  and  O_15 
REMARK    8  A    between atoms: C_17  and  O_18 
ROOT
HETATM    1  C   UNL     1      42.802 -15.022   2.627  1.00  0.00     0.185 C 
ENDROOT
BRANCH   1   2
HETATM    2  S   UNL     1      41.306 -15.770   3.337  1.00  0.00    -0.080 SA
BRANCH   2   3
HETATM    3  C   UNL     1      41.938 -16.425   4.811  1.00  0.00     0.197 A 
HETATM    4  N   UNL     1      42.741 -17.544   4.956  1.00  0.00    -0.271 N 
HETATM    5  C   UNL     1      43.033 -17.561   6.320  1.00  0.00     0.165 A 
HETATM    6  C   UNL     1      43.237 -18.531   4.057  1.00  0.00     0.053 A 
HETATM    7  C   UNL     1      43.901 -18.550   6.873  1.00  0.00    -0.013 A 
HETATM    8  N   UNL     1      42.403 -16.576   6.927  1.00  0.00    -0.128 NA
HETATM    9  C   UNL     1      44.262 -18.572   8.338  1.00  0.00     0.052 C 
HETATM   10  C   UNL     1      44.411 -19.483   6.045  1.00  0.00     0.024 A 
HETATM   11  C   UNL     1      44.085 -19.508   4.615  1.00  0.00    -0.008 A 
HETATM   12  C   UNL     1      44.622 -20.516   3.804  1.00  0.00     0.014 A 
HETATM   13  C   UNL     1      44.311 -20.563   2.446  1.00  0.00     0.001 A 
HETATM   14  C   UNL     1      43.463 -19.606   1.897  1.00  0.00     0.002 A 
HETATM   15  C   UNL     1      42.924 -18.592   2.696  1.00  0.00     0.031 A 
HETATM   16  N   UNL     1      41.718 -15.868   5.983  1.00  0.00    -0.122 NA
ENDBRANCH   2   3
ENDBRANCH   1   2
BRANCH   1  17
HETATM   17  C   UNL     1      43.105 -13.714   3.332  1.00  0.00     0.227 C 
HETATM   18  N   UNL     1      42.309 -12.621   3.104  1.00  0.00    -0.360 N 
HETATM   19  H   UNL     1      42.670 -11.796   3.570  1.00  0.00     0.162 HD
HETATM   20  O   UNL     1      44.039 -13.601   4.128  1.00  0.00    -0.273 OA
BRANCH  18  21
HETATM   21  C   UNL     1      41.407 -12.424   1.982  1.00  0.00     0.127 C 
BRANCH  21  22
HETATM   22  C   UNL     1      42.143 -11.947   0.729  1.00  0.00     0.058 C 
BRANCH  22  23
HETATM   23  C   UNL     1      41.744 -12.757  -0.481  1.00  0.00    -0.054 A 
HETATM   24  C   UNL     1      41.956 -12.249  -1.772  1.00  0.00     0.046 A 
HETATM   25  C   UNL     1      41.544 -12.966  -2.902  1.00  0.00     0.102 A 
HETATM   26  C   UNL     1      40.935 -14.225  -2.745  1.00  0.00     0.101 A 
HETATM   27  C   UNL     1      40.733 -14.735  -1.458  1.00  0.00     0.040 A 
HETATM   28  C   UNL     1      41.130 -14.003  -0.334  1.00  0.00     0.010 A 
BRANCH  25  29
HETATM   29  O   UNL     1      41.707 -12.527  -4.194  1.00  0.00    -0.353 OA
HETATM   30  C   UNL     1      42.286 -11.241  -4.376  1.00  0.00     0.210 C 
ENDBRANCH  25  29
BRANCH  26  31
HETATM   31  O   UNL     1      40.568 -14.867  -3.901  1.00  0.00    -0.353 OA
HETATM   32  C   UNL     1      39.535 -15.838  -3.816  1.00  0.00     0.210 C 
ENDBRANCH  26  31
ENDBRANCH  22  23
ENDBRANCH  21  22
ENDBRANCH  18  21
ENDBRANCH   1  17
TORSDOF 8
ENDMDL
MODEL 7
REMARK VINA RESULT:      -8.5      6.189      9.246
REMARK  8 active torsions:
REMARK  status: ('A' for Active; 'I' for Inactive)
REMARK    1  A    between atoms: C_5  and  S_6 
REMARK    2  A    between atoms: S_6  and  C_7 
REMARK    3  A    between atoms: C_7  and  C_8 
REMARK       I    between atoms: C_8  and  N_9 
REMARK    4  A    between atoms: N_9  and  C_10 
REMARK    5  A    between atoms: C_10  and  C_11 
REMARK    6  A    between atoms: C_11  and  C_12 
REMARK    7  A    between atoms: C_14  and  O_15 
REMARK    8  A    between atoms: C_17  and  O_18 
ROOT
HETATM    1  C   UNL     1      41.473 -15.475   1.563  1.00  0.00     0.185 C 
ENDROOT
BRANCH   1   2
HETATM    2  S   UNL     1      42.884 -16.613   1.443  1.00  0.00    -0.080 SA
BRANCH   2   3
HETATM    3  C   UNL     1      43.248 -16.859   3.118  1.00  0.00     0.197 A 
HETATM    4  N   UNL     1      43.680 -18.029   3.721  1.00  0.00    -0.271 N 
HETATM    5  C   UNL     1      43.911 -17.649   5.042  1.00  0.00     0.165 A 
HETATM    6  C   UNL     1      43.892 -19.361   3.261  1.00  0.00     0.053 A 
HETATM    7  C   UNL     1      44.432 -18.578   5.994  1.00  0.00    -0.013 A 
HETATM    8  N   UNL     1      43.580 -16.385   5.211  1.00  0.00    -0.128 NA
HETATM    9  C   UNL     1      44.724 -18.185   7.421  1.00  0.00     0.052 C 
HETATM   10  C   UNL     1      44.670 -19.839   5.586  1.00  0.00     0.024 A 
HETATM   11  C   UNL     1      44.397 -20.271   4.211  1.00  0.00    -0.008 A 
HETATM   12  C   UNL     1      44.639 -21.602   3.845  1.00  0.00     0.014 A 
HETATM   13  C   UNL     1      44.371 -22.033   2.548  1.00  0.00     0.001 A 
HETATM   14  C   UNL     1      43.860 -21.136   1.613  1.00  0.00     0.002 A 
HETATM   15  C   UNL     1      43.618 -19.804   1.964  1.00  0.00     0.031 A 
HETATM   16  N   UNL     1      43.164 -15.894   4.008  1.00  0.00    -0.122 NA
ENDBRANCH   2   3
ENDBRANCH   1   2
BRANCH   1  17
HETATM   17  C   UNL     1      40.194 -16.266   1.769  1.00  0.00     0.227 C 
HETATM   18  N   UNL     1      38.988 -15.613   1.782  1.00  0.00    -0.360 N 
HETATM   19  H   UNL     1      38.228 -16.243   2.011  1.00  0.00     0.162 HD
HETATM   20  O   UNL     1      40.198 -17.490   1.904  1.00  0.00    -0.273 OA
BRANCH  18  21
HETATM   21  C   UNL     1      38.774 -14.191   1.994  1.00  0.00     0.127 C 
BRANCH  21  22
HETATM   22  C   UNL     1      37.792 -13.600   0.981  1.00  0.00     0.058 C 
BRANCH  22  23
HETATM   23  C   UNL     1      38.483 -13.262  -0.318  1.00  0.00    -0.054 A 
HETATM   24  C   UNL     1      38.210 -14.005  -1.477  1.00  0.00     0.046 A 
HETATM   25  C   UNL     1      38.880 -13.737  -2.676  1.00  0.00     0.102 A 
HETATM   26  C   UNL     1      39.821 -12.692  -2.730  1.00  0.00     0.101 A 
HETATM   27  C   UNL     1      40.085 -11.945  -1.577  1.00  0.00     0.040 A 
HETATM   28  C   UNL     1      39.424 -12.232  -0.378  1.00  0.00     0.010 A 
BRANCH  25  29
HETATM   29  O   UNL     1      38.674 -14.430  -3.845  1.00  0.00    -0.353 OA
HETATM   30  C   UNL     1      39.109 -15.782  -3.886  1.00  0.00     0.210 C 
ENDBRANCH  25  29
BRANCH  26  31
HETATM   31  O   UNL     1      40.430 -12.488  -3.943  1.00  0.00    -0.353 OA
HETATM   32  C   UNL     1      41.774 -12.030  -3.938  1.00  0.00     0.210 C 
ENDBRANCH  26  31
ENDBRANCH  22  23
ENDBRANCH  21  22
ENDBRANCH  18  21
ENDBRANCH   1  17
TORSDOF 8
ENDMDL
MODEL 8
REMARK VINA RESULT:      -8.5      5.003      8.447
REMARK  8 active torsions:
REMARK  status: ('A' for Active; 'I' for Inactive)
REMARK    1  A    between atoms: C_5  and  S_6 
REMARK    2  A    between atoms: S_6  and  C_7 
REMARK    3  A    between atoms: C_7  and  C_8 
REMARK       I    between atoms: C_8  and  N_9 
REMARK    4  A    between atoms: N_9  and  C_10 
REMARK    5  A    between atoms: C_10  and  C_11 
REMARK    6  A    between atoms: C_11  and  C_12 
REMARK    7  A    between atoms: C_14  and  O_15 
REMARK    8  A    between atoms: C_17  and  O_18 
ROOT
HETATM    1  C   UNL     1      41.339 -13.487   3.994  1.00  0.00     0.185 C 
ENDROOT
BRANCH   1   2
HETATM    2  S   UNL     1      43.025 -14.056   3.626  1.00  0.00    -0.080 SA
BRANCH   2   3
HETATM    3  C   UNL     1      43.301 -15.133   4.954  1.00  0.00     0.197 A 
HETATM    4  N   UNL     1      43.534 -16.498   4.894  1.00  0.00    -0.271 N 
HETATM    5  C   UNL     1      43.783 -16.844   6.221  1.00  0.00     0.165 A 
HETATM    6  C   UNL     1      43.555 -17.454   3.838  1.00  0.00     0.053 A 
HETATM    7  C   UNL     1      44.131 -18.182   6.579  1.00  0.00    -0.013 A 
HETATM    8  N   UNL     1      43.643 -15.788   6.996  1.00  0.00    -0.128 NA
HETATM    9  C   UNL     1      44.440 -18.578   8.002  1.00  0.00     0.052 C 
HETATM   10  C   UNL     1      44.187 -19.107   5.601  1.00  0.00     0.024 A 
HETATM   11  C   UNL     1      43.890 -18.773   4.204  1.00  0.00    -0.008 A 
HETATM   12  C   UNL     1      43.937 -19.779   3.230  1.00  0.00     0.014 A 
HETATM   13  C   UNL     1      43.643 -19.482   1.901  1.00  0.00     0.001 A 
HETATM   14  C   UNL     1      43.300 -18.181   1.541  1.00  0.00     0.002 A 
HETATM   15  C   UNL     1      43.253 -17.167   2.504  1.00  0.00     0.031 A 
HETATM   16  N   UNL     1      43.340 -14.720   6.203  1.00  0.00    -0.122 NA
ENDBRANCH   2   3
ENDBRANCH   1   2
BRANCH   1  17
HETATM   17  C   UNL     1      40.426 -14.683   4.192  1.00  0.00     0.227 C 
HETATM   18  N   UNL     1      39.907 -15.327   3.099  1.00  0.00    -0.360 N 
HETATM   19  H   UNL     1      39.251 -16.051   3.373  1.00  0.00     0.162 HD
HETATM   20  O   UNL     1      40.149 -15.114   5.312  1.00  0.00    -0.273 OA
BRANCH  18  21
HETATM   21  C   UNL     1      39.808 -14.802   1.748  1.00  0.00     0.127 C 
BRANCH  21  22
HETATM   22  C   UNL     1      40.578 -15.656   0.740  1.00  0.00     0.058 C 
BRANCH  22  23
HETATM   23  C   UNL     1      41.153 -14.808  -0.369  1.00  0.00    -0.054 A 
HETATM   24  C   UNL     1      41.854 -13.630  -0.066  1.00  0.00     0.046 A 
HETATM   25  C   UNL     1      42.349 -12.807  -1.085  1.00  0.00     0.102 A 
HETATM   26  C   UNL     1      42.166 -13.177  -2.431  1.00  0.00     0.101 A 
HETATM   27  C   UNL     1      41.477 -14.357  -2.731  1.00  0.00     0.040 A 
HETATM   28  C   UNL     1      40.969 -15.164  -1.707  1.00  0.00     0.010 A 
BRANCH  25  29
HETATM   29  O   UNL     1      43.032 -11.636  -0.864  1.00  0.00    -0.353 OA
HETATM   30  C   UNL     1      42.365 -10.623  -0.120  1.00  0.00     0.210 C 
ENDBRANCH  25  29
BRANCH  26  31
HETATM   31  O   UNL     1      42.686 -12.322  -3.368  1.00  0.00    -0.353 OA
HETATM   32  C   UNL     1      41.782 -11.479  -4.067  1.00  0.00     0.210 C 
ENDBRANCH  26  31
ENDBRANCH  22  23
ENDBRANCH  21  22
ENDBRANCH  18  21
ENDBRANCH   1  17
TORSDOF 8
ENDMDL
MODEL 9
REMARK VINA RESULT:      -8.4      6.194     10.146
REMARK  8 active torsions:
REMARK  status: ('A' for Active; 'I' for Inactive)
REMARK    1  A    between atoms: C_5  and  S_6 
REMARK    2  A    between atoms: S_6  and  C_7 
REMARK    3  A    between atoms: C_7  and  C_8 
REMARK       I    between atoms: C_8  and  N_9 
REMARK    4  A    between atoms: N_9  and  C_10 
REMARK    5  A    between atoms: C_10  and  C_11 
REMARK    6  A    between atoms: C_11  and  C_12 
REMARK    7  A    between atoms: C_14  and  O_15 
REMARK    8  A    between atoms: C_17  and  O_18 
ROOT
HETATM    1  C   UNL     1      42.319 -15.555   1.441  1.00  0.00     0.185 C 
ENDROOT
BRANCH   1   2
HETATM    2  S   UNL     1      43.399 -17.013   1.534  1.00  0.00    -0.080 SA
BRANCH   2   3
HETATM    3  C   UNL     1      43.489 -17.243   3.248  1.00  0.00     0.197 A 
HETATM    4  N   UNL     1      43.794 -18.413   3.923  1.00  0.00    -0.271 N 
HETATM    5  C   UNL     1      43.823 -18.020   5.261  1.00  0.00     0.165 A 
HETATM    6  C   UNL     1      44.045 -19.755   3.517  1.00  0.00     0.053 A 
HETATM    7  C   UNL     1      44.166 -18.946   6.293  1.00  0.00    -0.013 A 
HETATM    8  N   UNL     1      43.498 -16.747   5.362  1.00  0.00    -0.128 NA
HETATM    9  C   UNL     1      44.238 -18.540   7.744  1.00  0.00     0.052 C 
HETATM   10  C   UNL     1      44.436 -20.217   5.940  1.00  0.00     0.024 A 
HETATM   11  C   UNL     1      44.373 -20.662   4.544  1.00  0.00    -0.008 A 
HETATM   12  C   UNL     1      44.638 -22.003   4.235  1.00  0.00     0.014 A 
HETATM   13  C   UNL     1      44.568 -22.446   2.916  1.00  0.00     0.001 A 
HETATM   14  C   UNL     1      44.232 -21.553   1.903  1.00  0.00     0.002 A 
HETATM   15  C   UNL     1      43.969 -20.211   2.197  1.00  0.00     0.031 A 
HETATM   16  N   UNL     1      43.289 -16.264   4.104  1.00  0.00    -0.122 NA
ENDBRANCH   2   3
ENDBRANCH   1   2
BRANCH   1  17
HETATM   17  C   UNL     1      40.925 -15.977   1.017  1.00  0.00     0.227 C 
HETATM   18  N   UNL     1      40.564 -15.894  -0.303  1.00  0.00    -0.360 N 
HETATM   19  H   UNL     1      39.586 -16.126  -0.435  1.00  0.00     0.162 HD
HETATM   20  O   UNL     1      40.102 -16.417   1.822  1.00  0.00    -0.273 OA
BRANCH  18  21
HETATM   21  C   UNL     1      41.216 -15.103  -1.333  1.00  0.00     0.127 C 
BRANCH  21  22
HETATM   22  C   UNL     1      40.804 -15.537  -2.740  1.00  0.00     0.058 C 
BRANCH  22  23
HETATM   23  C   UNL     1      39.521 -14.865  -3.167  1.00  0.00    -0.054 A 
HETATM   24  C   UNL     1      39.322 -13.499  -2.912  1.00  0.00     0.046 A 
HETATM   25  C   UNL     1      38.117 -12.873  -3.255  1.00  0.00     0.102 A 
HETATM   26  C   UNL     1      37.102 -13.615  -3.889  1.00  0.00     0.101 A 
HETATM   27  C   UNL     1      37.306 -14.973  -4.152  1.00  0.00     0.040 A 
HETATM   28  C   UNL     1      38.506 -15.595  -3.788  1.00  0.00     0.010 A 
BRANCH  25  29
HETATM   29  O   UNL     1      37.847 -11.546  -3.025  1.00  0.00    -0.353 OA
HETATM   30  C   UNL     1      37.569 -11.160  -1.685  1.00  0.00     0.210 C 
ENDBRANCH  25  29
BRANCH  26  31
HETATM   31  O   UNL     1      35.956 -12.927  -4.199  1.00  0.00    -0.353 OA
HETATM   32  C   UNL     1      35.618 -12.794  -5.572  1.00  0.00     0.210 C 
ENDBRANCH  26  31
ENDBRANCH  22  23
ENDBRANCH  21  22
ENDBRANCH  18  21
ENDBRANCH   1  17
TORSDOF 8
ENDMDL
MODEL 10
REMARK VINA RESULT:      -8.4      4.519      8.218
REMARK  8 active torsions:
REMARK  status: ('A' for Active; 'I' for Inactive)
REMARK    1  A    between atoms: C_5  and  S_6 
REMARK    2  A    between atoms: S_6  and  C_7 
REMARK    3  A    between atoms: C_7  and  C_8 
REMARK       I    between atoms: C_8  and  N_9 
REMARK    4  A    between atoms: N_9  and  C_10 
REMARK    5  A    between atoms: C_10  and  C_11 
REMARK    6  A    between atoms: C_11  and  C_12 
REMARK    7  A    between atoms: C_14  and  O_15 
REMARK    8  A    between atoms: C_17  and  O_18 
ROOT
HETATM    1  C   UNL     1      40.857 -15.521   5.868  1.00  0.00     0.185 C 
ENDROOT
BRANCH   1   2
HETATM    2  S   UNL     1      42.639 -15.419   6.202  1.00  0.00    -0.080 SA
BRANCH   2   3
HETATM    3  C   UNL     1      43.048 -17.098   6.303  1.00  0.00     0.197 A 
HETATM    4  N   UNL     1      43.418 -17.937   5.264  1.00  0.00    -0.271 N 
HETATM    5  C   UNL     1      43.726 -19.136   5.906  1.00  0.00     0.165 A 
HETATM    6  C   UNL     1      43.515 -17.781   3.851  1.00  0.00     0.053 A 
HETATM    7  C   UNL     1      44.215 -20.259   5.172  1.00  0.00    -0.013 A 
HETATM    8  N   UNL     1      43.494 -19.026   7.199  1.00  0.00    -0.128 NA
HETATM    9  C   UNL     1      44.589 -21.556   5.845  1.00  0.00     0.052 C 
HETATM   10  C   UNL     1      44.345 -20.136   3.837  1.00  0.00     0.024 A 
HETATM   11  C   UNL     1      43.989 -18.898   3.136  1.00  0.00    -0.008 A 
HETATM   12  C   UNL     1      44.120 -18.833   1.742  1.00  0.00     0.014 A 
HETATM   13  C   UNL     1      43.772 -17.670   1.059  1.00  0.00     0.001 A 
HETATM   14  C   UNL     1      43.292 -16.570   1.765  1.00  0.00     0.002 A 
HETATM   15  C   UNL     1      43.161 -16.621   3.156  1.00  0.00     0.031 A 
HETATM   16  N   UNL     1      43.069 -17.753   7.444  1.00  0.00    -0.122 NA
ENDBRANCH   2   3
ENDBRANCH   1   2
BRANCH   1  17
HETATM   17  C   UNL     1      40.298 -14.129   5.640  1.00  0.00     0.227 C 
HETATM   18  N   UNL     1      40.039 -13.703   4.363  1.00  0.00    -0.360 N 
HETATM   19  H   UNL     1      39.750 -12.731   4.347  1.00  0.00     0.162 HD
HETATM   20  O   UNL     1      40.046 -13.365   6.574  1.00  0.00    -0.273 OA
BRANCH  18  21
HETATM   21  C   UNL     1      40.571 -14.270   3.135  1.00  0.00     0.127 C 
BRANCH  21  22
HETATM   22  C   UNL     1      39.550 -15.155   2.420  1.00  0.00     0.058 C 
BRANCH  22  23
HETATM   23  C   UNL     1      39.269 -14.650   1.025  1.00  0.00    -0.054 A 
HETATM   24  C   UNL     1      40.259 -14.728   0.033  1.00  0.00     0.046 A 
HETATM   25  C   UNL     1      40.032 -14.216  -1.250  1.00  0.00     0.102 A 
HETATM   26  C   UNL     1      38.785 -13.641  -1.560  1.00  0.00     0.101 A 
HETATM   27  C   UNL     1      37.795 -13.573  -0.574  1.00  0.00     0.040 A 
HETATM   28  C   UNL     1      38.038 -14.069   0.711  1.00  0.00     0.010 A 
BRANCH  25  29
HETATM   29  O   UNL     1      40.957 -14.247  -2.266  1.00  0.00    -0.353 OA
HETATM   30  C   UNL     1      41.139 -15.482  -2.945  1.00  0.00     0.210 C 
ENDBRANCH  25  29
BRANCH  26  31
HETATM   31  O   UNL     1      38.639 -13.170  -2.841  1.00  0.00    -0.353 OA
HETATM   32  C   UNL     1      37.402 -13.412  -3.495  1.00  0.00     0.210 C 
ENDBRANCH  26  31
ENDBRANCH  22  23
ENDBRANCH  21  22
ENDBRANCH  18  21
ENDBRANCH   1  17
TORSDOF 8
ENDMDL
