MODEL 1
REMARK VINA RESULT:      -7.7      0.000      0.000
REMARK  5 active torsions:
REMARK  status: ('A' for Active; 'I' for Inactive)
REMARK    1  A    between atoms: C_3  and  O_4 
REMARK    2  A    between atoms: C_5  and  C_6 
REMARK       I    between atoms: C_6  and  N_7 
REMARK    3  A    between atoms: N_7  and  C_8 
REMARK    4  A    between atoms: C_8  and  C_9 
REMARK    5  A    between atoms: C_9  and  C_10 
ROOT
HETATM    1  C   UNL     1      44.535 -18.722   5.295  1.00  0.00     0.254 C 
HETATM    2  N   UNL     1      43.436 -17.932   5.055  1.00  0.00    -0.356 N 
HETATM    3  O   UNL     1      45.460 -18.357   6.016  1.00  0.00    -0.268 OA
HETATM    4  H   UNL     1      42.792 -18.252   4.334  1.00  0.00     0.162 HD
ENDROOT
BRANCH   2   5
HETATM    5  C   UNL     1      43.334 -16.577   5.555  1.00  0.00     0.136 C 
BRANCH   5   6
HETATM    6  C   UNL     1      42.180 -15.760   4.900  1.00  0.00    -0.004 C 
HETATM    7  C   UNL     1      40.907 -15.954   5.759  1.00  0.00     0.021 C 
HETATM    8  C   UNL     1      42.545 -14.260   4.970  1.00  0.00     0.021 C 
BRANCH   6   9
HETATM    9  C   UNL     1      41.994 -16.154   3.422  1.00  0.00    -0.046 A 
HETATM   10  C   UNL     1      42.936 -15.850   2.430  1.00  0.00     0.027 A 
HETATM   11  C   UNL     1      42.689 -16.227   1.115  1.00  0.00     0.116 A 
HETATM   12  N   UNL     1      41.580 -16.877   0.711  1.00  0.00    -0.273 NA
HETATM   13  C   UNL     1      40.683 -17.178   1.671  1.00  0.00     0.116 A 
HETATM   14  C   UNL     1      40.843 -16.845   3.009  1.00  0.00     0.027 A 
ENDBRANCH   6   9
ENDBRANCH   5   6
ENDBRANCH   2   5
BRANCH   1  15
HETATM   15  C   UNL     1      44.560 -20.073   4.643  1.00  0.00     0.065 A 
HETATM   16  C   UNL     1      44.375 -20.301   3.265  1.00  0.00     0.087 A 
HETATM   17  C   UNL     1      44.351 -21.610   2.747  1.00  0.00    -0.028 A 
HETATM   18  C   UNL     1      44.105 -21.903   1.292  1.00  0.00     0.051 C 
HETATM   19  C   UNL     1      44.585 -22.686   3.618  1.00  0.00     0.009 A 
HETATM   20  C   UNL     1      44.804 -22.469   4.976  1.00  0.00     0.002 A 
HETATM   21  C   UNL     1      44.783 -21.172   5.486  1.00  0.00     0.020 A 
BRANCH  16  22
HETATM   22  O   UNL     1      44.219 -19.233   2.415  1.00  0.00    -0.359 OA
HETATM   23  H   UNL     1      45.002 -19.173   1.840  1.00  0.00     0.218 HD
ENDBRANCH  16  22
ENDBRANCH   1  15
TORSDOF 5
ENDMDL
MODEL 2
REMARK VINA RESULT:      -7.6      1.576      3.812
REMARK  5 active torsions:
REMARK  status: ('A' for Active; 'I' for Inactive)
REMARK    1  A    between atoms: C_3  and  O_4 
REMARK    2  A    between atoms: C_5  and  C_6 
REMARK       I    between atoms: C_6  and  N_7 
REMARK    3  A    between atoms: N_7  and  C_8 
REMARK    4  A    between atoms: C_8  and  C_9 
REMARK    5  A    between atoms: C_9  and  C_10 
ROOT
HETATM    1  C   UNL     1      43.936 -17.911   2.327  1.00  0.00     0.254 C 
HETATM    2  N   UNL     1      43.138 -17.172   3.166  1.00  0.00    -0.356 N 
HETATM    3  O   UNL     1      44.533 -17.409   1.378  1.00  0.00    -0.268 OA
HETATM    4  H   UNL     1      42.569 -17.692   3.832  1.00  0.00     0.162 HD
ENDROOT
BRANCH   2   5
HETATM    5  C   UNL     1      42.867 -15.768   2.937  1.00  0.00     0.136 C 
BRANCH   5   6
HETATM    6  C   UNL     1      42.190 -15.061   4.149  1.00  0.00    -0.004 C 
HETATM    7  C   UNL     1      42.528 -13.552   4.075  1.00  0.00     0.021 C 
HETATM    8  C   UNL     1      40.657 -15.187   3.993  1.00  0.00     0.021 C 
BRANCH   6   9
HETATM    9  C   UNL     1      42.606 -15.723   5.477  1.00  0.00    -0.046 A 
HETATM   10  C   UNL     1      41.864 -16.747   6.081  1.00  0.00     0.027 A 
HETATM   11  C   UNL     1      42.297 -17.284   7.288  1.00  0.00     0.116 A 
HETATM   12  N   UNL     1      43.405 -16.880   7.939  1.00  0.00    -0.273 NA
HETATM   13  C   UNL     1      44.122 -15.904   7.348  1.00  0.00     0.116 A 
HETATM   14  C   UNL     1      43.770 -15.309   6.145  1.00  0.00     0.027 A 
ENDBRANCH   6   9
ENDBRANCH   5   6
ENDBRANCH   2   5
BRANCH   1  15
HETATM   15  C   UNL     1      44.062 -19.377   2.621  1.00  0.00     0.065 A 
HETATM   16  C   UNL     1      44.454 -19.914   3.864  1.00  0.00     0.087 A 
HETATM   17  C   UNL     1      44.607 -21.303   4.033  1.00  0.00    -0.028 A 
HETATM   18  C   UNL     1      45.074 -21.917   5.325  1.00  0.00     0.051 C 
HETATM   19  C   UNL     1      44.294 -22.153   2.961  1.00  0.00     0.009 A 
HETATM   20  C   UNL     1      43.872 -21.635   1.740  1.00  0.00     0.002 A 
HETATM   21  C   UNL     1      43.765 -20.256   1.569  1.00  0.00     0.020 A 
BRANCH  16  22
HETATM   22  O   UNL     1      44.687 -19.071   4.923  1.00  0.00    -0.359 OA
HETATM   23  H   UNL     1      45.620 -18.796   4.905  1.00  0.00     0.218 HD
ENDBRANCH  16  22
ENDBRANCH   1  15
TORSDOF 5
ENDMDL
MODEL 3
REMARK VINA RESULT:      -7.5      1.676      2.583
REMARK  5 active torsions:
REMARK  status: ('A' for Active; 'I' for Inactive)
REMARK    1  A    between atoms: C_3  and  O_4 
REMARK    2  A    between atoms: C_5  and  C_6 
REMARK       I    between atoms: C_6  and  N_7 
REMARK    3  A    between atoms: N_7  and  C_8 
REMARK    4  A    between atoms: C_8  and  C_9 
REMARK    5  A    between atoms: C_9  and  C_10 
ROOT
HETATM    1  C   UNL     1      43.865 -17.977   3.130  1.00  0.00     0.254 C 
HETATM    2  N   UNL     1      43.459 -17.412   4.315  1.00  0.00    -0.356 N 
HETATM    3  O   UNL     1      44.087 -17.306   2.125  1.00  0.00    -0.268 OA
HETATM    4  H   UNL     1      43.159 -18.053   5.047  1.00  0.00     0.162 HD
ENDROOT
BRANCH   2   5
HETATM    5  C   UNL     1      43.172 -15.998   4.439  1.00  0.00     0.136 C 
BRANCH   5   6
HETATM    6  C   UNL     1      41.721 -15.700   4.920  1.00  0.00    -0.004 C 
HETATM    7  C   UNL     1      41.226 -16.919   5.736  1.00  0.00     0.021 C 
HETATM    8  C   UNL     1      41.766 -14.498   5.891  1.00  0.00     0.021 C 
BRANCH   6   9
HETATM    9  C   UNL     1      40.808 -15.340   3.731  1.00  0.00    -0.046 A 
HETATM   10  C   UNL     1      40.557 -16.222   2.672  1.00  0.00     0.027 A 
HETATM   11  C   UNL     1      39.733 -15.818   1.628  1.00  0.00     0.116 A 
HETATM   12  N   UNL     1      39.144 -14.608   1.555  1.00  0.00    -0.273 NA
HETATM   13  C   UNL     1      39.379 -13.769   2.583  1.00  0.00     0.116 A 
HETATM   14  C   UNL     1      40.185 -14.083   3.668  1.00  0.00     0.027 A 
ENDBRANCH   6   9
ENDBRANCH   5   6
ENDBRANCH   2   5
BRANCH   1  15
HETATM   15  C   UNL     1      44.039 -19.467   3.108  1.00  0.00     0.065 A 
HETATM   16  C   UNL     1      44.533 -20.232   4.184  1.00  0.00     0.087 A 
HETATM   17  C   UNL     1      44.723 -21.621   4.055  1.00  0.00    -0.028 A 
HETATM   18  C   UNL     1      45.296 -22.468   5.158  1.00  0.00     0.051 C 
HETATM   19  C   UNL     1      44.347 -22.246   2.856  1.00  0.00     0.009 A 
HETATM   20  C   UNL     1      43.825 -21.505   1.799  1.00  0.00     0.002 A 
HETATM   21  C   UNL     1      43.681 -20.124   1.921  1.00  0.00     0.020 A 
BRANCH  16  22
HETATM   22  O   UNL     1      44.829 -19.614   5.375  1.00  0.00    -0.359 OA
HETATM   23  H   UNL     1      45.795 -19.525   5.450  1.00  0.00     0.218 HD
ENDBRANCH  16  22
ENDBRANCH   1  15
TORSDOF 5
ENDMDL
MODEL 4
REMARK VINA RESULT:      -7.5      1.728      2.803
REMARK  5 active torsions:
REMARK  status: ('A' for Active; 'I' for Inactive)
REMARK    1  A    between atoms: C_3  and  O_4 
REMARK    2  A    between atoms: C_5  and  C_6 
REMARK       I    between atoms: C_6  and  N_7 
REMARK    3  A    between atoms: N_7  and  C_8 
REMARK    4  A    between atoms: C_8  and  C_9 
REMARK    5  A    between atoms: C_9  and  C_10 
ROOT
HETATM    1  C   UNL     1      44.054 -18.029   2.559  1.00  0.00     0.254 C 
HETATM    2  N   UNL     1      43.477 -17.302   3.573  1.00  0.00    -0.356 N 
HETATM    3  O   UNL     1      44.486 -17.502   1.537  1.00  0.00    -0.268 OA
HETATM    4  H   UNL     1      43.018 -17.832   4.311  1.00  0.00     0.162 HD
ENDROOT
BRANCH   2   5
HETATM    5  C   UNL     1      43.251 -15.876   3.469  1.00  0.00     0.136 C 
BRANCH   5   6
HETATM    6  C   UNL     1      41.778 -15.506   3.125  1.00  0.00    -0.004 C 
HETATM    7  C   UNL     1      40.874 -16.691   3.543  1.00  0.00     0.021 C 
HETATM    8  C   UNL     1      41.363 -14.296   3.993  1.00  0.00     0.021 C 
BRANCH   6   9
HETATM    9  C   UNL     1      41.639 -15.117   1.640  1.00  0.00    -0.046 A 
HETATM   10  C   UNL     1      41.359 -16.050   0.633  1.00  0.00     0.027 A 
HETATM   11  C   UNL     1      41.263 -15.623  -0.687  1.00  0.00     0.116 A 
HETATM   12  N   UNL     1      41.426 -14.345  -1.081  1.00  0.00    -0.273 NA
HETATM   13  C   UNL     1      41.682 -13.450  -0.107  1.00  0.00     0.116 A 
HETATM   14  C   UNL     1      41.794 -13.781   1.236  1.00  0.00     0.027 A 
ENDBRANCH   6   9
ENDBRANCH   5   6
ENDBRANCH   2   5
BRANCH   1  15
HETATM   15  C   UNL     1      44.148 -19.514   2.752  1.00  0.00     0.065 A 
HETATM   16  C   UNL     1      44.600 -20.142   3.930  1.00  0.00     0.087 A 
HETATM   17  C   UNL     1      44.715 -21.544   4.001  1.00  0.00    -0.028 A 
HETATM   18  C   UNL     1      45.241 -22.254   5.218  1.00  0.00     0.051 C 
HETATM   19  C   UNL     1      44.305 -22.313   2.901  1.00  0.00     0.009 A 
HETATM   20  C   UNL     1      43.823 -21.704   1.745  1.00  0.00     0.002 A 
HETATM   21  C   UNL     1      43.754 -20.314   1.668  1.00  0.00     0.020 A 
BRANCH  16  22
HETATM   22  O   UNL     1      44.928 -19.378   5.022  1.00  0.00    -0.359 OA
HETATM   23  H   UNL     1      44.156 -18.842   5.274  1.00  0.00     0.218 HD
ENDBRANCH  16  22
ENDBRANCH   1  15
TORSDOF 5
ENDMDL
MODEL 5
REMARK VINA RESULT:      -7.5      2.142      3.554
REMARK  5 active torsions:
REMARK  status: ('A' for Active; 'I' for Inactive)
REMARK    1  A    between atoms: C_3  and  O_4 
REMARK    2  A    between atoms: C_5  and  C_6 
REMARK       I    between atoms: C_6  and  N_7 
REMARK    3  A    between atoms: N_7  and  C_8 
REMARK    4  A    between atoms: C_8  and  C_9 
REMARK    5  A    between atoms: C_9  and  C_10 
ROOT
HETATM    1  C   UNL     1      43.830 -17.979   3.100  1.00  0.00     0.254 C 
HETATM    2  N   UNL     1      43.269 -17.429   4.228  1.00  0.00    -0.356 N 
HETATM    3  O   UNL     1      44.172 -17.297   2.137  1.00  0.00    -0.268 OA
HETATM    4  H   UNL     1      42.884 -18.079   4.910  1.00  0.00     0.162 HD
ENDROOT
BRANCH   2   5
HETATM    5  C   UNL     1      42.953 -16.019   4.325  1.00  0.00     0.136 C 
BRANCH   5   6
HETATM    6  C   UNL     1      42.633 -15.554   5.776  1.00  0.00    -0.004 C 
HETATM    7  C   UNL     1      41.997 -16.745   6.533  1.00  0.00     0.021 C 
HETATM    8  C   UNL     1      43.967 -15.230   6.489  1.00  0.00     0.021 C 
BRANCH   6   9
HETATM    9  C   UNL     1      41.757 -14.286   5.770  1.00  0.00    -0.046 A 
HETATM   10  C   UNL     1      42.293 -12.992   5.777  1.00  0.00     0.027 A 
HETATM   11  C   UNL     1      41.436 -11.897   5.785  1.00  0.00     0.116 A 
HETATM   12  N   UNL     1      40.092 -11.991   5.790  1.00  0.00    -0.273 NA
HETATM   13  C   UNL     1      39.581 -13.238   5.771  1.00  0.00     0.116 A 
HETATM   14  C   UNL     1      40.356 -14.389   5.760  1.00  0.00     0.027 A 
ENDBRANCH   6   9
ENDBRANCH   5   6
ENDBRANCH   2   5
BRANCH   1  15
HETATM   15  C   UNL     1      44.022 -19.467   3.090  1.00  0.00     0.065 A 
HETATM   16  C   UNL     1      44.503 -20.220   4.180  1.00  0.00     0.087 A 
HETATM   17  C   UNL     1      44.712 -21.608   4.061  1.00  0.00    -0.028 A 
HETATM   18  C   UNL     1      45.272 -22.442   5.180  1.00  0.00     0.051 C 
HETATM   19  C   UNL     1      44.367 -22.243   2.858  1.00  0.00     0.009 A 
HETATM   20  C   UNL     1      43.859 -21.514   1.787  1.00  0.00     0.002 A 
HETATM   21  C   UNL     1      43.696 -20.134   1.899  1.00  0.00     0.020 A 
BRANCH  16  22
HETATM   22  O   UNL     1      44.766 -19.594   5.373  1.00  0.00    -0.359 OA
HETATM   23  H   UNL     1      45.270 -20.202   5.942  1.00  0.00     0.218 HD
ENDBRANCH  16  22
ENDBRANCH   1  15
TORSDOF 5
ENDMDL
MODEL 6
REMARK VINA RESULT:      -7.4      2.012      3.526
REMARK  5 active torsions:
REMARK  status: ('A' for Active; 'I' for Inactive)
REMARK    1  A    between atoms: C_3  and  O_4 
REMARK    2  A    between atoms: C_5  and  C_6 
REMARK       I    between atoms: C_6  and  N_7 
REMARK    3  A    between atoms: N_7  and  C_8 
REMARK    4  A    between atoms: C_8  and  C_9 
REMARK    5  A    between atoms: C_9  and  C_10 
ROOT
HETATM    1  C   UNL     1      43.585 -18.021   3.226  1.00  0.00     0.254 C 
HETATM    2  N   UNL     1      42.895 -17.473   2.171  1.00  0.00    -0.356 N 
HETATM    3  O   UNL     1      43.947 -17.353   4.191  1.00  0.00    -0.268 OA
HETATM    4  H   UNL     1      42.766 -18.065   1.352  1.00  0.00     0.162 HD
ENDROOT
BRANCH   2   5
HETATM    5  C   UNL     1      42.629 -16.053   2.076  1.00  0.00     0.136 C 
BRANCH   5   6
HETATM    6  C   UNL     1      41.111 -15.705   2.088  1.00  0.00    -0.004 C 
HETATM    7  C   UNL     1      40.803 -14.852   0.834  1.00  0.00     0.021 C 
HETATM    8  C   UNL     1      40.308 -17.019   1.946  1.00  0.00     0.021 C 
BRANCH   6   9
HETATM    9  C   UNL     1      40.711 -15.024   3.412  1.00  0.00    -0.046 A 
HETATM   10  C   UNL     1      40.133 -13.748   3.466  1.00  0.00     0.027 A 
HETATM   11  C   UNL     1      39.813 -13.195   4.701  1.00  0.00     0.116 A 
HETATM   12  N   UNL     1      40.026 -13.809   5.881  1.00  0.00    -0.273 NA
HETATM   13  C   UNL     1      40.571 -15.040   5.823  1.00  0.00     0.116 A 
HETATM   14  C   UNL     1      40.921 -15.674   4.639  1.00  0.00     0.027 A 
ENDBRANCH   6   9
ENDBRANCH   5   6
ENDBRANCH   2   5
BRANCH   1  15
HETATM   15  C   UNL     1      43.878 -19.491   3.160  1.00  0.00     0.065 A 
HETATM   16  C   UNL     1      44.400 -20.253   4.224  1.00  0.00     0.087 A 
HETATM   17  C   UNL     1      44.704 -21.617   4.053  1.00  0.00    -0.028 A 
HETATM   18  C   UNL     1      45.311 -22.456   5.144  1.00  0.00     0.051 C 
HETATM   19  C   UNL     1      44.411 -22.226   2.823  1.00  0.00     0.009 A 
HETATM   20  C   UNL     1      43.862 -21.490   1.776  1.00  0.00     0.002 A 
HETATM   21  C   UNL     1      43.606 -20.130   1.941  1.00  0.00     0.020 A 
BRANCH  16  22
HETATM   22  O   UNL     1      44.613 -19.658   5.443  1.00  0.00    -0.359 OA
HETATM   23  H   UNL     1      43.785 -19.686   5.954  1.00  0.00     0.218 HD
ENDBRANCH  16  22
ENDBRANCH   1  15
TORSDOF 5
ENDMDL
MODEL 7
REMARK VINA RESULT:      -7.3      3.507      7.357
REMARK  5 active torsions:
REMARK  status: ('A' for Active; 'I' for Inactive)
REMARK    1  A    between atoms: C_3  and  O_4 
REMARK    2  A    between atoms: C_5  and  C_6 
REMARK       I    between atoms: C_6  and  N_7 
REMARK    3  A    between atoms: N_7  and  C_8 
REMARK    4  A    between atoms: C_8  and  C_9 
REMARK    5  A    between atoms: C_9  and  C_10 
ROOT
HETATM    1  C   UNL     1      41.228 -15.921   0.497  1.00  0.00     0.254 C 
HETATM    2  N   UNL     1      42.004 -17.053   0.571  1.00  0.00    -0.356 N 
HETATM    3  O   UNL     1      40.519 -15.550   1.428  1.00  0.00    -0.268 OA
HETATM    4  H   UNL     1      42.443 -17.364  -0.294  1.00  0.00     0.162 HD
ENDROOT
BRANCH   2   5
HETATM    5  C   UNL     1      41.968 -17.942   1.713  1.00  0.00     0.136 C 
BRANCH   5   6
HETATM    6  C   UNL     1      43.345 -18.092   2.425  1.00  0.00    -0.004 C 
HETATM    7  C   UNL     1      44.389 -17.274   1.629  1.00  0.00     0.021 C 
HETATM    8  C   UNL     1      43.242 -17.447   3.827  1.00  0.00     0.021 C 
BRANCH   6   9
HETATM    9  C   UNL     1      43.720 -19.578   2.593  1.00  0.00    -0.046 A 
HETATM   10  C   UNL     1      44.457 -20.057   3.685  1.00  0.00     0.027 A 
HETATM   11  C   UNL     1      44.769 -21.409   3.758  1.00  0.00     0.116 A 
HETATM   12  N   UNL     1      44.409 -22.318   2.831  1.00  0.00    -0.273 NA
HETATM   13  C   UNL     1      43.691 -21.855   1.789  1.00  0.00     0.116 A 
HETATM   14  C   UNL     1      43.330 -20.524   1.632  1.00  0.00     0.027 A 
ENDBRANCH   6   9
ENDBRANCH   5   6
ENDBRANCH   2   5
BRANCH   1  15
HETATM   15  C   UNL     1      41.288 -15.136  -0.780  1.00  0.00     0.065 A 
HETATM   16  C   UNL     1      41.646 -13.776  -0.868  1.00  0.00     0.087 A 
HETATM   17  C   UNL     1      41.613 -13.100  -2.104  1.00  0.00    -0.028 A 
HETATM   18  C   UNL     1      41.937 -11.637  -2.237  1.00  0.00     0.051 C 
HETATM   19  C   UNL     1      41.285 -13.823  -3.261  1.00  0.00     0.009 A 
HETATM   20  C   UNL     1      40.964 -15.176  -3.190  1.00  0.00     0.002 A 
HETATM   21  C   UNL     1      40.957 -15.825  -1.956  1.00  0.00     0.020 A 
BRANCH  16  22
HETATM   22  O   UNL     1      42.034 -13.102   0.264  1.00  0.00    -0.359 OA
HETATM   23  H   UNL     1      42.717 -13.624   0.720  1.00  0.00     0.218 HD
ENDBRANCH  16  22
ENDBRANCH   1  15
TORSDOF 5
ENDMDL
MODEL 8
REMARK VINA RESULT:      -7.2      3.246      7.199
REMARK  5 active torsions:
REMARK  status: ('A' for Active; 'I' for Inactive)
REMARK    1  A    between atoms: C_3  and  O_4 
REMARK    2  A    between atoms: C_5  and  C_6 
REMARK       I    between atoms: C_6  and  N_7 
REMARK    3  A    between atoms: N_7  and  C_8 
REMARK    4  A    between atoms: C_8  and  C_9 
REMARK    5  A    between atoms: C_9  and  C_10 
ROOT
HETATM    1  C   UNL     1      40.650 -15.884   1.815  1.00  0.00     0.254 C 
HETATM    2  N   UNL     1      41.252 -17.036   1.370  1.00  0.00    -0.356 N 
HETATM    3  O   UNL     1      40.553 -15.613   3.009  1.00  0.00    -0.268 OA
HETATM    4  H   UNL     1      41.158 -17.248   0.378  1.00  0.00     0.162 HD
ENDROOT
BRANCH   2   5
HETATM    5  C   UNL     1      41.729 -18.059   2.277  1.00  0.00     0.136 C 
BRANCH   5   6
HETATM    6  C   UNL     1      43.282 -18.115   2.386  1.00  0.00    -0.004 C 
HETATM    7  C   UNL     1      43.876 -17.533   1.081  1.00  0.00     0.021 C 
HETATM    8  C   UNL     1      43.724 -17.182   3.537  1.00  0.00     0.021 C 
BRANCH   6   9
HETATM    9  C   UNL     1      43.762 -19.546   2.699  1.00  0.00    -0.046 A 
HETATM   10  C   UNL     1      43.610 -20.613   1.803  1.00  0.00     0.027 A 
HETATM   11  C   UNL     1      44.056 -21.878   2.165  1.00  0.00     0.116 A 
HETATM   12  N   UNL     1      44.638 -22.165   3.346  1.00  0.00    -0.273 NA
HETATM   13  C   UNL     1      44.793 -21.133   4.199  1.00  0.00     0.116 A 
HETATM   14  C   UNL     1      44.382 -19.836   3.926  1.00  0.00     0.027 A 
ENDBRANCH   6   9
ENDBRANCH   5   6
ENDBRANCH   2   5
BRANCH   1  15
HETATM   15  C   UNL     1      40.115 -14.947   0.772  1.00  0.00     0.065 A 
HETATM   16  C   UNL     1      40.797 -14.588  -0.408  1.00  0.00     0.087 A 
HETATM   17  C   UNL     1      40.245 -13.651  -1.303  1.00  0.00    -0.028 A 
HETATM   18  C   UNL     1      40.960 -13.199  -2.547  1.00  0.00     0.051 C 
HETATM   19  C   UNL     1      38.969 -13.131  -1.036  1.00  0.00     0.009 A 
HETATM   20  C   UNL     1      38.271 -13.506   0.109  1.00  0.00     0.002 A 
HETATM   21  C   UNL     1      38.845 -14.401   1.011  1.00  0.00     0.020 A 
BRANCH  16  22
HETATM   22  O   UNL     1      42.012 -15.161  -0.690  1.00  0.00    -0.359 OA
HETATM   23  H   UNL     1      42.717 -14.592  -0.335  1.00  0.00     0.218 HD
ENDBRANCH  16  22
ENDBRANCH   1  15
TORSDOF 5
ENDMDL
MODEL 9
REMARK VINA RESULT:      -7.2      2.912      7.019
REMARK  5 active torsions:
REMARK  status: ('A' for Active; 'I' for Inactive)
REMARK    1  A    between atoms: C_3  and  O_4 
REMARK    2  A    between atoms: C_5  and  C_6 
REMARK       I    between atoms: C_6  and  N_7 
REMARK    3  A    between atoms: N_7  and  C_8 
REMARK    4  A    between atoms: C_8  and  C_9 
REMARK    5  A    between atoms: C_9  and  C_10 
ROOT
HETATM    1  C   UNL     1      40.967 -16.426   4.081  1.00  0.00     0.254 C 
HETATM    2  N   UNL     1      41.589 -16.772   2.906  1.00  0.00    -0.356 N 
HETATM    3  O   UNL     1      40.810 -17.224   5.001  1.00  0.00    -0.268 OA
HETATM    4  H   UNL     1      41.545 -16.094   2.148  1.00  0.00     0.162 HD
ENDROOT
BRANCH   2   5
HETATM    5  C   UNL     1      42.020 -18.127   2.630  1.00  0.00     0.136 C 
BRANCH   5   6
HETATM    6  C   UNL     1      43.560 -18.325   2.749  1.00  0.00    -0.004 C 
HETATM    7  C   UNL     1      44.232 -17.571   1.576  1.00  0.00     0.021 C 
HETATM    8  C   UNL     1      44.039 -17.646   4.052  1.00  0.00     0.021 C 
BRANCH   6   9
HETATM    9  C   UNL     1      43.921 -19.822   2.810  1.00  0.00    -0.046 A 
HETATM   10  C   UNL     1      44.529 -20.412   3.927  1.00  0.00     0.027 A 
HETATM   11  C   UNL     1      44.837 -21.767   3.900  1.00  0.00     0.116 A 
HETATM   12  N   UNL     1      44.592 -22.577   2.852  1.00  0.00    -0.273 NA
HETATM   13  C   UNL     1      43.997 -22.007   1.785  1.00  0.00     0.116 A 
HETATM   14  C   UNL     1      43.650 -20.665   1.720  1.00  0.00     0.027 A 
ENDBRANCH   6   9
ENDBRANCH   5   6
ENDBRANCH   2   5
BRANCH   1  15
HETATM   15  C   UNL     1      40.485 -15.010   4.206  1.00  0.00     0.065 A 
HETATM   16  C   UNL     1      40.190 -14.369   5.426  1.00  0.00     0.087 A 
HETATM   17  C   UNL     1      39.683 -13.055   5.446  1.00  0.00    -0.028 A 
HETATM   18  C   UNL     1      39.305 -12.351   6.720  1.00  0.00     0.051 C 
HETATM   19  C   UNL     1      39.540 -12.367   4.231  1.00  0.00     0.009 A 
HETATM   20  C   UNL     1      39.862 -12.979   3.023  1.00  0.00     0.002 A 
HETATM   21  C   UNL     1      40.323 -14.294   3.010  1.00  0.00     0.020 A 
BRANCH  16  22
HETATM   22  O   UNL     1      40.404 -15.032   6.610  1.00  0.00    -0.359 OA
HETATM   23  H   UNL     1      40.629 -15.958   6.414  1.00  0.00     0.218 HD
ENDBRANCH  16  22
ENDBRANCH   1  15
TORSDOF 5
ENDMDL
MODEL 10
REMARK VINA RESULT:      -7.1      2.494      3.352
REMARK  5 active torsions:
REMARK  status: ('A' for Active; 'I' for Inactive)
REMARK    1  A    between atoms: C_3  and  O_4 
REMARK    2  A    between atoms: C_5  and  C_6 
REMARK       I    between atoms: C_6  and  N_7 
REMARK    3  A    between atoms: N_7  and  C_8 
REMARK    4  A    between atoms: C_8  and  C_9 
REMARK    5  A    between atoms: C_9  and  C_10 
ROOT
HETATM    1  C   UNL     1      42.734 -17.470   3.951  1.00  0.00     0.254 C 
HETATM    2  N   UNL     1      41.654 -17.363   3.108  1.00  0.00    -0.356 N 
HETATM    3  O   UNL     1      43.092 -16.548   4.679  1.00  0.00    -0.268 OA
HETATM    4  H   UNL     1      41.520 -18.119   2.439  1.00  0.00     0.162 HD
ENDROOT
BRANCH   2   5
HETATM    5  C   UNL     1      40.920 -16.126   2.946  1.00  0.00     0.136 C 
BRANCH   5   6
HETATM    6  C   UNL     1      41.289 -15.351   1.647  1.00  0.00    -0.004 C 
HETATM    7  C   UNL     1      42.349 -14.283   2.009  1.00  0.00     0.021 C 
HETATM    8  C   UNL     1      41.962 -16.337   0.665  1.00  0.00     0.021 C 
BRANCH   6   9
HETATM    9  C   UNL     1      40.030 -14.769   0.974  1.00  0.00    -0.046 A 
HETATM   10  C   UNL     1      38.775 -14.750   1.597  1.00  0.00     0.027 A 
HETATM   11  C   UNL     1      37.684 -14.220   0.919  1.00  0.00     0.116 A 
HETATM   12  N   UNL     1      37.743 -13.713  -0.328  1.00  0.00    -0.273 NA
HETATM   13  C   UNL     1      38.954 -13.722  -0.918  1.00  0.00     0.116 A 
HETATM   14  C   UNL     1      40.100 -14.227  -0.320  1.00  0.00     0.027 A 
ENDBRANCH   6   9
ENDBRANCH   5   6
ENDBRANCH   2   5
BRANCH   1  15
HETATM   15  C   UNL     1      43.467 -18.779   3.958  1.00  0.00     0.065 A 
HETATM   16  C   UNL     1      43.632 -19.611   2.832  1.00  0.00     0.087 A 
HETATM   17  C   UNL     1      44.281 -20.856   2.944  1.00  0.00    -0.028 A 
HETATM   18  C   UNL     1      44.433 -21.799   1.783  1.00  0.00     0.051 C 
HETATM   19  C   UNL     1      44.826 -21.225   4.184  1.00  0.00     0.009 A 
HETATM   20  C   UNL     1      44.700 -20.394   5.294  1.00  0.00     0.002 A 
HETATM   21  C   UNL     1      44.017 -19.184   5.183  1.00  0.00     0.020 A 
BRANCH  16  22
HETATM   22  O   UNL     1      43.156 -19.202   1.611  1.00  0.00    -0.359 OA
HETATM   23  H   UNL     1      42.252 -18.861   1.726  1.00  0.00     0.218 HD
ENDBRANCH  16  22
ENDBRANCH   1  15
TORSDOF 5
ENDMDL
