MODEL 1
REMARK VINA RESULT:      -9.9      0.000      0.000
REMARK  9 active torsions:
REMARK  status: ('A' for Active; 'I' for Inactive)
REMARK       I    between atoms: N_2  and  C_3 
REMARK    1  A    between atoms: N_2  and  C_28 
REMARK    2  A    between atoms: C_3  and  C_4 
REMARK    3  A    between atoms: C_6  and  N_7 
REMARK       I    between atoms: N_7  and  C_8 
REMARK    4  A    between atoms: C_8  and  C_9 
REMARK    5  A    between atoms: C_9  and  O_10 
REMARK    6  A    between atoms: N_17  and  C_18 
REMARK    7  A    between atoms: C_18  and  C_19 
REMARK    8  A    between atoms: C_19  and  C_20 
REMARK    9  A    between atoms: C_28  and  C_29 
ROOT
HETATM    1  C   UNL     1      39.669 -12.789   4.856  1.00  0.00     0.036 A 
HETATM    2  C   UNL     1      40.387 -13.488   5.835  1.00  0.00     0.049 A 
HETATM    3  C   UNL     1      40.964 -14.747   5.585  1.00  0.00     0.065 A 
HETATM    4  C   UNL     1      40.745 -15.293   4.298  1.00  0.00     0.091 A 
HETATM    5  C   UNL     1      40.044 -14.585   3.311  1.00  0.00     0.088 A 
HETATM    6  N   UNL     1      39.954 -15.289   2.140  1.00  0.00    -0.242 NA
HETATM    7  C   UNL     1      40.559 -16.423   2.381  1.00  0.00     0.210 A 
HETATM    8  N   UNL     1      41.062 -16.475   3.656  1.00  0.00    -0.337 N 
HETATM    9  C   UNL     1      39.532 -13.309   3.571  1.00  0.00     0.051 A 
ENDROOT
BRANCH   1  10
HETATM   10  C   UNL     1      39.166 -11.434   5.182  1.00  0.00     0.253 C 
HETATM   11  N   UNL     1      39.704 -10.722   6.261  1.00  0.00    -0.350 N 
HETATM   12  C   UNL     1      39.050  -9.474   6.628  1.00  0.00     0.153 C 
HETATM   13  O   UNL     1      38.262 -10.998   4.468  1.00  0.00    -0.267 OA
BRANCH  11  14
HETATM   14  C   UNL     1      40.825 -11.200   7.098  1.00  0.00     0.158 C 
BRANCH  14  15
HETATM   15  C   UNL     1      41.412 -10.204   8.119  1.00  0.00     0.151 A 
HETATM   16  O   UNL     1      42.860 -10.327   8.136  1.00  0.00    -0.343 OA
HETATM   17  C   UNL     1      43.173 -10.744   9.400  1.00  0.00     0.075 A 
HETATM   18  C   UNL     1      42.085 -10.854  10.246  1.00  0.00    -0.022 A 
HETATM   19  C   UNL     1      44.455 -11.030   9.823  1.00  0.00     0.037 A 
HETATM   20  C   UNL     1      40.854 -10.461   9.534  1.00  0.00     0.075 A 
HETATM   21  C   UNL     1      42.244 -11.256  11.561  1.00  0.00     0.010 A 
HETATM   22  C   UNL     1      43.533 -11.551  12.011  1.00  0.00     0.001 A 
HETATM   23  C   UNL     1      44.633 -11.438  11.147  1.00  0.00     0.003 A 
ENDBRANCH  14  15
ENDBRANCH  11  14
ENDBRANCH   1  10
BRANCH   3  24
HETATM   24  N   UNL     1      41.756 -15.410   6.538  1.00  0.00    -0.323 N 
HETATM   25  C   UNL     1      43.140 -15.502   6.591  1.00  0.00     0.246 C 
HETATM   26  O   UNL     1      43.949 -14.911   5.886  1.00  0.00    -0.271 OA
HETATM   27  H   UNL     1      41.294 -15.950   7.256  1.00  0.00     0.169 HD
BRANCH  25  28
HETATM   28  C   UNL     1      43.600 -16.413   7.736  1.00  0.00     0.270 C 
BRANCH  28  29
HETATM   29  O   UNL     1      42.850 -17.626   7.815  1.00  0.00    -0.387 OA
HETATM   30  C   UNL     1      43.661 -18.764   7.527  1.00  0.00     0.202 C 
ENDBRANCH  28  29
ENDBRANCH  25  28
ENDBRANCH   3  24
BRANCH   8  31
HETATM   31  C   UNL     1      41.766 -17.643   4.154  1.00  0.00     0.134 C 
BRANCH  31  32
HETATM   32  C   UNL     1      43.179 -17.742   3.573  1.00  0.00     0.058 C 
BRANCH  32  33
HETATM   33  C   UNL     1      43.611 -19.147   3.226  1.00  0.00    -0.057 A 
HETATM   34  C   UNL     1      43.192 -19.787   2.052  1.00  0.00     0.007 A 
HETATM   35  C   UNL     1      43.605 -21.092   1.769  1.00  0.00     0.001 A 
HETATM   36  C   UNL     1      44.422 -21.780   2.663  1.00  0.00     0.000 A 
HETATM   37  C   UNL     1      44.825 -21.166   3.846  1.00  0.00     0.001 A 
HETATM   38  C   UNL     1      44.421 -19.860   4.126  1.00  0.00     0.007 A 
ENDBRANCH  32  33
ENDBRANCH  31  32
ENDBRANCH   8  31
TORSDOF 9
ENDMDL
MODEL 2
REMARK VINA RESULT:      -9.9      3.478      7.222
REMARK  9 active torsions:
REMARK  status: ('A' for Active; 'I' for Inactive)
REMARK       I    between atoms: N_2  and  C_3 
REMARK    1  A    between atoms: N_2  and  C_28 
REMARK    2  A    between atoms: C_3  and  C_4 
REMARK    3  A    between atoms: C_6  and  N_7 
REMARK       I    between atoms: N_7  and  C_8 
REMARK    4  A    between atoms: C_8  and  C_9 
REMARK    5  A    between atoms: C_9  and  O_10 
REMARK    6  A    between atoms: N_17  and  C_18 
REMARK    7  A    between atoms: C_18  and  C_19 
REMARK    8  A    between atoms: C_19  and  C_20 
REMARK    9  A    between atoms: C_28  and  C_29 
ROOT
HETATM    1  C   UNL     1      39.927 -13.582   1.708  1.00  0.00     0.036 A 
HETATM    2  C   UNL     1      40.563 -13.606   2.956  1.00  0.00     0.049 A 
HETATM    3  C   UNL     1      41.285 -14.727   3.407  1.00  0.00     0.065 A 
HETATM    4  C   UNL     1      41.300 -15.851   2.548  1.00  0.00     0.091 A 
HETATM    5  C   UNL     1      40.682 -15.819   1.289  1.00  0.00     0.088 A 
HETATM    6  N   UNL     1      40.823 -17.005   0.618  1.00  0.00    -0.242 NA
HETATM    7  C   UNL     1      41.492 -17.776   1.434  1.00  0.00     0.210 A 
HETATM    8  N   UNL     1      41.814 -17.132   2.601  1.00  0.00    -0.337 N 
HETATM    9  C   UNL     1      40.021 -14.670   0.843  1.00  0.00     0.051 A 
ENDROOT
BRANCH   1  10
HETATM   10  C   UNL     1      39.258 -12.330   1.281  1.00  0.00     0.253 C 
HETATM   11  N   UNL     1      39.908 -11.444   0.413  1.00  0.00    -0.350 N 
HETATM   12  C   UNL     1      39.266 -10.160   0.171  1.00  0.00     0.153 C 
HETATM   13  O   UNL     1      38.134 -12.126   1.739  1.00  0.00    -0.267 OA
BRANCH  11  14
HETATM   14  C   UNL     1      41.233 -11.692  -0.193  1.00  0.00     0.158 C 
BRANCH  14  15
HETATM   15  C   UNL     1      41.269 -11.987  -1.706  1.00  0.00     0.151 A 
HETATM   16  O   UNL     1      39.911 -12.131  -2.203  1.00  0.00    -0.343 OA
HETATM   17  C   UNL     1      39.826 -13.420  -2.655  1.00  0.00     0.075 A 
HETATM   18  C   UNL     1      41.007 -14.131  -2.564  1.00  0.00    -0.022 A 
HETATM   19  C   UNL     1      38.675 -13.983  -3.168  1.00  0.00     0.037 A 
HETATM   20  C   UNL     1      42.069 -13.272  -2.006  1.00  0.00     0.075 A 
HETATM   21  C   UNL     1      41.081 -15.446  -2.991  1.00  0.00     0.010 A 
HETATM   22  C   UNL     1      39.928 -16.037  -3.513  1.00  0.00     0.001 A 
HETATM   23  C   UNL     1      38.732 -15.309  -3.601  1.00  0.00     0.003 A 
ENDBRANCH  14  15
ENDBRANCH  11  14
ENDBRANCH   1  10
BRANCH   3  24
HETATM   24  N   UNL     1      41.994 -14.721   4.621  1.00  0.00    -0.323 N 
HETATM   25  C   UNL     1      43.272 -14.242   4.866  1.00  0.00     0.246 C 
HETATM   26  O   UNL     1      43.987 -13.609   4.098  1.00  0.00    -0.271 OA
HETATM   27  H   UNL     1      41.576 -15.170   5.424  1.00  0.00     0.169 HD
BRANCH  25  28
HETATM   28  C   UNL     1      43.715 -14.529   6.307  1.00  0.00     0.270 C 
BRANCH  28  29
HETATM   29  O   UNL     1      43.338 -15.833   6.753  1.00  0.00    -0.387 OA
HETATM   30  C   UNL     1      44.425 -16.753   6.663  1.00  0.00     0.202 C 
ENDBRANCH  28  29
ENDBRANCH  25  28
ENDBRANCH   3  24
BRANCH   8  31
HETATM   31  C   UNL     1      42.548 -17.796   3.664  1.00  0.00     0.134 C 
BRANCH  31  32
HETATM   32  C   UNL     1      43.944 -18.224   3.206  1.00  0.00     0.058 C 
BRANCH  32  33
HETATM   33  C   UNL     1      44.174 -19.717   3.229  1.00  0.00    -0.057 A 
HETATM   34  C   UNL     1      43.868 -20.535   2.133  1.00  0.00     0.007 A 
HETATM   35  C   UNL     1      44.085 -21.915   2.194  1.00  0.00     0.001 A 
HETATM   36  C   UNL     1      44.593 -22.495   3.355  1.00  0.00     0.000 A 
HETATM   37  C   UNL     1      44.879 -21.697   4.460  1.00  0.00     0.001 A 
HETATM   38  C   UNL     1      44.669 -20.319   4.398  1.00  0.00     0.007 A 
ENDBRANCH  32  33
ENDBRANCH  31  32
ENDBRANCH   8  31
TORSDOF 9
ENDMDL
MODEL 3
REMARK VINA RESULT:      -9.7      2.872      5.759
REMARK  9 active torsions:
REMARK  status: ('A' for Active; 'I' for Inactive)
REMARK       I    between atoms: N_2  and  C_3 
REMARK    1  A    between atoms: N_2  and  C_28 
REMARK    2  A    between atoms: C_3  and  C_4 
REMARK    3  A    between atoms: C_6  and  N_7 
REMARK       I    between atoms: N_7  and  C_8 
REMARK    4  A    between atoms: C_8  and  C_9 
REMARK    5  A    between atoms: C_9  and  O_10 
REMARK    6  A    between atoms: N_17  and  C_18 
REMARK    7  A    between atoms: C_18  and  C_19 
REMARK    8  A    between atoms: C_19  and  C_20 
REMARK    9  A    between atoms: C_28  and  C_29 
ROOT
HETATM    1  C   UNL     1      39.704 -12.794   3.879  1.00  0.00     0.036 A 
HETATM    2  C   UNL     1      40.577 -13.168   4.909  1.00  0.00     0.049 A 
HETATM    3  C   UNL     1      41.212 -14.424   4.934  1.00  0.00     0.065 A 
HETATM    4  C   UNL     1      40.889 -15.311   3.880  1.00  0.00     0.091 A 
HETATM    5  C   UNL     1      40.031 -14.929   2.838  1.00  0.00     0.088 A 
HETATM    6  N   UNL     1      39.860 -15.932   1.920  1.00  0.00    -0.242 NA
HETATM    7  C   UNL     1      40.570 -16.931   2.377  1.00  0.00     0.210 A 
HETATM    8  N   UNL     1      41.216 -16.610   3.543  1.00  0.00    -0.337 N 
HETATM    9  C   UNL     1      39.461 -13.653   2.809  1.00  0.00     0.051 A 
ENDROOT
BRANCH   1  10
HETATM   10  C   UNL     1      39.144 -11.422   3.891  1.00  0.00     0.253 C 
HETATM   11  N   UNL     1      39.789 -10.391   3.198  1.00  0.00    -0.350 N 
HETATM   12  C   UNL     1      39.281  -9.040   3.391  1.00  0.00     0.153 C 
HETATM   13  O   UNL     1      38.113 -11.257   4.543  1.00  0.00    -0.267 OA
BRANCH  11  14
HETATM   14  C   UNL     1      40.995 -10.574   2.364  1.00  0.00     0.158 C 
BRANCH  14  15
HETATM   15  C   UNL     1      40.800 -10.557   0.834  1.00  0.00     0.151 A 
HETATM   16  O   UNL     1      39.429 -10.919   0.517  1.00  0.00    -0.343 OA
HETATM   17  C   UNL     1      39.518 -12.081  -0.200  1.00  0.00     0.075 A 
HETATM   18  C   UNL     1      40.813 -12.498  -0.444  1.00  0.00    -0.022 A 
HETATM   19  C   UNL     1      38.427 -12.790  -0.657  1.00  0.00     0.037 A 
HETATM   20  C   UNL     1      41.769 -11.536   0.137  1.00  0.00     0.075 A 
HETATM   21  C   UNL     1      41.065 -13.652  -1.166  1.00  0.00     0.010 A 
HETATM   22  C   UNL     1      39.975 -14.387  -1.639  1.00  0.00     0.001 A 
HETATM   23  C   UNL     1      38.663 -13.958  -1.386  1.00  0.00     0.003 A 
ENDBRANCH  14  15
ENDBRANCH  11  14
ENDBRANCH   1  10
BRANCH   3  24
HETATM   24  N   UNL     1      42.152 -14.767   5.920  1.00  0.00    -0.323 N 
HETATM   25  C   UNL     1      43.513 -14.496   5.941  1.00  0.00     0.246 C 
HETATM   26  O   UNL     1      44.139 -13.787   5.162  1.00  0.00    -0.271 OA
HETATM   27  H   UNL     1      41.848 -15.337   6.698  1.00  0.00     0.169 HD
BRANCH  25  28
HETATM   28  C   UNL     1      44.198 -15.145   7.150  1.00  0.00     0.270 C 
BRANCH  28  29
HETATM   29  O   UNL     1      44.181 -16.573   7.096  1.00  0.00    -0.387 OA
HETATM   30  C   UNL     1      43.378 -17.128   8.137  1.00  0.00     0.202 C 
ENDBRANCH  28  29
ENDBRANCH  25  28
ENDBRANCH   3  24
BRANCH   8  31
HETATM   31  C   UNL     1      42.055 -17.568   4.242  1.00  0.00     0.134 C 
BRANCH  31  32
HETATM   32  C   UNL     1      43.408 -17.745   3.550  1.00  0.00     0.058 C 
BRANCH  32  33
HETATM   33  C   UNL     1      43.754 -19.178   3.219  1.00  0.00    -0.057 A 
HETATM   34  C   UNL     1      43.338 -19.789   2.028  1.00  0.00     0.007 A 
HETATM   35  C   UNL     1      43.668 -21.121   1.760  1.00  0.00     0.001 A 
HETATM   36  C   UNL     1      44.400 -21.862   2.684  1.00  0.00     0.000 A 
HETATM   37  C   UNL     1      44.800 -21.275   3.882  1.00  0.00     0.001 A 
HETATM   38  C   UNL     1      44.477 -19.944   4.149  1.00  0.00     0.007 A 
ENDBRANCH  32  33
ENDBRANCH  31  32
ENDBRANCH   8  31
TORSDOF 9
ENDMDL
MODEL 4
REMARK VINA RESULT:      -9.7      1.957      3.650
REMARK  9 active torsions:
REMARK  status: ('A' for Active; 'I' for Inactive)
REMARK       I    between atoms: N_2  and  C_3 
REMARK    1  A    between atoms: N_2  and  C_28 
REMARK    2  A    between atoms: C_3  and  C_4 
REMARK    3  A    between atoms: C_6  and  N_7 
REMARK       I    between atoms: N_7  and  C_8 
REMARK    4  A    between atoms: C_8  and  C_9 
REMARK    5  A    between atoms: C_9  and  O_10 
REMARK    6  A    between atoms: N_17  and  C_18 
REMARK    7  A    between atoms: C_18  and  C_19 
REMARK    8  A    between atoms: C_19  and  C_20 
REMARK    9  A    between atoms: C_28  and  C_29 
ROOT
HETATM    1  C   UNL     1      39.897 -12.829   4.913  1.00  0.00     0.036 A 
HETATM    2  C   UNL     1      40.390 -13.024   3.616  1.00  0.00     0.049 A 
HETATM    3  C   UNL     1      40.911 -14.260   3.190  1.00  0.00     0.065 A 
HETATM    4  C   UNL     1      40.952 -15.291   4.158  1.00  0.00     0.091 A 
HETATM    5  C   UNL     1      40.439 -15.103   5.451  1.00  0.00     0.088 A 
HETATM    6  N   UNL     1      40.569 -16.226   6.223  1.00  0.00    -0.242 NA
HETATM    7  C   UNL     1      41.168 -17.097   5.453  1.00  0.00     0.210 A 
HETATM    8  N   UNL     1      41.411 -16.593   4.201  1.00  0.00    -0.337 N 
HETATM    9  C   UNL     1      39.873 -13.880   5.827  1.00  0.00     0.051 A 
ENDROOT
BRANCH   1  10
HETATM   10  C   UNL     1      39.292 -11.519   5.249  1.00  0.00     0.253 C 
HETATM   11  N   UNL     1      39.790 -10.766   6.320  1.00  0.00    -0.350 N 
HETATM   12  C   UNL     1      39.043  -9.575   6.699  1.00  0.00     0.153 C 
HETATM   13  O   UNL     1      38.344 -11.158   4.551  1.00  0.00    -0.267 OA
BRANCH  11  14
HETATM   14  C   UNL     1      40.959 -11.151   7.136  1.00  0.00     0.158 C 
BRANCH  14  15
HETATM   15  C   UNL     1      41.425 -10.149   8.213  1.00  0.00     0.151 A 
HETATM   16  O   UNL     1      42.876 -10.161   8.289  1.00  0.00    -0.343 OA
HETATM   17  C   UNL     1      43.168 -10.596   9.552  1.00  0.00     0.075 A 
HETATM   18  C   UNL     1      42.058 -10.818  10.346  1.00  0.00    -0.022 A 
HETATM   19  C   UNL     1      44.450 -10.797  10.022  1.00  0.00     0.037 A 
HETATM   20  C   UNL     1      40.830 -10.496   9.594  1.00  0.00     0.075 A 
HETATM   21  C   UNL     1      42.193 -11.251  11.654  1.00  0.00     0.010 A 
HETATM   22  C   UNL     1      43.482 -11.462  12.151  1.00  0.00     0.001 A 
HETATM   23  C   UNL     1      44.604 -11.236  11.339  1.00  0.00     0.003 A 
ENDBRANCH  14  15
ENDBRANCH  11  14
ENDBRANCH   1  10
BRANCH   3  24
HETATM   24  N   UNL     1      41.327 -14.480   1.866  1.00  0.00    -0.323 N 
HETATM   25  C   UNL     1      40.542 -14.740   0.751  1.00  0.00     0.246 C 
HETATM   26  O   UNL     1      39.319 -14.699   0.680  1.00  0.00    -0.271 OA
HETATM   27  H   UNL     1      42.317 -14.524   1.673  1.00  0.00     0.169 HD
BRANCH  25  28
HETATM   28  C   UNL     1      41.399 -15.031  -0.486  1.00  0.00     0.270 C 
BRANCH  28  29
HETATM   29  O   UNL     1      40.909 -14.387  -1.664  1.00  0.00    -0.387 OA
HETATM   30  C   UNL     1      40.866 -15.284  -2.773  1.00  0.00     0.202 C 
ENDBRANCH  28  29
ENDBRANCH  25  28
ENDBRANCH   3  24
BRANCH   8  31
HETATM   31  C   UNL     1      42.078 -17.377   3.176  1.00  0.00     0.134 C 
BRANCH  31  32
HETATM   32  C   UNL     1      43.466 -17.835   3.629  1.00  0.00     0.058 C 
BRANCH  32  33
HETATM   33  C   UNL     1      43.780 -19.277   3.309  1.00  0.00    -0.057 A 
HETATM   34  C   UNL     1      44.526 -20.088   4.175  1.00  0.00     0.007 A 
HETATM   35  C   UNL     1      44.806 -21.416   3.840  1.00  0.00     0.001 A 
HETATM   36  C   UNL     1      44.362 -21.944   2.630  1.00  0.00     0.000 A 
HETATM   37  C   UNL     1      43.641 -21.142   1.748  1.00  0.00     0.001 A 
HETATM   38  C   UNL     1      43.354 -19.818   2.084  1.00  0.00     0.007 A 
ENDBRANCH  32  33
ENDBRANCH  31  32
ENDBRANCH   8  31
TORSDOF 9
ENDMDL
MODEL 5
REMARK VINA RESULT:      -9.6      2.904      4.310
REMARK  9 active torsions:
REMARK  status: ('A' for Active; 'I' for Inactive)
REMARK       I    between atoms: N_2  and  C_3 
REMARK    1  A    between atoms: N_2  and  C_28 
REMARK    2  A    between atoms: C_3  and  C_4 
REMARK    3  A    between atoms: C_6  and  N_7 
REMARK       I    between atoms: N_7  and  C_8 
REMARK    4  A    between atoms: C_8  and  C_9 
REMARK    5  A    between atoms: C_9  and  O_10 
REMARK    6  A    between atoms: N_17  and  C_18 
REMARK    7  A    between atoms: C_18  and  C_19 
REMARK    8  A    between atoms: C_19  and  C_20 
REMARK    9  A    between atoms: C_28  and  C_29 
ROOT
HETATM    1  C   UNL     1      41.933 -13.291   0.844  1.00  0.00     0.036 A 
HETATM    2  C   UNL     1      42.462 -13.380   2.138  1.00  0.00     0.049 A 
HETATM    3  C   UNL     1      42.616 -14.613   2.800  1.00  0.00     0.065 A 
HETATM    4  C   UNL     1      42.169 -15.760   2.103  1.00  0.00     0.091 A 
HETATM    5  C   UNL     1      41.660 -15.672   0.799  1.00  0.00     0.088 A 
HETATM    6  N   UNL     1      41.295 -16.898   0.307  1.00  0.00    -0.242 NA
HETATM    7  C   UNL     1      41.543 -17.738   1.278  1.00  0.00     0.210 A 
HETATM    8  N   UNL     1      42.078 -17.111   2.374  1.00  0.00    -0.337 N 
HETATM    9  C   UNL     1      41.573 -14.439   0.144  1.00  0.00     0.051 A 
ENDROOT
BRANCH   1  10
HETATM   10  C   UNL     1      41.882 -11.960   0.193  1.00  0.00     0.253 C 
HETATM   11  N   UNL     1      40.733 -11.166   0.299  1.00  0.00    -0.350 N 
HETATM   12  C   UNL     1      40.688  -9.951  -0.502  1.00  0.00     0.153 C 
HETATM   13  O   UNL     1      42.884 -11.619  -0.436  1.00  0.00    -0.267 OA
BRANCH  11  14
HETATM   14  C   UNL     1      39.541 -11.529   1.093  1.00  0.00     0.158 C 
BRANCH  14  15
HETATM   15  C   UNL     1      39.257 -10.689   2.356  1.00  0.00     0.151 A 
HETATM   16  O   UNL     1      40.511 -10.368   3.015  1.00  0.00    -0.343 OA
HETATM   17  C   UNL     1      40.442 -10.972   4.240  1.00  0.00     0.075 A 
HETATM   18  C   UNL     1      39.243 -11.614   4.488  1.00  0.00    -0.022 A 
HETATM   19  C   UNL     1      41.461 -10.951   5.169  1.00  0.00     0.037 A 
HETATM   20  C   UNL     1      38.337 -11.448   3.335  1.00  0.00     0.075 A 
HETATM   21  C   UNL     1      39.018 -12.263   5.690  1.00  0.00     0.010 A 
HETATM   22  C   UNL     1      40.037 -12.257   6.645  1.00  0.00     0.001 A 
HETATM   23  C   UNL     1      41.252 -11.603   6.387  1.00  0.00     0.003 A 
ENDBRANCH  14  15
ENDBRANCH  11  14
ENDBRANCH   1  10
BRANCH   3  24
HETATM   24  N   UNL     1      43.224 -14.712   4.064  1.00  0.00    -0.323 N 
HETATM   25  C   UNL     1      42.614 -14.881   5.299  1.00  0.00     0.246 C 
HETATM   26  O   UNL     1      41.430 -15.106   5.516  1.00  0.00    -0.271 OA
HETATM   27  H   UNL     1      44.224 -14.589   4.128  1.00  0.00     0.169 HD
BRANCH  25  28
HETATM   28  C   UNL     1      43.635 -14.829   6.443  1.00  0.00     0.270 C 
BRANCH  28  29
HETATM   29  O   UNL     1      44.244 -16.096   6.700  1.00  0.00    -0.387 OA
HETATM   30  C   UNL     1      43.482 -16.865   7.629  1.00  0.00     0.202 C 
ENDBRANCH  28  29
ENDBRANCH  25  28
ENDBRANCH   3  24
BRANCH   8  31
HETATM   31  C   UNL     1      42.423 -17.843   3.581  1.00  0.00     0.134 C 
BRANCH  31  32
HETATM   32  C   UNL     1      43.903 -18.232   3.601  1.00  0.00     0.058 C 
BRANCH  32  33
HETATM   33  C   UNL     1      44.157 -19.717   3.489  1.00  0.00    -0.057 A 
HETATM   34  C   UNL     1      43.931 -20.423   2.299  1.00  0.00     0.007 A 
HETATM   35  C   UNL     1      44.168 -21.799   2.235  1.00  0.00     0.001 A 
HETATM   36  C   UNL     1      44.612 -22.489   3.361  1.00  0.00     0.000 A 
HETATM   37  C   UNL     1      44.817 -21.804   4.556  1.00  0.00     0.001 A 
HETATM   38  C   UNL     1      44.588 -20.429   4.620  1.00  0.00     0.007 A 
ENDBRANCH  32  33
ENDBRANCH  31  32
ENDBRANCH   8  31
TORSDOF 9
ENDMDL
MODEL 6
REMARK VINA RESULT:      -9.5      1.860      8.773
REMARK  9 active torsions:
REMARK  status: ('A' for Active; 'I' for Inactive)
REMARK       I    between atoms: N_2  and  C_3 
REMARK    1  A    between atoms: N_2  and  C_28 
REMARK    2  A    between atoms: C_3  and  C_4 
REMARK    3  A    between atoms: C_6  and  N_7 
REMARK       I    between atoms: N_7  and  C_8 
REMARK    4  A    between atoms: C_8  and  C_9 
REMARK    5  A    between atoms: C_9  and  O_10 
REMARK    6  A    between atoms: N_17  and  C_18 
REMARK    7  A    between atoms: C_18  and  C_19 
REMARK    8  A    between atoms: C_19  and  C_20 
REMARK    9  A    between atoms: C_28  and  C_29 
ROOT
HETATM    1  C   UNL     1      40.529 -14.377   3.545  1.00  0.00     0.036 A 
HETATM    2  C   UNL     1      41.834 -14.273   4.044  1.00  0.00     0.049 A 
HETATM    3  C   UNL     1      42.154 -13.446   5.136  1.00  0.00     0.065 A 
HETATM    4  C   UNL     1      41.091 -12.688   5.683  1.00  0.00     0.091 A 
HETATM    5  C   UNL     1      39.780 -12.809   5.198  1.00  0.00     0.088 A 
HETATM    6  N   UNL     1      38.907 -11.996   5.871  1.00  0.00    -0.242 NA
HETATM    7  C   UNL     1      39.643 -11.360   6.744  1.00  0.00     0.210 A 
HETATM    8  N   UNL     1      40.958 -11.744   6.682  1.00  0.00    -0.337 N 
HETATM    9  C   UNL     1      39.482 -13.684   4.148  1.00  0.00     0.051 A 
ENDROOT
BRANCH   1  10
HETATM   10  C   UNL     1      40.268 -15.334   2.443  1.00  0.00     0.253 C 
HETATM   11  N   UNL     1      40.824 -16.619   2.480  1.00  0.00    -0.350 N 
HETATM   12  C   UNL     1      40.668 -17.444   1.290  1.00  0.00     0.153 C 
HETATM   13  O   UNL     1      39.563 -14.928   1.520  1.00  0.00    -0.267 OA
BRANCH  11  14
HETATM   14  C   UNL     1      41.627 -17.148   3.601  1.00  0.00     0.158 C 
BRANCH  14  15
HETATM   15  C   UNL     1      43.093 -17.520   3.301  1.00  0.00     0.151 A 
HETATM   16  O   UNL     1      43.135 -18.480   2.210  1.00  0.00    -0.343 OA
HETATM   17  C   UNL     1      43.681 -19.614   2.747  1.00  0.00     0.075 A 
HETATM   18  C   UNL     1      44.062 -19.487   4.070  1.00  0.00    -0.022 A 
HETATM   19  C   UNL     1      43.854 -20.791   2.050  1.00  0.00     0.037 A 
HETATM   20  C   UNL     1      43.784 -18.118   4.544  1.00  0.00     0.075 A 
HETATM   21  C   UNL     1      44.639 -20.547   4.749  1.00  0.00     0.010 A 
HETATM   22  C   UNL     1      44.823 -21.750   4.062  1.00  0.00     0.001 A 
HETATM   23  C   UNL     1      44.433 -21.871   2.720  1.00  0.00     0.003 A 
ENDBRANCH  14  15
ENDBRANCH  11  14
ENDBRANCH   1  10
BRANCH   3  24
HETATM   24  N   UNL     1      43.445 -13.405   5.691  1.00  0.00    -0.323 N 
HETATM   25  C   UNL     1      44.043 -14.321   6.543  1.00  0.00     0.246 C 
HETATM   26  O   UNL     1      43.606 -15.417   6.878  1.00  0.00    -0.271 OA
HETATM   27  H   UNL     1      44.017 -12.590   5.519  1.00  0.00     0.169 HD
BRANCH  25  28
HETATM   28  C   UNL     1      45.426 -13.844   7.004  1.00  0.00     0.270 C 
BRANCH  28  29
HETATM   29  O   UNL     1      45.398 -13.228   8.293  1.00  0.00    -0.387 OA
HETATM   30  C   UNL     1      46.295 -12.120   8.365  1.00  0.00     0.202 C 
ENDBRANCH  28  29
ENDBRANCH  25  28
ENDBRANCH   3  24
BRANCH   8  31
HETATM   31  C   UNL     1      41.967 -11.162   7.551  1.00  0.00     0.134 C 
BRANCH  31  32
HETATM   32  C   UNL     1      41.337 -10.328   8.669  1.00  0.00     0.058 C 
BRANCH  32  33
HETATM   33  C   UNL     1      42.188 -10.213   9.912  1.00  0.00    -0.057 A 
HETATM   34  C   UNL     1      43.220 -11.118  10.196  1.00  0.00     0.007 A 
HETATM   35  C   UNL     1      43.980 -10.985  11.362  1.00  0.00     0.001 A 
HETATM   36  C   UNL     1      43.706  -9.962  12.266  1.00  0.00     0.000 A 
HETATM   37  C   UNL     1      42.667  -9.071  12.009  1.00  0.00     0.001 A 
HETATM   38  C   UNL     1      41.912  -9.197  10.843  1.00  0.00     0.007 A 
ENDBRANCH  32  33
ENDBRANCH  31  32
ENDBRANCH   8  31
TORSDOF 9
ENDMDL
MODEL 7
REMARK VINA RESULT:      -9.4      3.702      6.944
REMARK  9 active torsions:
REMARK  status: ('A' for Active; 'I' for Inactive)
REMARK       I    between atoms: N_2  and  C_3 
REMARK    1  A    between atoms: N_2  and  C_28 
REMARK    2  A    between atoms: C_3  and  C_4 
REMARK    3  A    between atoms: C_6  and  N_7 
REMARK       I    between atoms: N_7  and  C_8 
REMARK    4  A    between atoms: C_8  and  C_9 
REMARK    5  A    between atoms: C_9  and  O_10 
REMARK    6  A    between atoms: N_17  and  C_18 
REMARK    7  A    between atoms: C_18  and  C_19 
REMARK    8  A    between atoms: C_19  and  C_20 
REMARK    9  A    between atoms: C_28  and  C_29 
ROOT
HETATM    1  C   UNL     1      39.725 -13.365   2.243  1.00  0.00     0.036 A 
HETATM    2  C   UNL     1      39.770 -14.113   3.426  1.00  0.00     0.049 A 
HETATM    3  C   UNL     1      40.532 -15.291   3.540  1.00  0.00     0.065 A 
HETATM    4  C   UNL     1      41.222 -15.706   2.376  1.00  0.00     0.091 A 
HETATM    5  C   UNL     1      41.194 -14.946   1.198  1.00  0.00     0.088 A 
HETATM    6  N   UNL     1      41.934 -15.521   0.198  1.00  0.00    -0.242 NA
HETATM    7  C   UNL     1      42.400 -16.627   0.718  1.00  0.00     0.210 A 
HETATM    8  N   UNL     1      42.013 -16.783   2.024  1.00  0.00    -0.337 N 
HETATM    9  C   UNL     1      40.475 -13.748   1.134  1.00  0.00     0.051 A 
ENDROOT
BRANCH   1  10
HETATM   10  C   UNL     1      38.961 -12.094   2.239  1.00  0.00     0.253 C 
HETATM   11  N   UNL     1      37.884 -11.922   1.362  1.00  0.00    -0.350 N 
HETATM   12  C   UNL     1      37.289 -10.595   1.293  1.00  0.00     0.153 C 
HETATM   13  O   UNL     1      39.338 -11.227   3.027  1.00  0.00    -0.267 OA
BRANCH  11  14
HETATM   14  C   UNL     1      37.379 -12.966   0.447  1.00  0.00     0.158 C 
BRANCH  14  15
HETATM   15  C   UNL     1      37.607 -12.747  -1.063  1.00  0.00     0.151 A 
HETATM   16  O   UNL     1      37.896 -14.021  -1.698  1.00  0.00    -0.343 OA
HETATM   17  C   UNL     1      39.166 -13.900  -2.191  1.00  0.00     0.075 A 
HETATM   18  C   UNL     1      39.731 -12.653  -2.001  1.00  0.00    -0.022 A 
HETATM   19  C   UNL     1      39.844 -14.916  -2.833  1.00  0.00     0.037 A 
HETATM   20  C   UNL     1      38.772 -11.766  -1.315  1.00  0.00     0.075 A 
HETATM   21  C   UNL     1      41.009 -12.375  -2.454  1.00  0.00     0.010 A 
HETATM   22  C   UNL     1      41.715 -13.388  -3.106  1.00  0.00     0.001 A 
HETATM   23  C   UNL     1      41.135 -14.652  -3.295  1.00  0.00     0.003 A 
ENDBRANCH  14  15
ENDBRANCH  11  14
ENDBRANCH   1  10
BRANCH   3  24
HETATM   24  N   UNL     1      40.645 -15.996   4.751  1.00  0.00    -0.323 N 
HETATM   25  C   UNL     1      41.504 -15.748   5.811  1.00  0.00     0.246 C 
HETATM   26  O   UNL     1      42.246 -14.783   5.954  1.00  0.00    -0.271 OA
HETATM   27  H   UNL     1      40.090 -16.831   4.875  1.00  0.00     0.169 HD
BRANCH  25  28
HETATM   28  C   UNL     1      41.382 -16.823   6.898  1.00  0.00     0.270 C 
BRANCH  28  29
HETATM   29  O   UNL     1      42.557 -17.626   7.018  1.00  0.00    -0.387 OA
HETATM   30  C   UNL     1      43.315 -17.278   8.176  1.00  0.00     0.202 C 
ENDBRANCH  28  29
ENDBRANCH  25  28
ENDBRANCH   3  24
BRANCH   8  31
HETATM   31  C   UNL     1      42.402 -17.944   2.804  1.00  0.00     0.134 C 
BRANCH  31  32
HETATM   32  C   UNL     1      43.814 -18.416   2.451  1.00  0.00     0.058 C 
BRANCH  32  33
HETATM   33  C   UNL     1      44.109 -19.845   2.842  1.00  0.00    -0.057 A 
HETATM   34  C   UNL     1      44.588 -20.185   4.115  1.00  0.00     0.007 A 
HETATM   35  C   UNL     1      44.859 -21.518   4.438  1.00  0.00     0.001 A 
HETATM   36  C   UNL     1      44.674 -22.522   3.491  1.00  0.00     0.000 A 
HETATM   37  C   UNL     1      44.222 -22.196   2.215  1.00  0.00     0.001 A 
HETATM   38  C   UNL     1      43.944 -20.866   1.892  1.00  0.00     0.007 A 
ENDBRANCH  32  33
ENDBRANCH  31  32
ENDBRANCH   8  31
TORSDOF 9
ENDMDL
MODEL 8
REMARK VINA RESULT:      -9.3      1.932      3.034
REMARK  9 active torsions:
REMARK  status: ('A' for Active; 'I' for Inactive)
REMARK       I    between atoms: N_2  and  C_3 
REMARK    1  A    between atoms: N_2  and  C_28 
REMARK    2  A    between atoms: C_3  and  C_4 
REMARK    3  A    between atoms: C_6  and  N_7 
REMARK       I    between atoms: N_7  and  C_8 
REMARK    4  A    between atoms: C_8  and  C_9 
REMARK    5  A    between atoms: C_9  and  O_10 
REMARK    6  A    between atoms: N_17  and  C_18 
REMARK    7  A    between atoms: C_18  and  C_19 
REMARK    8  A    between atoms: C_19  and  C_20 
REMARK    9  A    between atoms: C_28  and  C_29 
ROOT
HETATM    1  C   UNL     1      41.056 -10.419   6.303  1.00  0.00     0.036 A 
HETATM    2  C   UNL     1      41.760 -11.573   6.669  1.00  0.00     0.049 A 
HETATM    3  C   UNL     1      41.649 -12.778   5.950  1.00  0.00     0.065 A 
HETATM    4  C   UNL     1      40.752 -12.777   4.857  1.00  0.00     0.091 A 
HETATM    5  C   UNL     1      40.062 -11.615   4.477  1.00  0.00     0.088 A 
HETATM    6  N   UNL     1      39.254 -11.829   3.392  1.00  0.00    -0.242 NA
HETATM    7  C   UNL     1      39.407 -13.095   3.103  1.00  0.00     0.210 A 
HETATM    8  N   UNL     1      40.302 -13.709   3.942  1.00  0.00    -0.337 N 
HETATM    9  C   UNL     1      40.238 -10.416   5.176  1.00  0.00     0.051 A 
ENDROOT
BRANCH   1  10
HETATM   10  C   UNL     1      41.296  -9.173   7.068  1.00  0.00     0.253 C 
HETATM   11  N   UNL     1      40.814  -9.045   8.377  1.00  0.00    -0.350 N 
HETATM   12  C   UNL     1      40.937  -7.737   9.006  1.00  0.00     0.153 C 
HETATM   13  O   UNL     1      41.917  -8.283   6.486  1.00  0.00    -0.267 OA
BRANCH  11  14
HETATM   14  C   UNL     1      40.115 -10.117   9.116  1.00  0.00     0.158 C 
BRANCH  14  15
HETATM   15  C   UNL     1      40.983 -11.057   9.978  1.00  0.00     0.151 A 
HETATM   16  O   UNL     1      40.389 -11.188  11.297  1.00  0.00    -0.343 OA
HETATM   17  C   UNL     1      41.312 -10.669  12.163  1.00  0.00     0.075 A 
HETATM   18  C   UNL     1      42.487 -10.260  11.561  1.00  0.00    -0.022 A 
HETATM   19  C   UNL     1      41.116 -10.560  13.524  1.00  0.00     0.037 A 
HETATM   20  C   UNL     1      42.424 -10.521  10.110  1.00  0.00     0.075 A 
HETATM   21  C   UNL     1      43.520  -9.722  12.308  1.00  0.00     0.010 A 
HETATM   22  C   UNL     1      43.344  -9.600  13.689  1.00  0.00     0.001 A 
HETATM   23  C   UNL     1      42.148 -10.018  14.294  1.00  0.00     0.003 A 
ENDBRANCH  14  15
ENDBRANCH  11  14
ENDBRANCH   1  10
BRANCH   3  24
HETATM   24  N   UNL     1      42.420 -13.911   6.265  1.00  0.00    -0.323 N 
HETATM   25  C   UNL     1      43.606 -14.332   5.681  1.00  0.00     0.246 C 
HETATM   26  O   UNL     1      44.285 -13.726   4.861  1.00  0.00    -0.271 OA
HETATM   27  H   UNL     1      42.066 -14.557   6.956  1.00  0.00     0.169 HD
BRANCH  25  28
HETATM   28  C   UNL     1      44.063 -15.683   6.246  1.00  0.00     0.270 C 
BRANCH  28  29
HETATM   29  O   UNL     1      43.769 -15.830   7.637  1.00  0.00    -0.387 OA
HETATM   30  C   UNL     1      43.227 -17.118   7.925  1.00  0.00     0.202 C 
ENDBRANCH  28  29
ENDBRANCH  25  28
ENDBRANCH   3  24
BRANCH   8  31
HETATM   31  C   UNL     1      40.623 -15.120   3.819  1.00  0.00     0.134 C 
BRANCH  31  32
HETATM   32  C   UNL     1      41.032 -15.484   2.390  1.00  0.00     0.058 C 
BRANCH  32  33
HETATM   33  C   UNL     1      42.083 -16.566   2.300  1.00  0.00    -0.057 A 
HETATM   34  C   UNL     1      42.919 -16.702   1.184  1.00  0.00     0.007 A 
HETATM   35  C   UNL     1      43.873 -17.722   1.133  1.00  0.00     0.001 A 
HETATM   36  C   UNL     1      43.990 -18.629   2.184  1.00  0.00     0.000 A 
HETATM   37  C   UNL     1      43.149 -18.521   3.288  1.00  0.00     0.001 A 
HETATM   38  C   UNL     1      42.200 -17.498   3.345  1.00  0.00     0.007 A 
ENDBRANCH  32  33
ENDBRANCH  31  32
ENDBRANCH   8  31
TORSDOF 9
ENDMDL
MODEL 9
REMARK VINA RESULT:      -9.1      3.862      8.418
REMARK  9 active torsions:
REMARK  status: ('A' for Active; 'I' for Inactive)
REMARK       I    between atoms: N_2  and  C_3 
REMARK    1  A    between atoms: N_2  and  C_28 
REMARK    2  A    between atoms: C_3  and  C_4 
REMARK    3  A    between atoms: C_6  and  N_7 
REMARK       I    between atoms: N_7  and  C_8 
REMARK    4  A    between atoms: C_8  and  C_9 
REMARK    5  A    between atoms: C_9  and  O_10 
REMARK    6  A    between atoms: N_17  and  C_18 
REMARK    7  A    between atoms: C_18  and  C_19 
REMARK    8  A    between atoms: C_19  and  C_20 
REMARK    9  A    between atoms: C_28  and  C_29 
ROOT
HETATM    1  C   UNL     1      41.667 -13.645   3.970  1.00  0.00     0.036 A 
HETATM    2  C   UNL     1      42.097 -12.638   3.096  1.00  0.00     0.049 A 
HETATM    3  C   UNL     1      41.415 -12.341   1.902  1.00  0.00     0.065 A 
HETATM    4  C   UNL     1      40.287 -13.143   1.607  1.00  0.00     0.091 A 
HETATM    5  C   UNL     1      39.843 -14.137   2.492  1.00  0.00     0.088 A 
HETATM    6  N   UNL     1      38.734 -14.787   2.020  1.00  0.00    -0.242 NA
HETATM    7  C   UNL     1      38.493 -14.240   0.857  1.00  0.00     0.210 A 
HETATM    8  N   UNL     1      39.386 -13.242   0.564  1.00  0.00    -0.337 N 
HETATM    9  C   UNL     1      40.509 -14.370   3.700  1.00  0.00     0.051 A 
ENDROOT
BRANCH   1  10
HETATM   10  C   UNL     1      42.400 -13.835   5.244  1.00  0.00     0.253 C 
HETATM   11  N   UNL     1      43.236 -14.945   5.418  1.00  0.00    -0.350 N 
HETATM   12  C   UNL     1      43.789 -15.158   6.748  1.00  0.00     0.153 C 
HETATM   13  O   UNL     1      42.218 -12.982   6.114  1.00  0.00    -0.267 OA
BRANCH  11  14
HETATM   14  C   UNL     1      43.513 -15.951   4.372  1.00  0.00     0.158 C 
BRANCH  14  15
HETATM   15  C   UNL     1      42.797 -17.311   4.499  1.00  0.00     0.151 A 
HETATM   16  O   UNL     1      43.729 -18.303   5.007  1.00  0.00    -0.343 OA
HETATM   17  C   UNL     1      43.844 -19.235   4.013  1.00  0.00     0.075 A 
HETATM   18  C   UNL     1      43.037 -18.996   2.916  1.00  0.00    -0.022 A 
HETATM   19  C   UNL     1      44.679 -20.331   4.076  1.00  0.00     0.037 A 
HETATM   20  C   UNL     1      42.237 -17.776   3.138  1.00  0.00     0.075 A 
HETATM   21  C   UNL     1      43.035 -19.858   1.833  1.00  0.00     0.010 A 
HETATM   22  C   UNL     1      43.874 -20.974   1.874  1.00  0.00     0.001 A 
HETATM   23  C   UNL     1      44.691 -21.210   2.991  1.00  0.00     0.003 A 
ENDBRANCH  14  15
ENDBRANCH  11  14
ENDBRANCH   1  10
BRANCH   3  24
HETATM   24  N   UNL     1      41.796 -11.276   1.067  1.00  0.00    -0.323 N 
HETATM   25  C   UNL     1      41.336  -9.967   1.080  1.00  0.00     0.246 C 
HETATM   26  O   UNL     1      40.598  -9.449   1.910  1.00  0.00    -0.271 OA
HETATM   27  H   UNL     1      42.439 -11.464   0.311  1.00  0.00     0.169 HD
BRANCH  25  28
HETATM   28  C   UNL     1      41.931  -9.150  -0.073  1.00  0.00     0.270 C 
BRANCH  28  29
HETATM   29  O   UNL     1      43.360  -9.136  -0.064  1.00  0.00    -0.387 OA
HETATM   30  C   UNL     1      43.888  -8.698  -1.315  1.00  0.00     0.202 C 
ENDBRANCH  28  29
ENDBRANCH  25  28
ENDBRANCH   3  24
BRANCH   8  31
HETATM   31  C   UNL     1      39.322 -12.498  -0.681  1.00  0.00     0.134 C 
BRANCH  31  32
HETATM   32  C   UNL     1      40.303 -13.048  -1.720  1.00  0.00     0.058 C 
BRANCH  32  33
HETATM   33  C   UNL     1      39.762 -14.197  -2.538  1.00  0.00    -0.057 A 
HETATM   34  C   UNL     1      40.513 -15.353  -2.787  1.00  0.00     0.007 A 
HETATM   35  C   UNL     1      39.984 -16.392  -3.557  1.00  0.00     0.001 A 
HETATM   36  C   UNL     1      38.708 -16.281  -4.104  1.00  0.00     0.000 A 
HETATM   37  C   UNL     1      37.959 -15.127  -3.886  1.00  0.00     0.001 A 
HETATM   38  C   UNL     1      38.484 -14.091  -3.111  1.00  0.00     0.007 A 
ENDBRANCH  32  33
ENDBRANCH  31  32
ENDBRANCH   8  31
TORSDOF 9
ENDMDL
MODEL 10
REMARK VINA RESULT:      -9.0      1.969      8.039
REMARK  9 active torsions:
REMARK  status: ('A' for Active; 'I' for Inactive)
REMARK       I    between atoms: N_2  and  C_3 
REMARK    1  A    between atoms: N_2  and  C_28 
REMARK    2  A    between atoms: C_3  and  C_4 
REMARK    3  A    between atoms: C_6  and  N_7 
REMARK       I    between atoms: N_7  and  C_8 
REMARK    4  A    between atoms: C_8  and  C_9 
REMARK    5  A    between atoms: C_9  and  O_10 
REMARK    6  A    between atoms: N_17  and  C_18 
REMARK    7  A    between atoms: C_18  and  C_19 
REMARK    8  A    between atoms: C_19  and  C_20 
REMARK    9  A    between atoms: C_28  and  C_29 
ROOT
HETATM    1  C   UNL     1      40.137 -13.334   3.852  1.00  0.00     0.036 A 
HETATM    2  C   UNL     1      41.255 -13.679   4.622  1.00  0.00     0.049 A 
HETATM    3  C   UNL     1      41.623 -12.959   5.774  1.00  0.00     0.065 A 
HETATM    4  C   UNL     1      40.824 -11.836   6.094  1.00  0.00     0.091 A 
HETATM    5  C   UNL     1      39.692 -11.503   5.335  1.00  0.00     0.088 A 
HETATM    6  N   UNL     1      39.058 -10.389   5.820  1.00  0.00    -0.242 NA
HETATM    7  C   UNL     1      39.779 -10.011   6.844  1.00  0.00     0.210 A 
HETATM    8  N   UNL     1      40.843 -10.849   7.059  1.00  0.00    -0.337 N 
HETATM    9  C   UNL     1      39.317 -12.273   4.229  1.00  0.00     0.051 A 
ENDROOT
BRANCH   1  10
HETATM   10  C   UNL     1      39.778 -14.197   2.702  1.00  0.00     0.253 C 
HETATM   11  N   UNL     1      40.607 -15.265   2.336  1.00  0.00    -0.350 N 
HETATM   12  C   UNL     1      40.284 -15.963   1.099  1.00  0.00     0.153 C 
HETATM   13  O   UNL     1      38.741 -13.909   2.103  1.00  0.00    -0.267 OA
BRANCH  11  14
HETATM   14  C   UNL     1      41.825 -15.664   3.070  1.00  0.00     0.158 C 
BRANCH  14  15
HETATM   15  C   UNL     1      41.820 -17.056   3.735  1.00  0.00     0.151 A 
HETATM   16  O   UNL     1      41.383 -16.930   5.115  1.00  0.00    -0.343 OA
HETATM   17  C   UNL     1      42.450 -17.334   5.871  1.00  0.00     0.075 A 
HETATM   18  C   UNL     1      43.533 -17.773   5.133  1.00  0.00    -0.022 A 
HETATM   19  C   UNL     1      42.466 -17.323   7.250  1.00  0.00     0.037 A 
HETATM   20  C   UNL     1      43.222 -17.700   3.692  1.00  0.00     0.075 A 
HETATM   21  C   UNL     1      44.684 -18.224   5.756  1.00  0.00     0.010 A 
HETATM   22  C   UNL     1      44.724 -18.220   7.153  1.00  0.00     0.001 A 
HETATM   23  C   UNL     1      43.620 -17.772   7.896  1.00  0.00     0.003 A 
ENDBRANCH  14  15
ENDBRANCH  11  14
ENDBRANCH   1  10
BRANCH   3  24
HETATM   24  N   UNL     1      42.694 -13.355   6.594  1.00  0.00    -0.323 N 
HETATM   25  C   UNL     1      43.960 -13.772   6.210  1.00  0.00     0.246 C 
HETATM   26  O   UNL     1      44.437 -13.752   5.082  1.00  0.00    -0.271 OA
HETATM   27  H   UNL     1      42.540 -13.416   7.591  1.00  0.00     0.169 HD
BRANCH  25  28
HETATM   28  C   UNL     1      44.794 -14.221   7.417  1.00  0.00     0.270 C 
BRANCH  28  29
HETATM   29  O   UNL     1      44.673 -13.339   8.534  1.00  0.00    -0.387 OA
HETATM   30  C   UNL     1      45.742 -12.396   8.576  1.00  0.00     0.202 C 
ENDBRANCH  28  29
ENDBRANCH  25  28
ENDBRANCH   3  24
BRANCH   8  31
HETATM   31  C   UNL     1      41.791 -10.620   8.136  1.00  0.00     0.134 C 
BRANCH  31  32
HETATM   32  C   UNL     1      41.138  -9.905   9.322  1.00  0.00     0.058 C 
BRANCH  32  33
HETATM   33  C   UNL     1      41.978  -9.891  10.577  1.00  0.00    -0.057 A 
HETATM   34  C   UNL     1      42.714 -11.009  10.994  1.00  0.00     0.007 A 
HETATM   35  C   UNL     1      43.472 -10.962  12.168  1.00  0.00     0.001 A 
HETATM   36  C   UNL     1      43.489  -9.808  12.948  1.00  0.00     0.000 A 
HETATM   37  C   UNL     1      42.742  -8.698  12.559  1.00  0.00     0.001 A 
HETATM   38  C   UNL     1      41.990  -8.741  11.384  1.00  0.00     0.007 A 
ENDBRANCH  32  33
ENDBRANCH  31  32
ENDBRANCH   8  31
TORSDOF 9
ENDMDL
