MODEL 1
REMARK VINA RESULT:      -9.3      0.000      0.000
REMARK  5 active torsions:
REMARK  status: ('A' for Active; 'I' for Inactive)
REMARK    1  A    between atoms: C_2  and  C_3 
REMARK    2  A    between atoms: C_6  and  N_7 
REMARK       I    between atoms: N_7  and  C_8 
REMARK       I    between atoms: C_8  and  N_9 
REMARK    3  A    between atoms: N_9  and  C_10 
REMARK    4  A    between atoms: N_20  and  N_21 
REMARK       I    between atoms: N_21  and  C_22 
REMARK    5  A    between atoms: C_22  and  C_23 
ROOT
HETATM    1  C   UNL     1      41.780 -15.000   4.123  1.00  0.00    -0.010 A 
HETATM    2  C   UNL     1      41.862 -15.523   5.417  1.00  0.00     0.016 A 
HETATM    3  C   UNL     1      42.895 -15.116   6.271  1.00  0.00     0.030 A 
HETATM    4  C   UNL     1      43.848 -14.190   5.834  1.00  0.00     0.036 A 
HETATM    5  C   UNL     1      43.776 -13.696   4.527  1.00  0.00     0.030 A 
HETATM    6  C   UNL     1      42.730 -14.073   3.684  1.00  0.00     0.016 A 
ENDROOT
BRANCH   1   7
HETATM    7  C   UNL     1      40.684 -15.411   3.208  1.00  0.00     0.061 C 
HETATM    8  C   UNL     1      39.666 -14.353   2.844  1.00  0.00     0.073 C 
HETATM    9  N   UNL     1      40.541 -16.582   2.659  1.00  0.00    -0.176 NA
BRANCH   9  10
HETATM   10  N   UNL     1      41.368 -17.601   3.029  1.00  0.00    -0.243 N 
HETATM   11  C   UNL     1      42.358 -18.035   2.158  1.00  0.00     0.273 C 
HETATM   12  O   UNL     1      42.557 -17.588   1.032  1.00  0.00    -0.266 OA
HETATM   13  H   UNL     1      41.146 -18.112   3.873  1.00  0.00     0.192 HD
BRANCH  11  14
HETATM   14  C   UNL     1      43.231 -19.129   2.655  1.00  0.00     0.051 A 
HETATM   15  C   UNL     1      43.927 -19.051   3.856  1.00  0.00     0.133 A 
HETATM   16  N   UNL     1      44.741 -20.027   4.329  1.00  0.00    -0.272 NA
HETATM   17  C   UNL     1      44.887 -21.123   3.552  1.00  0.00     0.116 A 
HETATM   18  C   UNL     1      44.259 -21.288   2.328  1.00  0.00     0.020 A 
HETATM   19  C   UNL     1      43.421 -20.271   1.874  1.00  0.00     0.020 A 
ENDBRANCH  11  14
ENDBRANCH   9  10
ENDBRANCH   1   7
BRANCH   4  20
HETATM   20  N   UNL     1      44.932 -13.762   6.615  1.00  0.00    -0.309 N 
HETATM   21  C   UNL     1      45.014 -13.183   7.852  1.00  0.00     0.325 C 
HETATM   22  N   UNL     1      43.873 -12.590   8.324  1.00  0.00    -0.309 N 
HETATM   23  O   UNL     1      46.122 -13.143   8.383  1.00  0.00    -0.247 OA
HETATM   24  H   UNL     1      43.101 -12.563   7.677  1.00  0.00     0.170 HD
HETATM   25  H   UNL     1      45.857 -13.864   6.211  1.00  0.00     0.170 HD
BRANCH  22  26
HETATM   26  C   UNL     1      43.731 -11.796   9.481  1.00  0.00     0.036 A 
HETATM   27  C   UNL     1      43.110 -10.544   9.502  1.00  0.00     0.031 A 
HETATM   28  C   UNL     1      42.956  -9.845  10.705  1.00  0.00     0.026 A 
HETATM   29  C   UNL     1      43.435 -10.390  11.892  1.00  0.00     0.034 A 
HETATM   30 CL   UNL     1      43.232  -9.537  13.372  1.00  0.00    -0.084 Cl
HETATM   31  C   UNL     1      44.074 -11.625  11.886  1.00  0.00     0.026 A 
HETATM   32  C   UNL     1      44.221 -12.326  10.684  1.00  0.00     0.031 A 
ENDBRANCH  22  26
ENDBRANCH   4  20
TORSDOF 5
ENDMDL
MODEL 2
REMARK VINA RESULT:      -9.1      5.737      9.582
REMARK  5 active torsions:
REMARK  status: ('A' for Active; 'I' for Inactive)
REMARK    1  A    between atoms: C_2  and  C_3 
REMARK    2  A    between atoms: C_6  and  N_7 
REMARK       I    between atoms: N_7  and  C_8 
REMARK       I    between atoms: C_8  and  N_9 
REMARK    3  A    between atoms: N_9  and  C_10 
REMARK    4  A    between atoms: N_20  and  N_21 
REMARK       I    between atoms: N_21  and  C_22 
REMARK    5  A    between atoms: C_22  and  C_23 
ROOT
HETATM    1  C   UNL     1      41.353 -15.871   2.749  1.00  0.00    -0.010 A 
HETATM    2  C   UNL     1      41.837 -14.725   2.109  1.00  0.00     0.016 A 
HETATM    3  C   UNL     1      41.880 -14.671   0.710  1.00  0.00     0.030 A 
HETATM    4  C   UNL     1      41.443 -15.762  -0.051  1.00  0.00     0.036 A 
HETATM    5  C   UNL     1      40.991 -16.915   0.599  1.00  0.00     0.030 A 
HETATM    6  C   UNL     1      40.916 -16.961   1.992  1.00  0.00     0.016 A 
ENDROOT
BRANCH   1   7
HETATM    7  C   UNL     1      41.290 -15.940   4.232  1.00  0.00     0.061 C 
HETATM    8  C   UNL     1      40.882 -14.677   4.957  1.00  0.00     0.073 C 
HETATM    9  N   UNL     1      41.514 -16.994   4.962  1.00  0.00    -0.176 NA
BRANCH   9  10
HETATM   10  N   UNL     1      41.983 -18.130   4.372  1.00  0.00    -0.243 N 
HETATM   11  C   UNL     1      43.342 -18.411   4.402  1.00  0.00     0.273 C 
HETATM   12  O   UNL     1      44.202 -17.698   4.910  1.00  0.00    -0.266 OA
HETATM   13  H   UNL     1      41.344 -18.668   3.801  1.00  0.00     0.192 HD
BRANCH  11  14
HETATM   14  C   UNL     1      43.759 -19.684   3.761  1.00  0.00     0.051 A 
HETATM   15  C   UNL     1      44.534 -20.637   4.411  1.00  0.00     0.133 A 
HETATM   16  N   UNL     1      44.940 -21.802   3.848  1.00  0.00    -0.272 NA
HETATM   17  C   UNL     1      44.576 -22.013   2.564  1.00  0.00     0.116 A 
HETATM   18  C   UNL     1      43.828 -21.116   1.819  1.00  0.00     0.020 A 
HETATM   19  C   UNL     1      43.417 -19.933   2.429  1.00  0.00     0.020 A 
ENDBRANCH  11  14
ENDBRANCH   9  10
ENDBRANCH   1   7
BRANCH   4  20
HETATM   20  N   UNL     1      41.490 -15.800  -1.452  1.00  0.00    -0.309 N 
HETATM   21  C   UNL     1      40.713 -15.229  -2.423  1.00  0.00     0.325 C 
HETATM   22  N   UNL     1      39.468 -14.808  -2.037  1.00  0.00    -0.309 N 
HETATM   23  O   UNL     1      41.147 -15.244  -3.573  1.00  0.00    -0.247 OA
HETATM   24  H   UNL     1      39.209 -15.035  -1.090  1.00  0.00     0.170 HD
HETATM   25  H   UNL     1      42.216 -16.370  -1.872  1.00  0.00     0.170 HD
BRANCH  22  26
HETATM   26  C   UNL     1      38.424 -14.338  -2.862  1.00  0.00     0.036 A 
HETATM   27  C   UNL     1      37.589 -15.165  -3.619  1.00  0.00     0.031 A 
HETATM   28  C   UNL     1      36.537 -14.623  -4.366  1.00  0.00     0.026 A 
HETATM   29  C   UNL     1      36.322 -13.249  -4.370  1.00  0.00     0.034 A 
HETATM   30 CL   UNL     1      35.019 -12.585  -5.276  1.00  0.00    -0.084 Cl
HETATM   31  C   UNL     1      37.157 -12.409  -3.639  1.00  0.00     0.026 A 
HETATM   32  C   UNL     1      38.204 -12.953  -2.887  1.00  0.00     0.031 A 
ENDBRANCH  22  26
ENDBRANCH   4  20
TORSDOF 5
ENDMDL
MODEL 3
REMARK VINA RESULT:      -9.0      5.133      8.587
REMARK  5 active torsions:
REMARK  status: ('A' for Active; 'I' for Inactive)
REMARK    1  A    between atoms: C_2  and  C_3 
REMARK    2  A    between atoms: C_6  and  N_7 
REMARK       I    between atoms: N_7  and  C_8 
REMARK       I    between atoms: C_8  and  N_9 
REMARK    3  A    between atoms: N_9  and  C_10 
REMARK    4  A    between atoms: N_20  and  N_21 
REMARK       I    between atoms: N_21  and  C_22 
REMARK    5  A    between atoms: C_22  and  C_23 
ROOT
HETATM    1  C   UNL     1      41.981 -16.211   3.580  1.00  0.00    -0.010 A 
HETATM    2  C   UNL     1      43.019 -16.253   2.644  1.00  0.00     0.016 A 
HETATM    3  C   UNL     1      42.726 -16.255   1.275  1.00  0.00     0.030 A 
HETATM    4  C   UNL     1      41.396 -16.218   0.838  1.00  0.00     0.036 A 
HETATM    5  C   UNL     1      40.365 -16.208   1.783  1.00  0.00     0.030 A 
HETATM    6  C   UNL     1      40.653 -16.172   3.148  1.00  0.00     0.016 A 
ENDROOT
BRANCH   1   7
HETATM    7  C   UNL     1      42.275 -16.196   5.037  1.00  0.00     0.061 C 
HETATM    8  C   UNL     1      42.120 -14.870   5.750  1.00  0.00     0.073 C 
HETATM    9  N   UNL     1      42.613 -17.221   5.763  1.00  0.00    -0.176 NA
BRANCH   9  10
HETATM   10  N   UNL     1      42.866 -18.416   5.157  1.00  0.00    -0.243 N 
HETATM   11  C   UNL     1      44.166 -18.899   5.102  1.00  0.00     0.273 C 
HETATM   12  O   UNL     1      45.155 -18.323   5.545  1.00  0.00    -0.266 OA
HETATM   13  H   UNL     1      42.118 -18.852   4.635  1.00  0.00     0.192 HD
BRANCH  11  14
HETATM   14  C   UNL     1      44.344 -20.222   4.451  1.00  0.00     0.051 A 
HETATM   15  C   UNL     1      44.700 -21.367   5.153  1.00  0.00     0.133 A 
HETATM   16  N   UNL     1      44.882 -22.584   4.585  1.00  0.00    -0.272 NA
HETATM   17  C   UNL     1      44.724 -22.656   3.245  1.00  0.00     0.116 A 
HETATM   18  C   UNL     1      44.395 -21.570   2.449  1.00  0.00     0.020 A 
HETATM   19  C   UNL     1      44.206 -20.335   3.065  1.00  0.00     0.020 A 
ENDBRANCH  11  14
ENDBRANCH   9  10
ENDBRANCH   1   7
BRANCH   4  20
HETATM   20  N   UNL     1      41.020 -16.256  -0.512  1.00  0.00    -0.309 N 
HETATM   21  C   UNL     1      41.289 -15.436  -1.575  1.00  0.00     0.325 C 
HETATM   22  N   UNL     1      41.715 -14.170  -1.274  1.00  0.00    -0.309 N 
HETATM   23  O   UNL     1      41.020 -15.861  -2.696  1.00  0.00    -0.247 OA
HETATM   24  H   UNL     1      41.710 -13.934  -0.294  1.00  0.00     0.170 HD
HETATM   25  H   UNL     1      40.410 -17.014  -0.797  1.00  0.00     0.170 HD
BRANCH  22  26
HETATM   26  C   UNL     1      41.904 -13.091  -2.163  1.00  0.00     0.036 A 
HETATM   27  C   UNL     1      41.342 -13.020  -3.441  1.00  0.00     0.031 A 
HETATM   28  C   UNL     1      41.531 -11.886  -4.240  1.00  0.00     0.026 A 
HETATM   29  C   UNL     1      42.295 -10.822  -3.769  1.00  0.00     0.034 A 
HETATM   30 CL   UNL     1      42.514  -9.423  -4.745  1.00  0.00    -0.084 Cl
HETATM   31  C   UNL     1      42.879 -10.887  -2.508  1.00  0.00     0.026 A 
HETATM   32  C   UNL     1      42.684 -12.017  -1.708  1.00  0.00     0.031 A 
ENDBRANCH  22  26
ENDBRANCH   4  20
TORSDOF 5
ENDMDL
MODEL 4
REMARK VINA RESULT:      -8.7      2.752      4.737
REMARK  5 active torsions:
REMARK  status: ('A' for Active; 'I' for Inactive)
REMARK    1  A    between atoms: C_2  and  C_3 
REMARK    2  A    between atoms: C_6  and  N_7 
REMARK       I    between atoms: N_7  and  C_8 
REMARK       I    between atoms: C_8  and  N_9 
REMARK    3  A    between atoms: N_9  and  C_10 
REMARK    4  A    between atoms: N_20  and  N_21 
REMARK       I    between atoms: N_21  and  C_22 
REMARK    5  A    between atoms: C_22  and  C_23 
ROOT
HETATM    1  C   UNL     1      41.511 -15.112   5.027  1.00  0.00    -0.010 A 
HETATM    2  C   UNL     1      40.381 -14.678   5.728  1.00  0.00     0.016 A 
HETATM    3  C   UNL     1      40.287 -13.345   6.146  1.00  0.00     0.030 A 
HETATM    4  C   UNL     1      41.322 -12.445   5.868  1.00  0.00     0.036 A 
HETATM    5  C   UNL     1      42.462 -12.896   5.194  1.00  0.00     0.030 A 
HETATM    6  C   UNL     1      42.545 -14.216   4.747  1.00  0.00     0.016 A 
ENDROOT
BRANCH   1   7
HETATM    7  C   UNL     1      41.621 -16.521   4.566  1.00  0.00     0.061 C 
HETATM    8  C   UNL     1      42.579 -17.413   5.324  1.00  0.00     0.073 C 
HETATM    9  N   UNL     1      40.943 -17.068   3.600  1.00  0.00    -0.176 NA
BRANCH   9  10
HETATM   10  N   UNL     1      40.142 -16.289   2.819  1.00  0.00    -0.243 N 
HETATM   11  C   UNL     1      40.661 -15.695   1.677  1.00  0.00     0.273 C 
HETATM   12  O   UNL     1      41.824 -15.788   1.296  1.00  0.00    -0.266 OA
HETATM   13  H   UNL     1      39.225 -16.047   3.171  1.00  0.00     0.192 HD
BRANCH  11  14
HETATM   14  C   UNL     1      39.709 -14.888   0.871  1.00  0.00     0.051 A 
HETATM   15  C   UNL     1      40.042 -14.338  -0.361  1.00  0.00     0.133 A 
HETATM   16  N   UNL     1      39.199 -13.587  -1.113  1.00  0.00    -0.272 NA
HETATM   17  C   UNL     1      37.972 -13.355  -0.597  1.00  0.00     0.116 A 
HETATM   18  C   UNL     1      37.550 -13.835   0.633  1.00  0.00     0.020 A 
HETATM   19  C   UNL     1      38.436 -14.611   1.377  1.00  0.00     0.020 A 
ENDBRANCH  11  14
ENDBRANCH   9  10
ENDBRANCH   1   7
BRANCH   4  20
HETATM   20  N   UNL     1      41.321 -11.105   6.285  1.00  0.00    -0.309 N 
HETATM   21  C   UNL     1      41.837 -10.474   7.384  1.00  0.00     0.325 C 
HETATM   22  N   UNL     1      42.128 -11.268   8.461  1.00  0.00    -0.309 N 
HETATM   23  O   UNL     1      41.889  -9.247   7.355  1.00  0.00    -0.247 OA
HETATM   24  H   UNL     1      41.855 -12.234   8.372  1.00  0.00     0.170 HD
HETATM   25  H   UNL     1      40.832 -10.442   5.694  1.00  0.00     0.170 HD
BRANCH  22  26
HETATM   26  C   UNL     1      42.514 -10.857   9.754  1.00  0.00     0.036 A 
HETATM   27  C   UNL     1      43.840 -10.770  10.186  1.00  0.00     0.031 A 
HETATM   28  C   UNL     1      44.143 -10.296  11.468  1.00  0.00     0.026 A 
HETATM   29  C   UNL     1      43.117  -9.919  12.330  1.00  0.00     0.034 A 
HETATM   30 CL   UNL     1      43.490  -9.322  13.899  1.00  0.00    -0.084 Cl
HETATM   31  C   UNL     1      41.791 -10.020  11.923  1.00  0.00     0.026 A 
HETATM   32  C   UNL     1      41.491 -10.487  10.639  1.00  0.00     0.031 A 
ENDBRANCH  22  26
ENDBRANCH   4  20
TORSDOF 5
ENDMDL
MODEL 5
REMARK VINA RESULT:      -8.5      4.926      7.830
REMARK  5 active torsions:
REMARK  status: ('A' for Active; 'I' for Inactive)
REMARK    1  A    between atoms: C_2  and  C_3 
REMARK    2  A    between atoms: C_6  and  N_7 
REMARK       I    between atoms: N_7  and  C_8 
REMARK       I    between atoms: C_8  and  N_9 
REMARK    3  A    between atoms: N_9  and  C_10 
REMARK    4  A    between atoms: N_20  and  N_21 
REMARK       I    between atoms: N_21  and  C_22 
REMARK    5  A    between atoms: C_22  and  C_23 
ROOT
HETATM    1  C   UNL     1      40.996 -12.358   4.466  1.00  0.00    -0.010 A 
HETATM    2  C   UNL     1      42.337 -12.723   4.617  1.00  0.00     0.016 A 
HETATM    3  C   UNL     1      42.665 -13.938   5.231  1.00  0.00     0.030 A 
HETATM    4  C   UNL     1      41.655 -14.787   5.698  1.00  0.00     0.036 A 
HETATM    5  C   UNL     1      40.318 -14.398   5.571  1.00  0.00     0.030 A 
HETATM    6  C   UNL     1      39.985 -13.203   4.930  1.00  0.00     0.016 A 
ENDROOT
BRANCH   1   7
HETATM    7  C   UNL     1      40.629 -11.077   3.806  1.00  0.00     0.061 C 
HETATM    8  C   UNL     1      40.555  -9.851   4.689  1.00  0.00     0.073 C 
HETATM    9  N   UNL     1      40.406 -10.904   2.536  1.00  0.00    -0.176 NA
BRANCH   9  10
HETATM   10  N   UNL     1      40.359 -11.988   1.710  1.00  0.00    -0.243 N 
HETATM   11  C   UNL     1      41.467 -12.315   0.940  1.00  0.00     0.273 C 
HETATM   12  O   UNL     1      42.521 -11.688   0.912  1.00  0.00    -0.266 OA
HETATM   13  H   UNL     1      39.467 -12.443   1.572  1.00  0.00     0.192 HD
BRANCH  11  14
HETATM   14  C   UNL     1      41.337 -13.528   0.093  1.00  0.00     0.051 A 
HETATM   15  C   UNL     1      40.950 -13.480  -1.241  1.00  0.00     0.133 A 
HETATM   16  N   UNL     1      40.811 -14.570  -2.035  1.00  0.00    -0.272 NA
HETATM   17  C   UNL     1      41.045 -15.771  -1.460  1.00  0.00     0.116 A 
HETATM   18  C   UNL     1      41.410 -15.930  -0.133  1.00  0.00     0.020 A 
HETATM   19  C   UNL     1      41.554 -14.790   0.654  1.00  0.00     0.020 A 
ENDBRANCH  11  14
ENDBRANCH   9  10
ENDBRANCH   1   7
BRANCH   4  20
HETATM   20  N   UNL     1      41.902 -16.001   6.357  1.00  0.00    -0.309 N 
HETATM   21  C   UNL     1      42.582 -17.132   5.996  1.00  0.00     0.325 C 
HETATM   22  N   UNL     1      42.802 -17.309   4.656  1.00  0.00    -0.309 N 
HETATM   23  O   UNL     1      42.838 -17.943   6.883  1.00  0.00    -0.247 OA
HETATM   24  H   UNL     1      42.367 -16.628   4.054  1.00  0.00     0.170 HD
HETATM   25  H   UNL     1      41.497 -16.112   7.280  1.00  0.00     0.170 HD
BRANCH  22  26
HETATM   26  C   UNL     1      43.329 -18.448   4.012  1.00  0.00     0.036 A 
HETATM   27  C   UNL     1      44.284 -19.297   4.579  1.00  0.00     0.031 A 
HETATM   28  C   UNL     1      44.713 -20.442   3.897  1.00  0.00     0.026 A 
HETATM   29  C   UNL     1      44.197 -20.737   2.639  1.00  0.00     0.034 A 
HETATM   30 CL   UNL     1      44.713 -22.152   1.808  1.00  0.00    -0.084 Cl
HETATM   31  C   UNL     1      43.262 -19.890   2.052  1.00  0.00     0.026 A 
HETATM   32  C   UNL     1      42.829 -18.750   2.737  1.00  0.00     0.031 A 
ENDBRANCH  22  26
ENDBRANCH   4  20
TORSDOF 5
ENDMDL
MODEL 6
REMARK VINA RESULT:      -8.5      3.895     10.166
REMARK  5 active torsions:
REMARK  status: ('A' for Active; 'I' for Inactive)
REMARK    1  A    between atoms: C_2  and  C_3 
REMARK    2  A    between atoms: C_6  and  N_7 
REMARK       I    between atoms: N_7  and  C_8 
REMARK       I    between atoms: C_8  and  N_9 
REMARK    3  A    between atoms: N_9  and  C_10 
REMARK    4  A    between atoms: N_20  and  N_21 
REMARK       I    between atoms: N_21  and  C_22 
REMARK    5  A    between atoms: C_22  and  C_23 
ROOT
HETATM    1  C   UNL     1      44.573 -13.395   7.445  1.00  0.00    -0.010 A 
HETATM    2  C   UNL     1      44.665 -14.768   7.689  1.00  0.00     0.016 A 
HETATM    3  C   UNL     1      43.760 -15.649   7.083  1.00  0.00     0.030 A 
HETATM    4  C   UNL     1      42.761 -15.158   6.234  1.00  0.00     0.036 A 
HETATM    5  C   UNL     1      42.657 -13.780   6.022  1.00  0.00     0.030 A 
HETATM    6  C   UNL     1      43.577 -12.902   6.598  1.00  0.00     0.016 A 
ENDROOT
BRANCH   1   7
HETATM    7  C   UNL     1      45.532 -12.448   8.071  1.00  0.00     0.061 C 
HETATM    8  C   UNL     1      46.958 -12.490   7.568  1.00  0.00     0.073 C 
HETATM    9  N   UNL     1      45.253 -11.561   8.981  1.00  0.00    -0.176 NA
BRANCH   9  10
HETATM   10  N   UNL     1      44.011 -11.546   9.543  1.00  0.00    -0.243 N 
HETATM   11  C   UNL     1      43.833 -11.003  10.808  1.00  0.00     0.273 C 
HETATM   12  O   UNL     1      44.725 -10.534  11.509  1.00  0.00    -0.266 OA
HETATM   13  H   UNL     1      43.274 -12.063   9.082  1.00  0.00     0.192 HD
BRANCH  11  14
HETATM   14  C   UNL     1      42.443 -11.002  11.329  1.00  0.00     0.051 A 
HETATM   15  C   UNL     1      41.332 -10.818  10.514  1.00  0.00     0.133 A 
HETATM   16  N   UNL     1      40.052 -10.800  10.962  1.00  0.00    -0.272 NA
HETATM   17  C   UNL     1      39.875 -10.947  12.294  1.00  0.00     0.116 A 
HETATM   18  C   UNL     1      40.915 -11.110  13.195  1.00  0.00     0.020 A 
HETATM   19  C   UNL     1      42.218 -11.135  12.702  1.00  0.00     0.020 A 
ENDBRANCH  11  14
ENDBRANCH   9  10
ENDBRANCH   1   7
BRANCH   4  20
HETATM   20  N   UNL     1      41.795 -15.969   5.620  1.00  0.00    -0.309 N 
HETATM   21  C   UNL     1      41.859 -17.198   5.021  1.00  0.00     0.325 C 
HETATM   22  N   UNL     1      43.101 -17.617   4.623  1.00  0.00    -0.309 N 
HETATM   23  O   UNL     1      40.795 -17.767   4.789  1.00  0.00    -0.247 OA
HETATM   24  H   UNL     1      43.841 -16.942   4.735  1.00  0.00     0.170 HD
HETATM   25  H   UNL     1      40.852 -15.601   5.570  1.00  0.00     0.170 HD
BRANCH  22  26
HETATM   26  C   UNL     1      43.420 -18.754   3.851  1.00  0.00     0.036 A 
HETATM   27  C   UNL     1      42.926 -18.992   2.565  1.00  0.00     0.031 A 
HETATM   28  C   UNL     1      43.338 -20.117   1.841  1.00  0.00     0.026 A 
HETATM   29  C   UNL     1      44.237 -21.017   2.405  1.00  0.00     0.034 A 
HETATM   30 CL   UNL     1      44.754 -22.391   1.509  1.00  0.00    -0.084 Cl
HETATM   31  C   UNL     1      44.721 -20.806   3.692  1.00  0.00     0.026 A 
HETATM   32  C   UNL     1      44.314 -19.678   4.412  1.00  0.00     0.031 A 
ENDBRANCH  22  26
ENDBRANCH   4  20
TORSDOF 5
ENDMDL
MODEL 7
REMARK VINA RESULT:      -8.3      4.910      7.286
REMARK  5 active torsions:
REMARK  status: ('A' for Active; 'I' for Inactive)
REMARK    1  A    between atoms: C_2  and  C_3 
REMARK    2  A    between atoms: C_6  and  N_7 
REMARK       I    between atoms: N_7  and  C_8 
REMARK       I    between atoms: C_8  and  N_9 
REMARK    3  A    between atoms: N_9  and  C_10 
REMARK    4  A    between atoms: N_20  and  N_21 
REMARK       I    between atoms: N_21  and  C_22 
REMARK    5  A    between atoms: C_22  and  C_23 
ROOT
HETATM    1  C   UNL     1      42.256 -17.003   6.216  1.00  0.00    -0.010 A 
HETATM    2  C   UNL     1      41.760 -17.755   5.147  1.00  0.00     0.016 A 
HETATM    3  C   UNL     1      40.921 -17.155   4.200  1.00  0.00     0.030 A 
HETATM    4  C   UNL     1      40.574 -15.805   4.321  1.00  0.00     0.036 A 
HETATM    5  C   UNL     1      41.049 -15.069   5.412  1.00  0.00     0.030 A 
HETATM    6  C   UNL     1      41.912 -15.655   6.339  1.00  0.00     0.016 A 
ENDROOT
BRANCH   1   7
HETATM    7  C   UNL     1      43.157 -17.622   7.223  1.00  0.00     0.061 C 
HETATM    8  C   UNL     1      43.434 -16.818   8.475  1.00  0.00     0.073 C 
HETATM    9  N   UNL     1      43.698 -18.803   7.148  1.00  0.00    -0.176 NA
BRANCH   9  10
HETATM   10  N   UNL     1      43.566 -19.528   6.001  1.00  0.00    -0.243 N 
HETATM   11  C   UNL     1      44.639 -19.635   5.127  1.00  0.00     0.273 C 
HETATM   12  O   UNL     1      45.734 -19.103   5.281  1.00  0.00    -0.266 OA
HETATM   13  H   UNL     1      42.642 -19.851   5.746  1.00  0.00     0.192 HD
BRANCH  11  14
HETATM   14  C   UNL     1      44.415 -20.469   3.919  1.00  0.00     0.051 A 
HETATM   15  C   UNL     1      44.746 -21.818   3.860  1.00  0.00     0.133 A 
HETATM   16  N   UNL     1      44.565 -22.600   2.768  1.00  0.00    -0.272 NA
HETATM   17  C   UNL     1      44.052 -22.000   1.672  1.00  0.00     0.116 A 
HETATM   18  C   UNL     1      43.712 -20.658   1.617  1.00  0.00     0.020 A 
HETATM   19  C   UNL     1      43.901 -19.883   2.759  1.00  0.00     0.020 A 
ENDBRANCH  11  14
ENDBRANCH   9  10
ENDBRANCH   1   7
BRANCH   4  20
HETATM   20  N   UNL     1      39.710 -15.142   3.437  1.00  0.00    -0.309 N 
HETATM   21  C   UNL     1      39.908 -14.525   2.231  1.00  0.00     0.325 C 
HETATM   22  N   UNL     1      41.197 -14.168   1.935  1.00  0.00    -0.309 N 
HETATM   23  O   UNL     1      38.910 -14.244   1.572  1.00  0.00    -0.247 OA
HETATM   24  H   UNL     1      41.867 -14.318   2.673  1.00  0.00     0.170 HD
HETATM   25  H   UNL     1      38.739 -15.062   3.719  1.00  0.00     0.170 HD
BRANCH  22  26
HETATM   26  C   UNL     1      41.646 -13.390   0.848  1.00  0.00     0.036 A 
HETATM   27  C   UNL     1      41.791 -13.873  -0.455  1.00  0.00     0.031 A 
HETATM   28  C   UNL     1      42.187 -13.019  -1.492  1.00  0.00     0.026 A 
HETATM   29  C   UNL     1      42.453 -11.679  -1.226  1.00  0.00     0.034 A 
HETATM   30 CL   UNL     1      42.925 -10.628  -2.503  1.00  0.00    -0.084 Cl
HETATM   31  C   UNL     1      42.335 -11.188   0.070  1.00  0.00     0.026 A 
HETATM   32  C   UNL     1      41.932 -12.040   1.103  1.00  0.00     0.031 A 
ENDBRANCH  22  26
ENDBRANCH   4  20
TORSDOF 5
ENDMDL
MODEL 8
REMARK VINA RESULT:      -8.3      4.319      9.435
REMARK  5 active torsions:
REMARK  status: ('A' for Active; 'I' for Inactive)
REMARK    1  A    between atoms: C_2  and  C_3 
REMARK    2  A    between atoms: C_6  and  N_7 
REMARK       I    between atoms: N_7  and  C_8 
REMARK       I    between atoms: C_8  and  N_9 
REMARK    3  A    between atoms: N_9  and  C_10 
REMARK    4  A    between atoms: N_20  and  N_21 
REMARK       I    between atoms: N_21  and  C_22 
REMARK    5  A    between atoms: C_22  and  C_23 
ROOT
HETATM    1  C   UNL     1      40.779 -13.280   5.746  1.00  0.00    -0.010 A 
HETATM    2  C   UNL     1      40.390 -14.613   5.913  1.00  0.00     0.016 A 
HETATM    3  C   UNL     1      41.346 -15.585   6.231  1.00  0.00     0.030 A 
HETATM    4  C   UNL     1      42.692 -15.229   6.379  1.00  0.00     0.036 A 
HETATM    5  C   UNL     1      43.075 -13.899   6.179  1.00  0.00     0.030 A 
HETATM    6  C   UNL     1      42.121 -12.921   5.895  1.00  0.00     0.016 A 
ENDROOT
BRANCH   1   7
HETATM    7  C   UNL     1      39.775 -12.234   5.420  1.00  0.00     0.061 C 
HETATM    8  C   UNL     1      39.395 -12.084   3.963  1.00  0.00     0.073 C 
HETATM    9  N   UNL     1      39.165 -11.463   6.272  1.00  0.00    -0.176 NA
BRANCH   9  10
HETATM   10  N   UNL     1      39.541 -11.483   7.582  1.00  0.00    -0.243 N 
HETATM   11  C   UNL     1      40.322 -10.455   8.091  1.00  0.00     0.273 C 
HETATM   12  O   UNL     1      40.743  -9.499   7.446  1.00  0.00    -0.266 OA
HETATM   13  H   UNL     1      39.361 -12.323   8.116  1.00  0.00     0.192 HD
BRANCH  11  14
HETATM   14  C   UNL     1      40.658 -10.543   9.534  1.00  0.00     0.051 A 
HETATM   15  C   UNL     1      41.924 -10.889   9.995  1.00  0.00     0.133 A 
HETATM   16  N   UNL     1      42.257 -10.990  11.305  1.00  0.00    -0.272 NA
HETATM   17  C   UNL     1      41.271 -10.760  12.200  1.00  0.00     0.116 A 
HETATM   18  C   UNL     1      39.971 -10.435  11.846  1.00  0.00     0.020 A 
HETATM   19  C   UNL     1      39.663 -10.329  10.491  1.00  0.00     0.020 A 
ENDBRANCH  11  14
ENDBRANCH   9  10
ENDBRANCH   1   7
BRANCH   4  20
HETATM   20  N   UNL     1      43.713 -16.149   6.659  1.00  0.00    -0.309 N 
HETATM   21  C   UNL     1      44.275 -17.163   5.932  1.00  0.00     0.325 C 
HETATM   22  N   UNL     1      43.543 -17.630   4.872  1.00  0.00    -0.309 N 
HETATM   23  O   UNL     1      45.325 -17.643   6.352  1.00  0.00    -0.247 OA
HETATM   24  H   UNL     1      42.620 -17.237   4.779  1.00  0.00     0.170 HD
HETATM   25  H   UNL     1      44.133 -16.101   7.581  1.00  0.00     0.170 HD
BRANCH  22  26
HETATM   26  C   UNL     1      43.813 -18.758   4.069  1.00  0.00     0.036 A 
HETATM   27  C   UNL     1      44.432 -19.921   4.534  1.00  0.00     0.031 A 
HETATM   28  C   UNL     1      44.612 -21.020   3.686  1.00  0.00     0.026 A 
HETATM   29  C   UNL     1      44.184 -20.955   2.363  1.00  0.00     0.034 A 
HETATM   30 CL   UNL     1      44.392 -22.312   1.326  1.00  0.00    -0.084 Cl
HETATM   31  C   UNL     1      43.586 -19.797   1.879  1.00  0.00     0.026 A 
HETATM   32  C   UNL     1      43.401 -18.702   2.729  1.00  0.00     0.031 A 
ENDBRANCH  22  26
ENDBRANCH   4  20
TORSDOF 5
ENDMDL
MODEL 9
REMARK VINA RESULT:      -8.1      5.478      8.429
REMARK  5 active torsions:
REMARK  status: ('A' for Active; 'I' for Inactive)
REMARK    1  A    between atoms: C_2  and  C_3 
REMARK    2  A    between atoms: C_6  and  N_7 
REMARK       I    between atoms: N_7  and  C_8 
REMARK       I    between atoms: C_8  and  N_9 
REMARK    3  A    between atoms: N_9  and  C_10 
REMARK    4  A    between atoms: N_20  and  N_21 
REMARK       I    between atoms: N_21  and  C_22 
REMARK    5  A    between atoms: C_22  and  C_23 
ROOT
HETATM    1  C   UNL     1      38.768 -11.530   1.366  1.00  0.00    -0.010 A 
HETATM    2  C   UNL     1      38.716 -12.251   2.562  1.00  0.00     0.016 A 
HETATM    3  C   UNL     1      39.902 -12.620   3.209  1.00  0.00     0.030 A 
HETATM    4  C   UNL     1      41.141 -12.271   2.661  1.00  0.00     0.036 A 
HETATM    5  C   UNL     1      41.184 -11.577   1.447  1.00  0.00     0.030 A 
HETATM    6  C   UNL     1      40.004 -11.179   0.816  1.00  0.00     0.016 A 
ENDROOT
BRANCH   1   7
HETATM    7  C   UNL     1      37.519 -11.121   0.672  1.00  0.00     0.061 C 
HETATM    8  C   UNL     1      36.724 -10.000   1.305  1.00  0.00     0.073 C 
HETATM    9  N   UNL     1      37.067 -11.607  -0.446  1.00  0.00    -0.176 NA
BRANCH   9  10
HETATM   10  N   UNL     1      37.686 -12.685  -1.007  1.00  0.00    -0.243 N 
HETATM   11  C   UNL     1      37.572 -12.912  -2.371  1.00  0.00     0.273 C 
HETATM   12  O   UNL     1      36.926 -12.221  -3.154  1.00  0.00    -0.266 OA
HETATM   13  H   UNL     1      38.093 -13.374  -0.389  1.00  0.00     0.192 HD
BRANCH  11  14
HETATM   14  C   UNL     1      38.304 -14.091  -2.900  1.00  0.00     0.051 A 
HETATM   15  C   UNL     1      37.745 -14.980  -3.811  1.00  0.00     0.133 A 
HETATM   16  N   UNL     1      38.383 -16.071  -4.301  1.00  0.00    -0.272 NA
HETATM   17  C   UNL     1      39.632 -16.300  -3.839  1.00  0.00     0.116 A 
HETATM   18  C   UNL     1      40.270 -15.492  -2.912  1.00  0.00     0.020 A 
HETATM   19  C   UNL     1      39.591 -14.372  -2.435  1.00  0.00     0.020 A 
ENDBRANCH  11  14
ENDBRANCH   9  10
ENDBRANCH   1   7
BRANCH   4  20
HETATM   20  N   UNL     1      42.372 -12.635   3.227  1.00  0.00    -0.309 N 
HETATM   21  C   UNL     1      43.123 -13.777   3.162  1.00  0.00     0.325 C 
HETATM   22  N   UNL     1      42.469 -14.914   2.767  1.00  0.00    -0.309 N 
HETATM   23  O   UNL     1      44.281 -13.713   3.567  1.00  0.00    -0.247 OA
HETATM   24  H   UNL     1      41.474 -14.818   2.642  1.00  0.00     0.170 HD
HETATM   25  H   UNL     1      42.819 -11.953   3.829  1.00  0.00     0.170 HD
BRANCH  22  26
HETATM   26  C   UNL     1      42.962 -16.236   2.768  1.00  0.00     0.036 A 
HETATM   27  C   UNL     1      42.978 -17.066   3.893  1.00  0.00     0.031 A 
HETATM   28  C   UNL     1      43.430 -18.387   3.797  1.00  0.00     0.026 A 
HETATM   29  C   UNL     1      43.883 -18.880   2.577  1.00  0.00     0.034 A 
HETATM   30 CL   UNL     1      44.424 -20.508   2.456  1.00  0.00    -0.084 Cl
HETATM   31  C   UNL     1      43.894 -18.061   1.453  1.00  0.00     0.026 A 
HETATM   32  C   UNL     1      43.435 -16.743   1.549  1.00  0.00     0.031 A 
ENDBRANCH  22  26
ENDBRANCH   4  20
TORSDOF 5
ENDMDL
MODEL 10
REMARK VINA RESULT:      -8.0      5.787      8.753
REMARK  5 active torsions:
REMARK  status: ('A' for Active; 'I' for Inactive)
REMARK    1  A    between atoms: C_2  and  C_3 
REMARK    2  A    between atoms: C_6  and  N_7 
REMARK       I    between atoms: N_7  and  C_8 
REMARK       I    between atoms: C_8  and  N_9 
REMARK    3  A    between atoms: N_9  and  C_10 
REMARK    4  A    between atoms: N_20  and  N_21 
REMARK       I    between atoms: N_21  and  C_22 
REMARK    5  A    between atoms: C_22  and  C_23 
ROOT
HETATM    1  C   UNL     1      40.972 -12.573   1.323  1.00  0.00    -0.010 A 
HETATM    2  C   UNL     1      39.704 -13.147   1.458  1.00  0.00     0.016 A 
HETATM    3  C   UNL     1      39.508 -14.207   2.352  1.00  0.00     0.030 A 
HETATM    4  C   UNL     1      40.579 -14.698   3.108  1.00  0.00     0.036 A 
HETATM    5  C   UNL     1      41.850 -14.138   2.942  1.00  0.00     0.030 A 
HETATM    6  C   UNL     1      42.043 -13.060   2.078  1.00  0.00     0.016 A 
ENDROOT
BRANCH   1   7
HETATM    7  C   UNL     1      41.195 -11.439   0.388  1.00  0.00     0.061 C 
HETATM    8  C   UNL     1      41.493 -10.092   1.009  1.00  0.00     0.073 C 
HETATM    9  N   UNL     1      41.196 -11.504  -0.911  1.00  0.00    -0.176 NA
BRANCH   9  10
HETATM   10  N   UNL     1      40.834 -12.666  -1.524  1.00  0.00    -0.243 N 
HETATM   11  C   UNL     1      39.662 -12.718  -2.266  1.00  0.00     0.273 C 
HETATM   12  O   UNL     1      38.875 -11.787  -2.414  1.00  0.00    -0.266 OA
HETATM   13  H   UNL     1      41.356 -13.504  -1.303  1.00  0.00     0.192 HD
BRANCH  11  14
HETATM   14  C   UNL     1      39.362 -14.015  -2.923  1.00  0.00     0.051 A 
HETATM   15  C   UNL     1      38.152 -14.279  -3.555  1.00  0.00     0.133 A 
HETATM   16  N   UNL     1      37.845 -15.457  -4.153  1.00  0.00    -0.272 NA
HETATM   17  C   UNL     1      38.783 -16.429  -4.092  1.00  0.00     0.116 A 
HETATM   18  C   UNL     1      40.009 -16.277  -3.464  1.00  0.00     0.020 A 
HETATM   19  C   UNL     1      40.298 -15.051  -2.869  1.00  0.00     0.020 A 
ENDBRANCH  11  14
ENDBRANCH   9  10
ENDBRANCH   1   7
BRANCH   4  20
HETATM   20  N   UNL     1      40.473 -15.780   3.995  1.00  0.00    -0.309 N 
HETATM   21  C   UNL     1      41.243 -16.892   4.200  1.00  0.00     0.325 C 
HETATM   22  N   UNL     1      42.090 -17.242   3.181  1.00  0.00    -0.309 N 
HETATM   23  O   UNL     1      41.031 -17.544   5.219  1.00  0.00    -0.247 OA
HETATM   24  H   UNL     1      42.005 -16.692   2.341  1.00  0.00     0.170 HD
HETATM   25  H   UNL     1      39.667 -15.790   4.611  1.00  0.00     0.170 HD
BRANCH  22  26
HETATM   26  C   UNL     1      42.865 -18.415   3.070  1.00  0.00     0.036 A 
HETATM   27  C   UNL     1      43.810 -18.823   4.016  1.00  0.00     0.031 A 
HETATM   28  C   UNL     1      44.496 -20.033   3.861  1.00  0.00     0.026 A 
HETATM   29  C   UNL     1      44.250 -20.835   2.751  1.00  0.00     0.034 A 
HETATM   30 CL   UNL     1      45.083 -22.329   2.569  1.00  0.00    -0.084 Cl
HETATM   31  C   UNL     1      43.329 -20.433   1.790  1.00  0.00     0.026 A 
HETATM   32  C   UNL     1      42.638 -19.227   1.949  1.00  0.00     0.031 A 
ENDBRANCH  22  26
ENDBRANCH   4  20
TORSDOF 5
ENDMDL
