MODEL 1
REMARK VINA RESULT:      -8.7      0.000      0.000
REMARK  6 active torsions:
REMARK  status: ('A' for Active; 'I' for Inactive)
REMARK    1  A    between atoms: CG_8  and  CB_9 
REMARK    2  A    between atoms: CB_9  and  CA_10 
REMARK    3  A    between atoms: CA_10  and  N_11 
REMARK    4  A    between atoms: CA_10  and  C_12 
REMARK       I    between atoms: N_11  and  C_18 
REMARK    5  A    between atoms: C_12  and  O_13 
REMARK       I    between atoms: C_18  and  N_19 
REMARK    6  A    between atoms: N_19  and  C_20 
ROOT
ATOM      1  CA  TRP A   1      43.922 -14.943   6.221  1.00  0.00     0.114 C 
ENDROOT
BRANCH   1   2
ATOM      2  CB  TRP A   1      43.205 -16.259   6.594  1.00  0.00     0.068 C 
BRANCH   2   3
ATOM      3  CG  TRP A   1      43.800 -17.452   5.902  1.00  0.00    -0.028 A 
ATOM      4  CD2 TRP A   1      43.497 -17.942   4.590  1.00  0.00    -0.002 A 
ATOM      5  CE3 TRP A   1      42.636 -17.521   3.557  1.00  0.00     0.014 A 
ATOM      6  CE2 TRP A   1      44.262 -19.090   4.386  1.00  0.00     0.042 A 
ATOM      7  CZ3 TRP A   1      42.551 -18.270   2.378  1.00  0.00     0.001 A 
ATOM      8  CH2 TRP A   1      43.321 -19.418   2.210  1.00  0.00     0.002 A 
ATOM      9  CZ2 TRP A   1      44.197 -19.848   3.210  1.00  0.00     0.030 A 
ATOM     10  NE1 TRP A   1      45.029 -19.272   5.512  1.00  0.00    -0.365 N 
ATOM     11  HE1 TRP A   1      45.695 -20.022   5.637  1.00  0.00     0.165 HD
ATOM     12  CD1 TRP A   1      44.759 -18.296   6.432  1.00  0.00     0.096 A 
ENDBRANCH   2   3
ENDBRANCH   1   2
BRANCH   1  13
ATOM     13  N   TRP A   1      44.182 -14.085   7.387  1.00  0.00    -0.336 N 
HETATM   14  C   UNK A   0      45.264 -13.275   7.505  1.00  0.00     0.321 C 
HETATM   15  N   UNK A   0      45.368 -12.519   8.630  1.00  0.00    -0.309 N 
HETATM   16  O   UNK A   0      46.174 -13.249   6.680  1.00  0.00    -0.247 OA
HETATM   17  H   UNK A   0      46.300 -12.135   8.726  1.00  0.00     0.170 HD
ATOM     18  H   TRP A   1      43.754 -14.369   8.257  1.00  0.00     0.164 HD
BRANCH  15  19
HETATM   19  C   UNK A   0      44.411 -12.050   9.552  1.00  0.00     0.036 A 
HETATM   20  C   UNK A   0      43.422 -11.111   9.249  1.00  0.00     0.039 A 
HETATM   21  C   UNK A   0      42.589 -10.665  10.265  1.00  0.00    -0.024 A 
HETATM   22  C   UNK A   0      42.718 -11.130  11.563  1.00  0.00    -0.026 A 
HETATM   23  C   UNK A   0      41.519  -9.638  10.214  1.00  0.00     0.207 C 
HETATM   24  C   UNK A   0      41.731 -10.440  12.430  1.00  0.00     0.207 C 
HETATM   25  C   UNK A   0      43.689 -12.055  11.893  1.00  0.00     0.012 A 
HETATM   26  O   UNK A   0      40.875  -9.724  11.509  1.00  0.00    -0.382 OA
HETATM   27  C   UNK A   0      44.539 -12.509  10.880  1.00  0.00     0.030 A 
ENDBRANCH  15  19
ENDBRANCH   1  13
BRANCH   1  28
ATOM     28  C   TRP A   1      43.167 -14.206   5.098  1.00  0.00     0.189 C 
BRANCH  28  29
ATOM     29  O   TRP A   1      44.091 -13.588   4.202  1.00  0.00    -0.399 OA
ATOM     30  H   TRP A   1      44.692 -13.068   4.766  1.00  0.00     0.209 HD
ENDBRANCH  28  29
ENDBRANCH   1  28
TORSDOF 6
ENDMDL
MODEL 2
REMARK VINA RESULT:      -8.4      3.883      7.430
REMARK  6 active torsions:
REMARK  status: ('A' for Active; 'I' for Inactive)
REMARK    1  A    between atoms: CG_8  and  CB_9 
REMARK    2  A    between atoms: CB_9  and  CA_10 
REMARK    3  A    between atoms: CA_10  and  N_11 
REMARK    4  A    between atoms: CA_10  and  C_12 
REMARK       I    between atoms: N_11  and  C_18 
REMARK    5  A    between atoms: C_12  and  O_13 
REMARK       I    between atoms: C_18  and  N_19 
REMARK    6  A    between atoms: N_19  and  C_20 
ROOT
ATOM      1  CA  TRP A   1      43.387 -15.492   6.350  1.00  0.00     0.114 C 
ENDROOT
BRANCH   1   2
ATOM      2  CB  TRP A   1      44.658 -16.330   6.606  1.00  0.00     0.068 C 
BRANCH   2   3
ATOM      3  CG  TRP A   1      44.342 -17.748   6.990  1.00  0.00    -0.028 A 
ATOM      4  CD2 TRP A   1      44.514 -18.926   6.194  1.00  0.00    -0.002 A 
ATOM      5  CE3 TRP A   1      45.012 -19.176   4.900  1.00  0.00     0.014 A 
ATOM      6  CE2 TRP A   1      44.054 -20.008   6.945  1.00  0.00     0.042 A 
ATOM      7  CZ3 TRP A   1      45.008 -20.482   4.396  1.00  0.00     0.001 A 
ATOM      8  CH2 TRP A   1      44.530 -21.538   5.168  1.00  0.00     0.002 A 
ATOM      9  CZ2 TRP A   1      44.048 -21.323   6.462  1.00  0.00     0.030 A 
ATOM     10  NE1 TRP A   1      43.652 -19.515   8.164  1.00  0.00    -0.365 N 
ATOM     11  HE1 TRP A   1      43.287 -20.079   8.919  1.00  0.00     0.165 HD
ATOM     12  CD1 TRP A   1      43.818 -18.157   8.202  1.00  0.00     0.096 A 
ENDBRANCH   2   3
ENDBRANCH   1   2
BRANCH   1  13
ATOM     13  N   TRP A   1      42.615 -15.966   5.191  1.00  0.00    -0.336 N 
HETATM   14  C   UNK A   0      41.414 -16.591   5.286  1.00  0.00     0.321 C 
HETATM   15  N   UNK A   0      40.800 -16.957   4.130  1.00  0.00    -0.309 N 
HETATM   16  O   UNK A   0      40.900 -16.895   6.360  1.00  0.00    -0.247 OA
HETATM   17  H   UNK A   0      40.043 -17.606   4.310  1.00  0.00     0.170 HD
ATOM     18  H   TRP A   1      43.141 -16.158   4.350  1.00  0.00     0.164 HD
BRANCH  15  19
HETATM   19  C   UNK A   0      40.906 -16.487   2.807  1.00  0.00     0.036 A 
HETATM   20  C   UNK A   0      40.202 -15.390   2.304  1.00  0.00     0.039 A 
HETATM   21  C   UNK A   0      40.328 -15.073   0.959  1.00  0.00    -0.024 A 
HETATM   22  C   UNK A   0      41.131 -15.819   0.112  1.00  0.00    -0.026 A 
HETATM   23  C   UNK A   0      39.645 -14.011   0.179  1.00  0.00     0.207 C 
HETATM   24  C   UNK A   0      41.026 -15.277  -1.266  1.00  0.00     0.207 C 
HETATM   25  C   UNK A   0      41.835 -16.911   0.579  1.00  0.00     0.012 A 
HETATM   26  O   UNK A   0      40.297 -14.037  -1.113  1.00  0.00    -0.382 OA
HETATM   27  C   UNK A   0      41.714 -17.245   1.932  1.00  0.00     0.030 A 
ENDBRANCH  15  19
ENDBRANCH   1  13
BRANCH   1  28
ATOM     28  C   TRP A   1      43.728 -13.991   6.263  1.00  0.00     0.189 C 
BRANCH  28  29
ATOM     29  O   TRP A   1      42.610 -13.204   6.672  1.00  0.00    -0.399 OA
ATOM     30  H   TRP A   1      42.683 -13.131   7.640  1.00  0.00     0.209 HD
ENDBRANCH  28  29
ENDBRANCH   1  28
TORSDOF 6
ENDMDL
MODEL 3
REMARK VINA RESULT:      -8.3      4.445      8.563
REMARK  6 active torsions:
REMARK  status: ('A' for Active; 'I' for Inactive)
REMARK    1  A    between atoms: CG_8  and  CB_9 
REMARK    2  A    between atoms: CB_9  and  CA_10 
REMARK    3  A    between atoms: CA_10  and  N_11 
REMARK    4  A    between atoms: CA_10  and  C_12 
REMARK       I    between atoms: N_11  and  C_18 
REMARK    5  A    between atoms: C_12  and  O_13 
REMARK       I    between atoms: C_18  and  N_19 
REMARK    6  A    between atoms: N_19  and  C_20 
ROOT
ATOM      1  CA  TRP A   1      39.990 -15.767   2.864  1.00  0.00     0.114 C 
ENDROOT
BRANCH   1   2
ATOM      2  CB  TRP A   1      40.157 -14.862   4.104  1.00  0.00     0.068 C 
BRANCH   2   3
ATOM      3  CG  TRP A   1      40.970 -15.516   5.186  1.00  0.00    -0.028 A 
ATOM      4  CD2 TRP A   1      42.255 -15.115   5.674  1.00  0.00    -0.002 A 
ATOM      5  CE3 TRP A   1      43.137 -14.057   5.373  1.00  0.00     0.014 A 
ATOM      6  CE2 TRP A   1      42.637 -16.035   6.650  1.00  0.00     0.042 A 
ATOM      7  CZ3 TRP A   1      44.369 -13.973   6.032  1.00  0.00     0.001 A 
ATOM      8  CH2 TRP A   1      44.725 -14.916   6.993  1.00  0.00     0.002 A 
ATOM      9  CZ2 TRP A   1      43.862 -15.964   7.326  1.00  0.00     0.030 A 
ATOM     10  NE1 TRP A   1      41.610 -16.940   6.778  1.00  0.00    -0.365 N 
ATOM     11  HE1 TRP A   1      41.605 -17.713   7.429  1.00  0.00     0.165 HD
ATOM     12  CD1 TRP A   1      40.603 -16.640   5.902  1.00  0.00     0.096 A 
ENDBRANCH   2   3
ENDBRANCH   1   2
BRANCH   1  13
ATOM     13  N   TRP A   1      41.208 -16.528   2.544  1.00  0.00    -0.336 N 
HETATM   14  C   UNK A   0      42.348 -15.966   2.069  1.00  0.00     0.321 C 
HETATM   15  N   UNK A   0      43.407 -16.787   1.836  1.00  0.00    -0.309 N 
HETATM   16  O   UNK A   0      42.438 -14.775   1.780  1.00  0.00    -0.247 OA
HETATM   17  H   UNK A   0      44.112 -16.321   1.278  1.00  0.00     0.170 HD
ATOM     18  H   TRP A   1      41.081 -17.507   2.328  1.00  0.00     0.164 HD
BRANCH  15  19
HETATM   19  C   UNK A   0      43.763 -18.048   2.352  1.00  0.00     0.036 A 
HETATM   20  C   UNK A   0      43.731 -19.236   1.616  1.00  0.00     0.039 A 
HETATM   21  C   UNK A   0      44.025 -20.429   2.260  1.00  0.00    -0.024 A 
HETATM   22  C   UNK A   0      44.347 -20.466   3.606  1.00  0.00    -0.026 A 
HETATM   23  C   UNK A   0      43.997 -21.813   1.723  1.00  0.00     0.207 C 
HETATM   24  C   UNK A   0      44.559 -21.875   4.021  1.00  0.00     0.207 C 
HETATM   25  C   UNK A   0      44.382 -19.309   4.360  1.00  0.00     0.012 A 
HETATM   26  O   UNK A   0      44.566 -22.621   2.781  1.00  0.00    -0.382 OA
HETATM   27  C   UNK A   0      44.083 -18.099   3.725  1.00  0.00     0.030 A 
ENDBRANCH  15  19
ENDBRANCH   1  13
BRANCH   1  28
ATOM     28  C   TRP A   1      39.461 -14.960   1.663  1.00  0.00     0.189 C 
BRANCH  28  29
ATOM     29  O   TRP A   1      39.692 -13.565   1.862  1.00  0.00    -0.399 OA
ATOM     30  H   TRP A   1      39.098 -13.112   1.237  1.00  0.00     0.209 HD
ENDBRANCH  28  29
ENDBRANCH   1  28
TORSDOF 6
ENDMDL
MODEL 4
REMARK VINA RESULT:      -8.1      4.438      7.373
REMARK  6 active torsions:
REMARK  status: ('A' for Active; 'I' for Inactive)
REMARK    1  A    between atoms: CG_8  and  CB_9 
REMARK    2  A    between atoms: CB_9  and  CA_10 
REMARK    3  A    between atoms: CA_10  and  N_11 
REMARK    4  A    between atoms: CA_10  and  C_12 
REMARK       I    between atoms: N_11  and  C_18 
REMARK    5  A    between atoms: C_12  and  O_13 
REMARK       I    between atoms: C_18  and  N_19 
REMARK    6  A    between atoms: N_19  and  C_20 
ROOT
ATOM      1  CA  TRP A   1      43.689 -17.182   6.308  1.00  0.00     0.114 C 
ENDROOT
BRANCH   1   2
ATOM      2  CB  TRP A   1      44.806 -18.148   5.859  1.00  0.00     0.068 C 
BRANCH   2   3
ATOM      3  CG  TRP A   1      44.517 -18.781   4.527  1.00  0.00    -0.028 A 
ATOM      4  CD2 TRP A   1      44.550 -20.174   4.197  1.00  0.00    -0.002 A 
ATOM      5  CE3 TRP A   1      44.815 -21.352   4.924  1.00  0.00     0.014 A 
ATOM      6  CE2 TRP A   1      44.249 -20.289   2.839  1.00  0.00     0.042 A 
ATOM      7  CZ3 TRP A   1      44.797 -22.589   4.269  1.00  0.00     0.001 A 
ATOM      8  CH2 TRP A   1      44.504 -22.667   2.910  1.00  0.00     0.002 A 
ATOM      9  CZ2 TRP A   1      44.218 -21.518   2.168  1.00  0.00     0.030 A 
ATOM     10  NE1 TRP A   1      44.005 -19.020   2.369  1.00  0.00    -0.365 N 
ATOM     11  HE1 TRP A   1      43.746 -18.802   1.417  1.00  0.00     0.165 HD
ATOM     12  CD1 TRP A   1      44.166 -18.105   3.373  1.00  0.00     0.096 A 
ENDBRANCH   2   3
ENDBRANCH   1   2
BRANCH   1  13
ATOM     13  N   TRP A   1      42.679 -16.952   5.263  1.00  0.00    -0.336 N 
HETATM   14  C   UNK A   0      41.412 -16.538   5.513  1.00  0.00     0.321 C 
HETATM   15  N   UNK A   0      40.589 -16.345   4.448  1.00  0.00    -0.309 N 
HETATM   16  O   UNK A   0      40.965 -16.398   6.649  1.00  0.00    -0.247 OA
HETATM   17  H   UNK A   0      39.623 -16.264   4.744  1.00  0.00     0.170 HD
ATOM     18  H   TRP A   1      42.811 -17.452   4.395  1.00  0.00     0.164 HD
BRANCH  15  19
HETATM   19  C   UNK A   0      40.841 -16.075   3.089  1.00  0.00     0.036 A 
HETATM   20  C   UNK A   0      41.028 -14.793   2.564  1.00  0.00     0.039 A 
HETATM   21  C   UNK A   0      41.187 -14.649   1.193  1.00  0.00    -0.024 A 
HETATM   22  C   UNK A   0      41.162 -15.741   0.342  1.00  0.00    -0.026 A 
HETATM   23  C   UNK A   0      41.334 -13.407   0.395  1.00  0.00     0.207 C 
HETATM   24  C   UNK A   0      41.305 -15.273  -1.059  1.00  0.00     0.207 C 
HETATM   25  C   UNK A   0      40.974 -17.019   0.832  1.00  0.00     0.012 A 
HETATM   26  O   UNK A   0      41.644 -13.872  -0.941  1.00  0.00    -0.382 OA
HETATM   27  C   UNK A   0      40.808 -17.179   2.211  1.00  0.00     0.030 A 
ENDBRANCH  15  19
ENDBRANCH   1  13
BRANCH   1  28
ATOM     28  C   TRP A   1      44.285 -15.872   6.858  1.00  0.00     0.189 C 
BRANCH  28  29
ATOM     29  O   TRP A   1      43.713 -15.562   8.129  1.00  0.00    -0.399 OA
ATOM     30  H   TRP A   1      43.967 -14.639   8.310  1.00  0.00     0.209 HD
ENDBRANCH  28  29
ENDBRANCH   1  28
TORSDOF 6
ENDMDL
MODEL 5
REMARK VINA RESULT:      -8.1      5.703      8.770
REMARK  6 active torsions:
REMARK  status: ('A' for Active; 'I' for Inactive)
REMARK    1  A    between atoms: CG_8  and  CB_9 
REMARK    2  A    between atoms: CB_9  and  CA_10 
REMARK    3  A    between atoms: CA_10  and  N_11 
REMARK    4  A    between atoms: CA_10  and  C_12 
REMARK       I    between atoms: N_11  and  C_18 
REMARK    5  A    between atoms: C_12  and  O_13 
REMARK       I    between atoms: C_18  and  N_19 
REMARK    6  A    between atoms: N_19  and  C_20 
ROOT
ATOM      1  CA  TRP A   1      41.807 -16.906   3.506  1.00  0.00     0.114 C 
ENDROOT
BRANCH   1   2
ATOM      2  CB  TRP A   1      43.350 -16.920   3.452  1.00  0.00     0.068 C 
BRANCH   2   3
ATOM      3  CG  TRP A   1      43.931 -18.198   3.987  1.00  0.00    -0.028 A 
ATOM      4  CD2 TRP A   1      43.988 -19.471   3.334  1.00  0.00    -0.002 A 
ATOM      5  CE3 TRP A   1      43.586 -19.948   2.070  1.00  0.00     0.014 A 
ATOM      6  CE2 TRP A   1      44.580 -20.370   4.222  1.00  0.00     0.042 A 
ATOM      7  CZ3 TRP A   1      43.762 -21.300   1.752  1.00  0.00     0.001 A 
ATOM      8  CH2 TRP A   1      44.345 -22.174   2.666  1.00  0.00     0.002 A 
ATOM      9  CZ2 TRP A   1      44.772 -21.724   3.919  1.00  0.00     0.030 A 
ATOM     10  NE1 TRP A   1      44.904 -19.666   5.357  1.00  0.00    -0.365 N 
ATOM     11  HE1 TRP A   1      45.363 -20.061   6.166  1.00  0.00     0.165 HD
ATOM     12  CD1 TRP A   1      44.517 -18.359   5.229  1.00  0.00     0.096 A 
ENDBRANCH   2   3
ENDBRANCH   1   2
BRANCH   1  13
ATOM     13  N   TRP A   1      41.212 -15.935   2.575  1.00  0.00    -0.336 N 
HETATM   14  C   UNK A   0      41.431 -14.597   2.634  1.00  0.00     0.321 C 
HETATM   15  N   UNK A   0      40.832 -13.817   1.695  1.00  0.00    -0.309 N 
HETATM   16  O   UNK A   0      42.082 -14.064   3.530  1.00  0.00    -0.247 OA
HETATM   17  H   UNK A   0      40.867 -12.839   1.958  1.00  0.00     0.170 HD
ATOM     18  H   TRP A   1      40.354 -16.217   2.121  1.00  0.00     0.164 HD
BRANCH  15  19
HETATM   19  C   UNK A   0      40.350 -14.090   0.400  1.00  0.00     0.036 A 
HETATM   20  C   UNK A   0      41.128 -14.617  -0.634  1.00  0.00     0.039 A 
HETATM   21  C   UNK A   0      40.560 -14.764  -1.890  1.00  0.00    -0.024 A 
HETATM   22  C   UNK A   0      39.247 -14.400  -2.139  1.00  0.00    -0.026 A 
HETATM   23  C   UNK A   0      41.187 -15.232  -3.152  1.00  0.00     0.207 C 
HETATM   24  C   UNK A   0      38.940 -14.622  -3.573  1.00  0.00     0.207 C 
HETATM   25  C   UNK A   0      38.455 -13.871  -1.138  1.00  0.00     0.012 A 
HETATM   26  O   UNK A   0      40.082 -15.351  -4.080  1.00  0.00    -0.382 OA
HETATM   27  C   UNK A   0      39.016 -13.714   0.133  1.00  0.00     0.030 A 
ENDBRANCH  15  19
ENDBRANCH   1  13
BRANCH   1  28
ATOM     28  C   TRP A   1      41.310 -16.723   4.953  1.00  0.00     0.189 C 
BRANCH  28  29
ATOM     29  O   TRP A   1      40.296 -17.682   5.254  1.00  0.00    -0.399 OA
ATOM     30  H   TRP A   1      40.564 -18.498   4.794  1.00  0.00     0.209 HD
ENDBRANCH  28  29
ENDBRANCH   1  28
TORSDOF 6
ENDMDL
MODEL 6
REMARK VINA RESULT:      -8.0      5.837      8.308
REMARK  6 active torsions:
REMARK  status: ('A' for Active; 'I' for Inactive)
REMARK    1  A    between atoms: CG_8  and  CB_9 
REMARK    2  A    between atoms: CB_9  and  CA_10 
REMARK    3  A    between atoms: CA_10  and  N_11 
REMARK    4  A    between atoms: CA_10  and  C_12 
REMARK       I    between atoms: N_11  and  C_18 
REMARK    5  A    between atoms: C_12  and  O_13 
REMARK       I    between atoms: C_18  and  N_19 
REMARK    6  A    between atoms: N_19  and  C_20 
ROOT
ATOM      1  CA  TRP A   1      42.117 -16.835   3.264  1.00  0.00     0.114 C 
ENDROOT
BRANCH   1   2
ATOM      2  CB  TRP A   1      43.650 -16.940   3.417  1.00  0.00     0.068 C 
BRANCH   2   3
ATOM      3  CG  TRP A   1      44.076 -18.235   4.050  1.00  0.00    -0.028 A 
ATOM      4  CD2 TRP A   1      44.132 -19.528   3.437  1.00  0.00    -0.002 A 
ATOM      5  CE3 TRP A   1      43.860 -20.018   2.144  1.00  0.00     0.014 A 
ATOM      6  CE2 TRP A   1      44.548 -20.435   4.413  1.00  0.00     0.042 A 
ATOM      7  CZ3 TRP A   1      43.987 -21.387   1.880  1.00  0.00     0.001 A 
ATOM      8  CH2 TRP A   1      44.394 -22.267   2.880  1.00  0.00     0.002 A 
ATOM      9  CZ2 TRP A   1      44.688 -21.806   4.166  1.00  0.00     0.030 A 
ATOM     10  NE1 TRP A   1      44.773 -19.717   5.564  1.00  0.00    -0.365 N 
ATOM     11  HE1 TRP A   1      45.100 -20.116   6.433  1.00  0.00     0.165 HD
ATOM     12  CD1 TRP A   1      44.490 -18.394   5.359  1.00  0.00     0.096 A 
ENDBRANCH   2   3
ENDBRANCH   1   2
BRANCH   1  13
ATOM     13  N   TRP A   1      41.712 -16.192   2.005  1.00  0.00    -0.336 N 
HETATM   14  C   UNK A   0      40.434 -16.154   1.551  1.00  0.00     0.321 C 
HETATM   15  N   UNK A   0      40.199 -15.506   0.379  1.00  0.00    -0.309 N 
HETATM   16  O   UNK A   0      39.506 -16.730   2.113  1.00  0.00    -0.247 OA
HETATM   17  H   UNK A   0      39.279 -15.728   0.019  1.00  0.00     0.170 HD
ATOM     18  H   TRP A   1      42.428 -16.101   1.298  1.00  0.00     0.164 HD
BRANCH  15  19
HETATM   19  C   UNK A   0      40.900 -14.494  -0.305  1.00  0.00     0.036 A 
HETATM   20  C   UNK A   0      41.300 -13.286   0.274  1.00  0.00     0.039 A 
HETATM   21  C   UNK A   0      41.912 -12.332  -0.525  1.00  0.00    -0.024 A 
HETATM   22  C   UNK A   0      42.132 -12.550  -1.875  1.00  0.00    -0.026 A 
HETATM   23  C   UNK A   0      42.363 -10.963  -0.168  1.00  0.00     0.207 C 
HETATM   24  C   UNK A   0      42.751 -11.341  -2.472  1.00  0.00     0.207 C 
HETATM   25  C   UNK A   0      41.744 -13.731  -2.475  1.00  0.00     0.012 A 
HETATM   26  O   UNK A   0      43.084 -10.506  -1.338  1.00  0.00    -0.382 OA
HETATM   27  C   UNK A   0      41.121 -14.701  -1.683  1.00  0.00     0.030 A 
ENDBRANCH  15  19
ENDBRANCH   1  13
BRANCH   1  28
ATOM     28  C   TRP A   1      41.487 -16.167   4.502  1.00  0.00     0.189 C 
BRANCH  28  29
ATOM     29  O   TRP A   1      40.577 -17.064   5.140  1.00  0.00    -0.399 OA
ATOM     30  H   TRP A   1      40.760 -17.939   4.753  1.00  0.00     0.209 HD
ENDBRANCH  28  29
ENDBRANCH   1  28
TORSDOF 6
ENDMDL
MODEL 7
REMARK VINA RESULT:      -8.0      5.300      7.113
REMARK  6 active torsions:
REMARK  status: ('A' for Active; 'I' for Inactive)
REMARK    1  A    between atoms: CG_8  and  CB_9 
REMARK    2  A    between atoms: CB_9  and  CA_10 
REMARK    3  A    between atoms: CA_10  and  N_11 
REMARK    4  A    between atoms: CA_10  and  C_12 
REMARK       I    between atoms: N_11  and  C_18 
REMARK    5  A    between atoms: C_12  and  O_13 
REMARK       I    between atoms: C_18  and  N_19 
REMARK    6  A    between atoms: N_19  and  C_20 
ROOT
ATOM      1  CA  TRP A   1      41.527 -16.542   4.232  1.00  0.00     0.114 C 
ENDROOT
BRANCH   1   2
ATOM      2  CB  TRP A   1      43.061 -16.497   4.065  1.00  0.00     0.068 C 
BRANCH   2   3
ATOM      3  CG  TRP A   1      43.716 -17.801   4.428  1.00  0.00    -0.028 A 
ATOM      4  CD2 TRP A   1      43.823 -18.978   3.620  1.00  0.00    -0.002 A 
ATOM      5  CE3 TRP A   1      43.420 -19.315   2.313  1.00  0.00     0.014 A 
ATOM      6  CE2 TRP A   1      44.475 -19.949   4.381  1.00  0.00     0.042 A 
ATOM      7  CZ3 TRP A   1      43.656 -20.606   1.826  1.00  0.00     0.001 A 
ATOM      8  CH2 TRP A   1      44.299 -21.555   2.616  1.00  0.00     0.002 A 
ATOM      9  CZ2 TRP A   1      44.728 -21.243   3.909  1.00  0.00     0.030 A 
ATOM     10  NE1 TRP A   1      44.787 -19.375   5.591  1.00  0.00    -0.365 N 
ATOM     11  HE1 TRP A   1      45.280 -19.843   6.338  1.00  0.00     0.165 HD
ATOM     12  CD1 TRP A   1      44.333 -18.084   5.633  1.00  0.00     0.096 A 
ENDBRANCH   2   3
ENDBRANCH   1   2
BRANCH   1  13
ATOM     13  N   TRP A   1      40.818 -15.788   3.187  1.00  0.00    -0.336 N 
HETATM   14  C   UNK A   0      40.252 -16.358   2.093  1.00  0.00     0.321 C 
HETATM   15  N   UNK A   0      39.608 -15.542   1.216  1.00  0.00    -0.309 N 
HETATM   16  O   UNK A   0      40.355 -17.554   1.833  1.00  0.00    -0.247 OA
HETATM   17  H   UNK A   0      39.428 -16.019   0.341  1.00  0.00     0.170 HD
ATOM     18  H   TRP A   1      41.067 -14.813   3.090  1.00  0.00     0.164 HD
BRANCH  15  19
HETATM   19  C   UNK A   0      39.019 -14.271   1.359  1.00  0.00     0.036 A 
HETATM   20  C   UNK A   0      39.390 -13.337   2.330  1.00  0.00     0.039 A 
HETATM   21  C   UNK A   0      38.677 -12.150   2.423  1.00  0.00    -0.024 A 
HETATM   22  C   UNK A   0      37.614 -11.876   1.580  1.00  0.00    -0.026 A 
HETATM   23  C   UNK A   0      38.831 -11.041   3.397  1.00  0.00     0.207 C 
HETATM   24  C   UNK A   0      37.021 -10.566   1.949  1.00  0.00     0.207 C 
HETATM   25  C   UNK A   0      37.221 -12.782   0.614  1.00  0.00     0.012 A 
HETATM   26  O   UNK A   0      37.952 -10.002   2.902  1.00  0.00    -0.382 OA
HETATM   27  C   UNK A   0      37.928 -13.984   0.511  1.00  0.00     0.030 A 
ENDBRANCH  15  19
ENDBRANCH   1  13
BRANCH   1  28
ATOM     28  C   TRP A   1      41.117 -16.115   5.654  1.00  0.00     0.189 C 
BRANCH  28  29
ATOM     29  O   TRP A   1      39.828 -15.501   5.636  1.00  0.00    -0.399 OA
ATOM     30  H   TRP A   1      39.218 -16.187   5.309  1.00  0.00     0.209 HD
ENDBRANCH  28  29
ENDBRANCH   1  28
TORSDOF 6
ENDMDL
MODEL 8
REMARK VINA RESULT:      -7.9      4.532      7.578
REMARK  6 active torsions:
REMARK  status: ('A' for Active; 'I' for Inactive)
REMARK    1  A    between atoms: CG_8  and  CB_9 
REMARK    2  A    between atoms: CB_9  and  CA_10 
REMARK    3  A    between atoms: CA_10  and  N_11 
REMARK    4  A    between atoms: CA_10  and  C_12 
REMARK       I    between atoms: N_11  and  C_18 
REMARK    5  A    between atoms: C_12  and  O_13 
REMARK       I    between atoms: C_18  and  N_19 
REMARK    6  A    between atoms: N_19  and  C_20 
ROOT
ATOM      1  CA  TRP A   1      44.930 -20.560   4.162  1.00  0.00     0.114 C 
ENDROOT
BRANCH   1   2
ATOM      2  CB  TRP A   1      44.438 -20.381   5.614  1.00  0.00     0.068 C 
BRANCH   2   3
ATOM      3  CG  TRP A   1      44.300 -18.935   6.000  1.00  0.00    -0.028 A 
ATOM      4  CD2 TRP A   1      43.144 -18.102   5.861  1.00  0.00    -0.002 A 
ATOM      5  CE3 TRP A   1      41.834 -18.306   5.385  1.00  0.00     0.014 A 
ATOM      6  CE2 TRP A   1      43.490 -16.829   6.316  1.00  0.00     0.042 A 
ATOM      7  CZ3 TRP A   1      40.933 -17.236   5.354  1.00  0.00     0.001 A 
ATOM      8  CH2 TRP A   1      41.314 -15.974   5.804  1.00  0.00     0.002 A 
ATOM      9  CZ2 TRP A   1      42.601 -15.747   6.301  1.00  0.00     0.030 A 
ATOM     10  NE1 TRP A   1      44.794 -16.893   6.749  1.00  0.00    -0.365 N 
ATOM     11  HE1 TRP A   1      45.304 -16.118   7.147  1.00  0.00     0.165 HD
ATOM     12  CD1 TRP A   1      45.292 -18.153   6.562  1.00  0.00     0.096 A 
ENDBRANCH   2   3
ENDBRANCH   1   2
BRANCH   1  13
ATOM     13  N   TRP A   1      44.334 -19.586   3.234  1.00  0.00    -0.336 N 
HETATM   14  C   UNK A   0      43.701 -19.926   2.083  1.00  0.00     0.321 C 
HETATM   15  N   UNK A   0      43.177 -18.923   1.329  1.00  0.00    -0.309 N 
HETATM   16  O   UNK A   0      43.643 -21.081   1.667  1.00  0.00    -0.247 OA
HETATM   17  H   UNK A   0      42.938 -19.252   0.401  1.00  0.00     0.170 HD
ATOM     18  H   TRP A   1      44.713 -18.650   3.262  1.00  0.00     0.164 HD
BRANCH  15  19
HETATM   19  C   UNK A   0      42.765 -17.614   1.645  1.00  0.00     0.036 A 
HETATM   20  C   UNK A   0      43.594 -16.644   2.215  1.00  0.00     0.039 A 
HETATM   21  C   UNK A   0      43.049 -15.415   2.557  1.00  0.00    -0.024 A 
HETATM   22  C   UNK A   0      41.709 -15.133   2.347  1.00  0.00    -0.026 A 
HETATM   23  C   UNK A   0      43.695 -14.259   3.226  1.00  0.00     0.207 C 
HETATM   24  C   UNK A   0      41.409 -13.772   2.856  1.00  0.00     0.207 C 
HETATM   25  C   UNK A   0      40.865 -16.073   1.790  1.00  0.00     0.012 A 
HETATM   26  O   UNK A   0      42.705 -13.204   3.159  1.00  0.00    -0.382 OA
HETATM   27  C   UNK A   0      41.400 -17.318   1.444  1.00  0.00     0.030 A 
ENDBRANCH  15  19
ENDBRANCH   1  13
BRANCH   1  28
ATOM     28  C   TRP A   1      44.744 -22.016   3.695  1.00  0.00     0.189 C 
BRANCH  28  29
ATOM     29  O   TRP A   1      44.906 -22.914   4.792  1.00  0.00    -0.399 OA
ATOM     30  H   TRP A   1      44.591 -22.428   5.575  1.00  0.00     0.209 HD
ENDBRANCH  28  29
ENDBRANCH   1  28
TORSDOF 6
ENDMDL
MODEL 9
REMARK VINA RESULT:      -7.8      4.439      8.338
REMARK  6 active torsions:
REMARK  status: ('A' for Active; 'I' for Inactive)
REMARK    1  A    between atoms: CG_8  and  CB_9 
REMARK    2  A    between atoms: CB_9  and  CA_10 
REMARK    3  A    between atoms: CA_10  and  N_11 
REMARK    4  A    between atoms: CA_10  and  C_12 
REMARK       I    between atoms: N_11  and  C_18 
REMARK    5  A    between atoms: C_12  and  O_13 
REMARK       I    between atoms: C_18  and  N_19 
REMARK    6  A    between atoms: N_19  and  C_20 
ROOT
ATOM      1  CA  TRP A   1      42.993 -14.698   5.235  1.00  0.00     0.114 C 
ENDROOT
BRANCH   1   2
ATOM      2  CB  TRP A   1      43.579 -13.866   4.074  1.00  0.00     0.068 C 
BRANCH   2   3
ATOM      3  CG  TRP A   1      42.641 -13.776   2.903  1.00  0.00    -0.028 A 
ATOM      4  CD2 TRP A   1      42.342 -14.798   1.945  1.00  0.00    -0.002 A 
ATOM      5  CE3 TRP A   1      42.751 -16.135   1.770  1.00  0.00     0.014 A 
ATOM      6  CE2 TRP A   1      41.449 -14.254   1.020  1.00  0.00     0.042 A 
ATOM      7  CZ3 TRP A   1      42.281 -16.866   0.673  1.00  0.00     0.001 A 
ATOM      8  CH2 TRP A   1      41.400 -16.289  -0.238  1.00  0.00     0.002 A 
ATOM      9  CZ2 TRP A   1      40.961 -14.972  -0.079  1.00  0.00     0.030 A 
ATOM     10  NE1 TRP A   1      41.186 -12.965   1.420  1.00  0.00    -0.365 N 
ATOM     11  HE1 TRP A   1      40.556 -12.335   0.944  1.00  0.00     0.165 HD
ATOM     12  CD1 TRP A   1      41.898 -12.665   2.549  1.00  0.00     0.096 A 
ENDBRANCH   2   3
ENDBRANCH   1   2
BRANCH   1  13
ATOM     13  N   TRP A   1      43.552 -16.057   5.303  1.00  0.00    -0.336 N 
HETATM   14  C   UNK A   0      43.743 -16.741   6.459  1.00  0.00     0.321 C 
HETATM   15  N   UNK A   0      44.250 -18.000   6.372  1.00  0.00    -0.309 N 
HETATM   16  O   UNK A   0      43.543 -16.251   7.568  1.00  0.00    -0.247 OA
HETATM   17  H   UNK A   0      44.564 -18.328   7.277  1.00  0.00     0.170 HD
ATOM     18  H   TRP A   1      44.136 -16.340   4.528  1.00  0.00     0.164 HD
BRANCH  15  19
HETATM   19  C   UNK A   0      44.256 -18.952   5.334  1.00  0.00     0.036 A 
HETATM   20  C   UNK A   0      44.487 -20.317   5.521  1.00  0.00     0.039 A 
HETATM   21  C   UNK A   0      44.551 -21.143   4.409  1.00  0.00    -0.024 A 
HETATM   22  C   UNK A   0      44.393 -20.645   3.126  1.00  0.00    -0.026 A 
HETATM   23  C   UNK A   0      44.845 -22.596   4.338  1.00  0.00     0.207 C 
HETATM   24  C   UNK A   0      44.562 -21.748   2.148  1.00  0.00     0.207 C 
HETATM   25  C   UNK A   0      44.168 -19.300   2.910  1.00  0.00     0.012 A 
HETATM   26  O   UNK A   0      44.597 -22.948   2.956  1.00  0.00    -0.382 OA
HETATM   27  C   UNK A   0      44.106 -18.454   4.022  1.00  0.00     0.030 A 
ENDBRANCH  15  19
ENDBRANCH   1  13
BRANCH   1  28
ATOM     28  C   TRP A   1      41.453 -14.691   5.193  1.00  0.00     0.189 C 
BRANCH  28  29
ATOM     29  O   TRP A   1      40.920 -14.740   6.517  1.00  0.00    -0.399 OA
ATOM     30  H   TRP A   1      40.336 -15.520   6.533  1.00  0.00     0.209 HD
ENDBRANCH  28  29
ENDBRANCH   1  28
TORSDOF 6
ENDMDL
MODEL 10
REMARK VINA RESULT:      -7.8      1.219      1.728
REMARK  6 active torsions:
REMARK  status: ('A' for Active; 'I' for Inactive)
REMARK    1  A    between atoms: CG_8  and  CB_9 
REMARK    2  A    between atoms: CB_9  and  CA_10 
REMARK    3  A    between atoms: CA_10  and  N_11 
REMARK    4  A    between atoms: CA_10  and  C_12 
REMARK       I    between atoms: N_11  and  C_18 
REMARK    5  A    between atoms: C_12  and  O_13 
REMARK       I    between atoms: C_18  and  N_19 
REMARK    6  A    between atoms: N_19  and  C_20 
ROOT
ATOM      1  CA  TRP A   1      43.188 -14.189   5.717  1.00  0.00     0.114 C 
ENDROOT
BRANCH   1   2
ATOM      2  CB  TRP A   1      42.843 -15.693   5.776  1.00  0.00     0.068 C 
BRANCH   2   3
ATOM      3  CG  TRP A   1      43.172 -16.408   4.496  1.00  0.00    -0.028 A 
ATOM      4  CD2 TRP A   1      43.637 -17.754   4.344  1.00  0.00    -0.002 A 
ATOM      5  CE3 TRP A   1      43.909 -18.809   5.237  1.00  0.00     0.014 A 
ATOM      6  CE2 TRP A   1      43.843 -17.972   2.981  1.00  0.00     0.042 A 
ATOM      7  CZ3 TRP A   1      44.400 -20.024   4.746  1.00  0.00     0.001 A 
ATOM      8  CH2 TRP A   1      44.607 -20.205   3.381  1.00  0.00     0.002 A 
ATOM      9  CZ2 TRP A   1      44.326 -19.183   2.469  1.00  0.00     0.030 A 
ATOM     10  NE1 TRP A   1      43.484 -16.818   2.326  1.00  0.00    -0.365 N 
ATOM     11  HE1 TRP A   1      43.515 -16.695   1.324  1.00  0.00     0.165 HD
ATOM     12  CD1 TRP A   1      43.081 -15.870   3.226  1.00  0.00     0.096 A 
ENDBRANCH   2   3
ENDBRANCH   1   2
BRANCH   1  13
ATOM     13  N   TRP A   1      43.611 -13.649   7.019  1.00  0.00    -0.336 N 
HETATM   14  C   UNK A   0      44.889 -13.308   7.318  1.00  0.00     0.321 C 
HETATM   15  N   UNK A   0      45.134 -12.800   8.556  1.00  0.00    -0.309 N 
HETATM   16  O   UNK A   0      45.831 -13.500   6.552  1.00  0.00    -0.247 OA
HETATM   17  H   UNK A   0      46.127 -12.796   8.757  1.00  0.00     0.170 HD
ATOM     18  H   TRP A   1      43.023 -13.875   7.809  1.00  0.00     0.164 HD
BRANCH  15  19
HETATM   19  C   UNK A   0      44.312 -12.148   9.495  1.00  0.00     0.036 A 
HETATM   20  C   UNK A   0      43.424 -11.117   9.179  1.00  0.00     0.039 A 
HETATM   21  C   UNK A   0      42.728 -10.496  10.206  1.00  0.00    -0.024 A 
HETATM   22  C   UNK A   0      42.896 -10.874  11.528  1.00  0.00    -0.026 A 
HETATM   23  C   UNK A   0      41.788  -9.349  10.140  1.00  0.00     0.207 C 
HETATM   24  C   UNK A   0      42.067 -10.003  12.396  1.00  0.00     0.207 C 
HETATM   25  C   UNK A   0      43.771 -11.887  11.870  1.00  0.00     0.012 A 
HETATM   26  O   UNK A   0      41.237  -9.257  11.476  1.00  0.00    -0.382 OA
HETATM   27  C   UNK A   0      44.483 -12.519  10.846  1.00  0.00     0.030 A 
ENDBRANCH  15  19
ENDBRANCH   1  13
BRANCH   1  28
ATOM     28  C   TRP A   1      42.035 -13.385   5.086  1.00  0.00     0.189 C 
BRANCH  28  29
ATOM     29  O   TRP A   1      42.534 -12.515   4.070  1.00  0.00    -0.399 OA
ATOM     30  H   TRP A   1      43.286 -12.047   4.476  1.00  0.00     0.209 HD
ENDBRANCH  28  29
ENDBRANCH   1  28
TORSDOF 6
ENDMDL
