MODEL 1
REMARK VINA RESULT:      -9.1      0.000      0.000
REMARK  5 active torsions:
REMARK  status: ('A' for Active; 'I' for Inactive)
REMARK    1  A    between atoms: C_2  and  C_3 
REMARK    2  A    between atoms: C_6  and  C_7 
REMARK    3  A    between atoms: C_7  and  C_8 
REMARK       I    between atoms: C_8  and  N_9 
REMARK    4  A    between atoms: N_9  and  C_10 
REMARK    5  A    between atoms: C_12  and  C_13 
ROOT
HETATM    1  C   UNL     1      43.555 -15.865   7.389  1.00  0.00     0.226 C 
HETATM    2  N   UNL     1      43.976 -14.647   6.871  1.00  0.00    -0.327 N 
HETATM    3  O   UNL     1      43.840 -16.319   8.493  1.00  0.00    -0.273 OA
HETATM    4  H   UNL     1      43.728 -14.456   5.909  1.00  0.00     0.169 HD
ENDROOT
BRANCH   1   5
HETATM    5  C   UNL     1      42.632 -16.614   6.435  1.00  0.00     0.144 C 
BRANCH   5   6
HETATM    6  C   UNL     1      43.307 -17.718   5.686  1.00  0.00    -0.021 A 
HETATM    7  C   UNL     1      43.139 -18.081   4.307  1.00  0.00    -0.001 A 
HETATM    8  C   UNL     1      43.900 -19.231   4.078  1.00  0.00     0.049 A 
HETATM    9  C   UNL     1      42.398 -17.549   3.233  1.00  0.00     0.014 A 
HETATM   10  C   UNL     1      43.945 -19.900   2.837  1.00  0.00    -0.031 A 
HETATM   11  N   UNL     1      44.539 -19.527   5.261  1.00  0.00    -0.364 N 
HETATM   12  C   UNL     1      43.200 -19.325   1.793  1.00  0.00     0.009 A 
HETATM   13  C   UNL     1      42.443 -18.172   1.983  1.00  0.00     0.002 A 
HETATM   14  C   UNL     1      44.185 -18.634   6.232  1.00  0.00     0.097 A 
HETATM   15  H   UNL     1      45.173 -20.303   5.388  1.00  0.00     0.165 HD
BRANCH  10  16
HETATM   16  C   UNL     1      44.743 -21.156   2.592  1.00  0.00     0.036 C 
HETATM   17  C   UNL     1      44.135 -22.013   1.492  1.00  0.00     0.010 C 
ENDBRANCH  10  16
ENDBRANCH   5   6
ENDBRANCH   1   5
BRANCH   2  18
HETATM   18  C   UNL     1      44.746 -13.656   7.512  1.00  0.00     0.035 A 
HETATM   19  C   UNL     1      44.195 -13.065   8.661  1.00  0.00     0.042 A 
HETATM   20  C   UNL     1      44.894 -12.083   9.382  1.00  0.00    -0.021 A 
HETATM   21  C   UNL     1      46.165 -11.701   8.942  1.00  0.00     0.012 A 
HETATM   22  C   UNL     1      46.720 -12.284   7.801  1.00  0.00     0.003 A 
HETATM   23  C   UNL     1      46.012 -13.254   7.088  1.00  0.00     0.029 A 
BRANCH  20  24
HETATM   24  C   UNL     1      44.288 -11.475  10.554  1.00  0.00     0.010 A 
HETATM   25  C   UNL     1      44.026 -10.118  10.860  1.00  0.00     0.152 A 
HETATM   26  N   UNL     1      43.431  -9.960  12.045  1.00  0.00    -0.187 NA
HETATM   27  N   UNL     1      43.314 -11.215  12.507  1.00  0.00    -0.289 N 
HETATM   28  H   UNL     1      42.882 -11.356  13.414  1.00  0.00     0.188 HD
HETATM   29  C   UNL     1      43.809 -12.157  11.652  1.00  0.00     0.123 A 
ENDBRANCH  20  24
ENDBRANCH   2  18
TORSDOF 5
ENDMDL
MODEL 2
REMARK VINA RESULT:      -9.0      4.205      6.406
REMARK  5 active torsions:
REMARK  status: ('A' for Active; 'I' for Inactive)
REMARK    1  A    between atoms: C_2  and  C_3 
REMARK    2  A    between atoms: C_6  and  C_7 
REMARK    3  A    between atoms: C_7  and  C_8 
REMARK       I    between atoms: C_8  and  N_9 
REMARK    4  A    between atoms: N_9  and  C_10 
REMARK    5  A    between atoms: C_12  and  C_13 
ROOT
HETATM    1  C   UNL     1      41.597 -16.381   6.528  1.00  0.00     0.226 C 
HETATM    2  N   UNL     1      41.839 -15.083   6.098  1.00  0.00    -0.327 N 
HETATM    3  O   UNL     1      40.533 -16.986   6.439  1.00  0.00    -0.273 OA
HETATM    4  H   UNL     1      42.745 -14.694   6.326  1.00  0.00     0.169 HD
ENDROOT
BRANCH   1   5
HETATM    5  C   UNL     1      42.839 -17.039   7.118  1.00  0.00     0.144 C 
BRANCH   5   6
HETATM    6  C   UNL     1      43.378 -18.161   6.289  1.00  0.00    -0.021 A 
HETATM    7  C   UNL     1      43.565 -18.196   4.866  1.00  0.00    -0.001 A 
HETATM    8  C   UNL     1      44.002 -19.481   4.530  1.00  0.00     0.049 A 
HETATM    9  C   UNL     1      43.388 -17.261   3.827  1.00  0.00     0.014 A 
HETATM   10  C   UNL     1      44.252 -19.897   3.206  1.00  0.00    -0.031 A 
HETATM   11  N   UNL     1      44.118 -20.182   5.709  1.00  0.00    -0.364 N 
HETATM   12  C   UNL     1      44.074 -18.925   2.205  1.00  0.00     0.009 A 
HETATM   13  C   UNL     1      43.653 -17.633   2.506  1.00  0.00     0.002 A 
HETATM   14  C   UNL     1      43.739 -19.405   6.767  1.00  0.00     0.097 A 
HETATM   15  H   UNL     1      44.432 -21.140   5.774  1.00  0.00     0.165 HD
BRANCH  10  16
HETATM   16  C   UNL     1      44.698 -21.289   2.835  1.00  0.00     0.036 C 
HETATM   17  C   UNL     1      43.970 -21.814   1.608  1.00  0.00     0.010 C 
ENDBRANCH  10  16
ENDBRANCH   5   6
ENDBRANCH   1   5
BRANCH   2  18
HETATM   18  C   UNL     1      40.957 -14.220   5.417  1.00  0.00     0.035 A 
HETATM   19  C   UNL     1      40.742 -14.475   4.053  1.00  0.00     0.042 A 
HETATM   20  C   UNL     1      39.865 -13.685   3.293  1.00  0.00    -0.021 A 
HETATM   21  C   UNL     1      39.193 -12.631   3.919  1.00  0.00     0.012 A 
HETATM   22  C   UNL     1      39.401 -12.370   5.275  1.00  0.00     0.003 A 
HETATM   23  C   UNL     1      40.281 -13.159   6.019  1.00  0.00     0.029 A 
BRANCH  20  24
HETATM   24  C   UNL     1      39.680 -13.961   1.878  1.00  0.00     0.010 A 
HETATM   25  C   UNL     1      40.624 -14.090   0.831  1.00  0.00     0.152 A 
HETATM   26  N   UNL     1      40.056 -14.369  -0.346  1.00  0.00    -0.187 NA
HETATM   27  N   UNL     1      38.745 -14.416  -0.058  1.00  0.00    -0.289 N 
HETATM   28  H   UNL     1      38.095 -14.617  -0.810  1.00  0.00     0.188 HD
HETATM   29  C   UNL     1      38.469 -14.181   1.258  1.00  0.00     0.123 A 
ENDBRANCH  20  24
ENDBRANCH   2  18
TORSDOF 5
ENDMDL
MODEL 3
REMARK VINA RESULT:      -8.8      5.204      8.313
REMARK  5 active torsions:
REMARK  status: ('A' for Active; 'I' for Inactive)
REMARK    1  A    between atoms: C_2  and  C_3 
REMARK    2  A    between atoms: C_6  and  C_7 
REMARK    3  A    between atoms: C_7  and  C_8 
REMARK       I    between atoms: C_8  and  N_9 
REMARK    4  A    between atoms: N_9  and  C_10 
REMARK    5  A    between atoms: C_12  and  C_13 
ROOT
HETATM    1  C   UNL     1      41.038 -15.347   4.049  1.00  0.00     0.226 C 
HETATM    2  N   UNL     1      39.988 -15.428   3.143  1.00  0.00    -0.327 N 
HETATM    3  O   UNL     1      41.958 -14.534   4.019  1.00  0.00    -0.273 OA
HETATM    4  H   UNL     1      39.358 -16.212   3.254  1.00  0.00     0.169 HD
ENDROOT
BRANCH   1   5
HETATM    5  C   UNL     1      40.927 -16.380   5.162  1.00  0.00     0.144 C 
BRANCH   5   6
HETATM    6  C   UNL     1      42.070 -17.343   5.207  1.00  0.00    -0.021 A 
HETATM    7  C   UNL     1      42.631 -18.098   4.123  1.00  0.00    -0.001 A 
HETATM    8  C   UNL     1      43.618 -18.933   4.656  1.00  0.00     0.049 A 
HETATM    9  C   UNL     1      42.382 -18.164   2.738  1.00  0.00     0.014 A 
HETATM   10  C   UNL     1      44.359 -19.853   3.886  1.00  0.00    -0.031 A 
HETATM   11  N   UNL     1      43.682 -18.661   6.004  1.00  0.00    -0.364 N 
HETATM   12  C   UNL     1      44.084 -19.873   2.507  1.00  0.00     0.009 A 
HETATM   13  C   UNL     1      43.119 -19.046   1.941  1.00  0.00     0.002 A 
HETATM   14  C   UNL     1      42.755 -17.718   6.347  1.00  0.00     0.097 A 
HETATM   15  H   UNL     1      44.322 -19.107   6.646  1.00  0.00     0.165 HD
BRANCH  10  16
HETATM   16  C   UNL     1      45.405 -20.775   4.461  1.00  0.00     0.036 C 
HETATM   17  C   UNL     1      44.830 -22.135   4.824  1.00  0.00     0.010 C 
ENDBRANCH  10  16
ENDBRANCH   5   6
ENDBRANCH   1   5
BRANCH   2  18
HETATM   18  C   UNL     1      39.716 -14.572   2.057  1.00  0.00     0.035 A 
HETATM   19  C   UNL     1      40.362 -14.858   0.844  1.00  0.00     0.042 A 
HETATM   20  C   UNL     1      40.140 -14.077  -0.302  1.00  0.00    -0.021 A 
HETATM   21  C   UNL     1      39.250 -13.001  -0.222  1.00  0.00     0.012 A 
HETATM   22  C   UNL     1      38.604 -12.711   0.980  1.00  0.00     0.003 A 
HETATM   23  C   UNL     1      38.838 -13.491   2.115  1.00  0.00     0.029 A 
BRANCH  20  24
HETATM   24  C   UNL     1      40.841 -14.385  -1.538  1.00  0.00     0.010 A 
HETATM   25  C   UNL     1      40.671 -15.449  -2.456  1.00  0.00     0.152 A 
HETATM   26  N   UNL     1      41.507 -15.373  -3.495  1.00  0.00    -0.187 NA
HETATM   27  N   UNL     1      42.219 -14.263  -3.245  1.00  0.00    -0.289 N 
HETATM   28  H   UNL     1      42.935 -13.991  -3.911  1.00  0.00     0.188 HD
HETATM   29  C   UNL     1      41.857 -13.634  -2.089  1.00  0.00     0.123 A 
ENDBRANCH  20  24
ENDBRANCH   2  18
TORSDOF 5
ENDMDL
MODEL 4
REMARK VINA RESULT:      -8.8      6.155      9.091
REMARK  5 active torsions:
REMARK  status: ('A' for Active; 'I' for Inactive)
REMARK    1  A    between atoms: C_2  and  C_3 
REMARK    2  A    between atoms: C_6  and  C_7 
REMARK    3  A    between atoms: C_7  and  C_8 
REMARK       I    between atoms: C_8  and  N_9 
REMARK    4  A    between atoms: N_9  and  C_10 
REMARK    5  A    between atoms: C_12  and  C_13 
ROOT
HETATM    1  C   UNL     1      42.020 -17.114   1.184  1.00  0.00     0.226 C 
HETATM    2  N   UNL     1      41.763 -15.759   1.017  1.00  0.00    -0.327 N 
HETATM    3  O   UNL     1      41.180 -18.008   1.231  1.00  0.00    -0.273 OA
HETATM    4  H   UNL     1      42.559 -15.138   1.090  1.00  0.00     0.169 HD
ENDROOT
BRANCH   1   5
HETATM    5  C   UNL     1      43.510 -17.417   1.271  1.00  0.00     0.144 C 
BRANCH   5   6
HETATM    6  C   UNL     1      43.887 -18.251   2.454  1.00  0.00    -0.021 A 
HETATM    7  C   UNL     1      44.071 -19.674   2.509  1.00  0.00    -0.001 A 
HETATM    8  C   UNL     1      44.324 -20.015   3.841  1.00  0.00     0.049 A 
HETATM    9  C   UNL     1      44.029 -20.708   1.553  1.00  0.00     0.014 A 
HETATM   10  C   UNL     1      44.515 -21.341   4.282  1.00  0.00    -0.031 A 
HETATM   11  N   UNL     1      44.338 -18.839   4.557  1.00  0.00    -0.364 N 
HETATM   12  C   UNL     1      44.478 -22.337   3.290  1.00  0.00     0.009 A 
HETATM   13  C   UNL     1      44.242 -22.030   1.953  1.00  0.00     0.002 A 
HETATM   14  C   UNL     1      44.069 -17.778   3.739  1.00  0.00     0.097 A 
HETATM   15  H   UNL     1      44.514 -18.778   5.549  1.00  0.00     0.165 HD
BRANCH  10  16
HETATM   16  C   UNL     1      44.762 -21.718   5.721  1.00  0.00     0.036 C 
HETATM   17  C   UNL     1      43.650 -21.231   6.637  1.00  0.00     0.010 C 
ENDBRANCH  10  16
ENDBRANCH   5   6
ENDBRANCH   1   5
BRANCH   2  18
HETATM   18  C   UNL     1      40.518 -15.135   0.800  1.00  0.00     0.035 A 
HETATM   19  C   UNL     1      40.336 -14.490  -0.433  1.00  0.00     0.042 A 
HETATM   20  C   UNL     1      39.123 -13.858  -0.753  1.00  0.00    -0.021 A 
HETATM   21  C   UNL     1      38.083 -13.885   0.181  1.00  0.00     0.012 A 
HETATM   22  C   UNL     1      38.256 -14.525   1.409  1.00  0.00     0.003 A 
HETATM   23  C   UNL     1      39.469 -15.144   1.718  1.00  0.00     0.029 A 
BRANCH  20  24
HETATM   24  C   UNL     1      38.972 -13.180  -2.029  1.00  0.00     0.010 A 
HETATM   25  C   UNL     1      39.825 -12.269  -2.699  1.00  0.00     0.152 A 
HETATM   26  N   UNL     1      39.337 -11.875  -3.878  1.00  0.00    -0.187 NA
HETATM   27  N   UNL     1      38.168 -12.528  -3.968  1.00  0.00    -0.289 N 
HETATM   28  H   UNL     1      37.600 -12.387  -4.797  1.00  0.00     0.188 HD
HETATM   29  C   UNL     1      37.905 -13.323  -2.889  1.00  0.00     0.123 A 
ENDBRANCH  20  24
ENDBRANCH   2  18
TORSDOF 5
ENDMDL
MODEL 5
REMARK VINA RESULT:      -8.6      5.315      8.744
REMARK  5 active torsions:
REMARK  status: ('A' for Active; 'I' for Inactive)
REMARK    1  A    between atoms: C_2  and  C_3 
REMARK    2  A    between atoms: C_6  and  C_7 
REMARK    3  A    between atoms: C_7  and  C_8 
REMARK       I    between atoms: C_8  and  N_9 
REMARK    4  A    between atoms: N_9  and  C_10 
REMARK    5  A    between atoms: C_12  and  C_13 
ROOT
HETATM    1  C   UNL     1      41.609 -16.767   0.654  1.00  0.00     0.226 C 
HETATM    2  N   UNL     1      40.738 -15.892   0.016  1.00  0.00    -0.327 N 
HETATM    3  O   UNL     1      42.758 -17.025   0.306  1.00  0.00    -0.273 OA
HETATM    4  H   UNL     1      39.793 -15.856   0.375  1.00  0.00     0.169 HD
ENDROOT
BRANCH   1   5
HETATM    5  C   UNL     1      41.000 -17.382   1.907  1.00  0.00     0.144 C 
BRANCH   5   6
HETATM    6  C   UNL     1      41.909 -17.354   3.094  1.00  0.00    -0.021 A 
HETATM    7  C   UNL     1      42.934 -18.297   3.444  1.00  0.00    -0.001 A 
HETATM    8  C   UNL     1      43.454 -17.914   4.684  1.00  0.00     0.049 A 
HETATM    9  C   UNL     1      43.459 -19.451   2.830  1.00  0.00     0.014 A 
HETATM   10  C   UNL     1      44.459 -18.634   5.363  1.00  0.00    -0.031 A 
HETATM   11  N   UNL     1      42.801 -16.759   5.049  1.00  0.00    -0.364 N 
HETATM   12  C   UNL     1      44.960 -19.772   4.705  1.00  0.00     0.009 A 
HETATM   13  C   UNL     1      44.474 -20.173   3.464  1.00  0.00     0.002 A 
HETATM   14  C   UNL     1      41.868 -16.419   4.110  1.00  0.00     0.097 A 
HETATM   15  H   UNL     1      42.984 -16.244   5.898  1.00  0.00     0.165 HD
BRANCH  10  16
HETATM   16  C   UNL     1      45.004 -18.241   6.712  1.00  0.00     0.036 C 
HETATM   17  C   UNL     1      44.081 -18.658   7.846  1.00  0.00     0.010 C 
ENDBRANCH  10  16
ENDBRANCH   5   6
ENDBRANCH   1   5
BRANCH   2  18
HETATM   18  C   UNL     1      40.999 -15.076  -1.103  1.00  0.00     0.035 A 
HETATM   19  C   UNL     1      41.602 -13.832  -0.857  1.00  0.00     0.042 A 
HETATM   20  C   UNL     1      41.921 -12.957  -1.907  1.00  0.00    -0.021 A 
HETATM   21  C   UNL     1      41.635 -13.345  -3.220  1.00  0.00     0.012 A 
HETATM   22  C   UNL     1      41.036 -14.581  -3.473  1.00  0.00     0.003 A 
HETATM   23  C   UNL     1      40.717 -15.440  -2.419  1.00  0.00     0.029 A 
BRANCH  20  24
HETATM   24  C   UNL     1      42.525 -11.666  -1.619  1.00  0.00     0.010 A 
HETATM   25  C   UNL     1      42.883 -11.068  -0.387  1.00  0.00     0.152 A 
HETATM   26  N   UNL     1      43.439  -9.863  -0.539  1.00  0.00    -0.187 NA
HETATM   27  N   UNL     1      43.435  -9.682  -1.869  1.00  0.00    -0.289 N 
HETATM   28  H   UNL     1      43.816  -8.817  -2.238  1.00  0.00     0.188 HD
HETATM   29  C   UNL     1      42.902 -10.732  -2.560  1.00  0.00     0.123 A 
ENDBRANCH  20  24
ENDBRANCH   2  18
TORSDOF 5
ENDMDL
MODEL 6
REMARK VINA RESULT:      -8.5      1.749      2.709
REMARK  5 active torsions:
REMARK  status: ('A' for Active; 'I' for Inactive)
REMARK    1  A    between atoms: C_2  and  C_3 
REMARK    2  A    between atoms: C_6  and  C_7 
REMARK    3  A    between atoms: C_7  and  C_8 
REMARK       I    between atoms: C_8  and  N_9 
REMARK    4  A    between atoms: N_9  and  C_10 
REMARK    5  A    between atoms: C_12  and  C_13 
ROOT
HETATM    1  C   UNL     1      44.231 -14.659   6.777  1.00  0.00     0.226 C 
HETATM    2  N   UNL     1      44.326 -14.314   8.119  1.00  0.00    -0.327 N 
HETATM    3  O   UNL     1      44.503 -13.936   5.823  1.00  0.00    -0.273 OA
HETATM    4  H   UNL     1      43.979 -14.993   8.785  1.00  0.00     0.169 HD
ENDROOT
BRANCH   1   5
HETATM    5  C   UNL     1      43.773 -16.099   6.578  1.00  0.00     0.144 C 
BRANCH   5   6
HETATM    6  C   UNL     1      42.943 -16.303   5.351  1.00  0.00    -0.021 A 
HETATM    7  C   UNL     1      43.131 -17.272   4.309  1.00  0.00    -0.001 A 
HETATM    8  C   UNL     1      42.171 -17.025   3.324  1.00  0.00     0.049 A 
HETATM    9  C   UNL     1      44.040 -18.329   4.102  1.00  0.00     0.014 A 
HETATM   10  C   UNL     1      42.079 -17.760   2.124  1.00  0.00    -0.031 A 
HETATM   11  N   UNL     1      41.402 -15.975   3.773  1.00  0.00    -0.364 N 
HETATM   12  C   UNL     1      42.999 -18.812   1.968  1.00  0.00     0.009 A 
HETATM   13  C   UNL     1      43.959 -19.095   2.935  1.00  0.00     0.002 A 
HETATM   14  C   UNL     1      41.860 -15.529   4.981  1.00  0.00     0.097 A 
HETATM   15  H   UNL     1      40.617 -15.587   3.271  1.00  0.00     0.165 HD
BRANCH  10  16
HETATM   16  C   UNL     1      41.063 -17.479   1.046  1.00  0.00     0.036 C 
HETATM   17  C   UNL     1      41.519 -16.378   0.103  1.00  0.00     0.010 C 
ENDBRANCH  10  16
ENDBRANCH   5   6
ENDBRANCH   1   5
BRANCH   2  18
HETATM   18  C   UNL     1      44.810 -13.110   8.670  1.00  0.00     0.035 A 
HETATM   19  C   UNL     1      44.082 -12.559   9.735  1.00  0.00     0.042 A 
HETATM   20  C   UNL     1      44.495 -11.374  10.365  1.00  0.00    -0.021 A 
HETATM   21  C   UNL     1      45.660 -10.744   9.917  1.00  0.00     0.012 A 
HETATM   22  C   UNL     1      46.391 -11.286   8.858  1.00  0.00     0.003 A 
HETATM   23  C   UNL     1      45.966 -12.462   8.235  1.00  0.00     0.029 A 
BRANCH  20  24
HETATM   24  C   UNL     1      43.708 -10.816  11.451  1.00  0.00     0.010 A 
HETATM   25  C   UNL     1      43.083 -11.442  12.556  1.00  0.00     0.152 A 
HETATM   26  N   UNL     1      42.459 -10.575  13.358  1.00  0.00    -0.187 NA
HETATM   27  N   UNL     1      42.677  -9.389  12.768  1.00  0.00    -0.289 N 
HETATM   28  H   UNL     1      42.291  -8.557  13.202  1.00  0.00     0.188 HD
HETATM   29  C   UNL     1      43.421  -9.479  11.626  1.00  0.00     0.123 A 
ENDBRANCH  20  24
ENDBRANCH   2  18
TORSDOF 5
ENDMDL
MODEL 7
REMARK VINA RESULT:      -8.5      4.983      7.084
REMARK  5 active torsions:
REMARK  status: ('A' for Active; 'I' for Inactive)
REMARK    1  A    between atoms: C_2  and  C_3 
REMARK    2  A    between atoms: C_6  and  C_7 
REMARK    3  A    between atoms: C_7  and  C_8 
REMARK       I    between atoms: C_8  and  N_9 
REMARK    4  A    between atoms: N_9  and  C_10 
REMARK    5  A    between atoms: C_12  and  C_13 
ROOT
HETATM    1  C   UNL     1      40.917 -15.880   0.838  1.00  0.00     0.226 C 
HETATM    2  N   UNL     1      39.594 -15.630   1.181  1.00  0.00    -0.327 N 
HETATM    3  O   UNL     1      41.727 -15.053   0.429  1.00  0.00    -0.273 OA
HETATM    4  H   UNL     1      39.029 -16.436   1.416  1.00  0.00     0.169 HD
ENDROOT
BRANCH   1   5
HETATM    5  C   UNL     1      41.309 -17.336   1.059  1.00  0.00     0.144 C 
BRANCH   5   6
HETATM    6  C   UNL     1      42.004 -17.581   2.361  1.00  0.00    -0.021 A 
HETATM    7  C   UNL     1      42.933 -18.627   2.682  1.00  0.00    -0.001 A 
HETATM    8  C   UNL     1      43.245 -18.513   4.040  1.00  0.00     0.049 A 
HETATM    9  C   UNL     1      43.528 -19.673   1.949  1.00  0.00     0.014 A 
HETATM   10  C   UNL     1      44.102 -19.402   4.719  1.00  0.00    -0.031 A 
HETATM   11  N   UNL     1      42.565 -17.413   4.512  1.00  0.00    -0.364 N 
HETATM   12  C   UNL     1      44.682 -20.422   3.944  1.00  0.00     0.009 A 
HETATM   13  C   UNL     1      44.404 -20.556   2.586  1.00  0.00     0.002 A 
HETATM   14  C   UNL     1      41.813 -16.852   3.519  1.00  0.00     0.097 A 
HETATM   15  H   UNL     1      42.614 -17.077   5.463  1.00  0.00     0.165 HD
BRANCH  10  16
HETATM   16  C   UNL     1      44.421 -19.299   6.190  1.00  0.00     0.036 C 
HETATM   17  C   UNL     1      45.304 -18.102   6.501  1.00  0.00     0.010 C 
ENDBRANCH  10  16
ENDBRANCH   5   6
ENDBRANCH   1   5
BRANCH   2  18
HETATM   18  C   UNL     1      38.927 -14.389   1.201  1.00  0.00     0.035 A 
HETATM   19  C   UNL     1      39.109 -13.586   2.338  1.00  0.00     0.042 A 
HETATM   20  C   UNL     1      38.503 -12.324   2.444  1.00  0.00    -0.021 A 
HETATM   21  C   UNL     1      37.711 -11.866   1.386  1.00  0.00     0.012 A 
HETATM   22  C   UNL     1      37.526 -12.658   0.252  1.00  0.00     0.003 A 
HETATM   23  C   UNL     1      38.128 -13.915   0.161  1.00  0.00     0.029 A 
BRANCH  20  24
HETATM   24  C   UNL     1      38.693 -11.525   3.643  1.00  0.00     0.010 A 
HETATM   25  C   UNL     1      38.193 -10.248   3.992  1.00  0.00     0.152 A 
HETATM   26  N   UNL     1      38.581  -9.854   5.208  1.00  0.00    -0.187 NA
HETATM   27  N   UNL     1      39.336 -10.876   5.642  1.00  0.00    -0.289 N 
HETATM   28  H   UNL     1      39.753 -10.808   6.564  1.00  0.00     0.188 HD
HETATM   29  C   UNL     1      39.432 -11.901   4.745  1.00  0.00     0.123 A 
ENDBRANCH  20  24
ENDBRANCH   2  18
TORSDOF 5
ENDMDL
MODEL 8
REMARK VINA RESULT:      -8.5      4.471      8.091
REMARK  5 active torsions:
REMARK  status: ('A' for Active; 'I' for Inactive)
REMARK    1  A    between atoms: C_2  and  C_3 
REMARK    2  A    between atoms: C_6  and  C_7 
REMARK    3  A    between atoms: C_7  and  C_8 
REMARK       I    between atoms: C_8  and  N_9 
REMARK    4  A    between atoms: N_9  and  C_10 
REMARK    5  A    between atoms: C_12  and  C_13 
ROOT
HETATM    1  C   UNL     1      42.790 -14.202   3.275  1.00  0.00     0.226 C 
HETATM    2  N   UNL     1      42.357 -15.275   4.044  1.00  0.00    -0.327 N 
HETATM    3  O   UNL     1      43.944 -13.794   3.188  1.00  0.00    -0.273 OA
HETATM    4  H   UNL     1      41.357 -15.429   4.080  1.00  0.00     0.169 HD
ENDROOT
BRANCH   1   5
HETATM    5  C   UNL     1      41.658 -13.564   2.479  1.00  0.00     0.144 C 
BRANCH   5   6
HETATM    6  C   UNL     1      41.337 -14.283   1.207  1.00  0.00    -0.021 A 
HETATM    7  C   UNL     1      41.633 -13.874  -0.137  1.00  0.00    -0.001 A 
HETATM    8  C   UNL     1      41.059 -14.813  -1.000  1.00  0.00     0.049 A 
HETATM    9  C   UNL     1      42.320 -12.783  -0.704  1.00  0.00     0.014 A 
HETATM   10  C   UNL     1      41.111 -14.712  -2.405  1.00  0.00    -0.031 A 
HETATM   11  N   UNL     1      40.477 -15.777  -0.207  1.00  0.00    -0.364 N 
HETATM   12  C   UNL     1      41.819 -13.614  -2.924  1.00  0.00     0.009 A 
HETATM   13  C   UNL     1      42.414 -12.668  -2.094  1.00  0.00     0.002 A 
HETATM   14  C   UNL     1      40.630 -15.466   1.114  1.00  0.00     0.097 A 
HETATM   15  H   UNL     1      39.999 -16.592  -0.561  1.00  0.00     0.165 HD
BRANCH  10  16
HETATM   16  C   UNL     1      40.471 -15.708  -3.340  1.00  0.00     0.036 C 
HETATM   17  C   UNL     1      39.033 -15.339  -3.669  1.00  0.00     0.010 C 
ENDBRANCH  10  16
ENDBRANCH   5   6
ENDBRANCH   1   5
BRANCH   2  18
HETATM   18  C   UNL     1      43.139 -16.153   4.820  1.00  0.00     0.035 A 
HETATM   19  C   UNL     1      43.378 -17.431   4.289  1.00  0.00     0.042 A 
HETATM   20  C   UNL     1      44.164 -18.370   4.976  1.00  0.00    -0.021 A 
HETATM   21  C   UNL     1      44.719 -18.012   6.209  1.00  0.00     0.012 A 
HETATM   22  C   UNL     1      44.486 -16.744   6.743  1.00  0.00     0.003 A 
HETATM   23  C   UNL     1      43.698 -15.820   6.054  1.00  0.00     0.029 A 
BRANCH  20  24
HETATM   24  C   UNL     1      44.375 -19.692   4.410  1.00  0.00     0.010 A 
HETATM   25  C   UNL     1      44.339 -20.140   3.068  1.00  0.00     0.152 A 
HETATM   26  N   UNL     1      44.608 -21.443   2.950  1.00  0.00    -0.187 NA
HETATM   27  N   UNL     1      44.815 -21.837   4.216  1.00  0.00    -0.289 N 
HETATM   28  H   UNL     1      45.042 -22.811   4.386  1.00  0.00     0.188 HD
HETATM   29  C   UNL     1      44.690 -20.827   5.127  1.00  0.00     0.123 A 
ENDBRANCH  20  24
ENDBRANCH   2  18
TORSDOF 5
ENDMDL
MODEL 9
REMARK VINA RESULT:      -8.5      5.911      9.746
REMARK  5 active torsions:
REMARK  status: ('A' for Active; 'I' for Inactive)
REMARK    1  A    between atoms: C_2  and  C_3 
REMARK    2  A    between atoms: C_6  and  C_7 
REMARK    3  A    between atoms: C_7  and  C_8 
REMARK       I    between atoms: C_8  and  N_9 
REMARK    4  A    between atoms: N_9  and  C_10 
REMARK    5  A    between atoms: C_12  and  C_13 
ROOT
HETATM    1  C   UNL     1      41.934 -16.365   0.747  1.00  0.00     0.226 C 
HETATM    2  N   UNL     1      42.237 -15.223   0.017  1.00  0.00    -0.327 N 
HETATM    3  O   UNL     1      40.823 -16.689   1.155  1.00  0.00    -0.273 OA
HETATM    4  H   UNL     1      43.218 -15.053  -0.167  1.00  0.00     0.169 HD
ENDROOT
BRANCH   1   5
HETATM    5  C   UNL     1      43.155 -17.247   0.980  1.00  0.00     0.144 C 
BRANCH   5   6
HETATM    6  C   UNL     1      43.395 -17.576   2.418  1.00  0.00    -0.021 A 
HETATM    7  C   UNL     1      43.875 -18.810   2.974  1.00  0.00    -0.001 A 
HETATM    8  C   UNL     1      43.849 -18.684   4.366  1.00  0.00     0.049 A 
HETATM    9  C   UNL     1      44.313 -20.031   2.424  1.00  0.00     0.014 A 
HETATM   10  C   UNL     1      44.216 -19.722   5.248  1.00  0.00    -0.031 A 
HETATM   11  N   UNL     1      43.414 -17.408   4.642  1.00  0.00    -0.364 N 
HETATM   12  C   UNL     1      44.658 -20.917   4.653  1.00  0.00     0.009 A 
HETATM   13  C   UNL     1      44.709 -21.070   3.271  1.00  0.00     0.002 A 
HETATM   14  C   UNL     1      43.131 -16.738   3.485  1.00  0.00     0.097 A 
HETATM   15  H   UNL     1      43.312 -17.029   5.572  1.00  0.00     0.165 HD
BRANCH  10  16
HETATM   16  C   UNL     1      44.164 -19.601   6.751  1.00  0.00     0.036 C 
HETATM   17  C   UNL     1      43.693 -20.886   7.411  1.00  0.00     0.010 C 
ENDBRANCH  10  16
ENDBRANCH   5   6
ENDBRANCH   1   5
BRANCH   2  18
HETATM   18  C   UNL     1      41.346 -14.244  -0.465  1.00  0.00     0.035 A 
HETATM   19  C   UNL     1      40.453 -14.637  -1.475  1.00  0.00     0.042 A 
HETATM   20  C   UNL     1      39.512 -13.741  -2.005  1.00  0.00    -0.021 A 
HETATM   21  C   UNL     1      39.468 -12.435  -1.505  1.00  0.00     0.012 A 
HETATM   22  C   UNL     1      40.352 -12.036  -0.501  1.00  0.00     0.003 A 
HETATM   23  C   UNL     1      41.289 -12.936   0.014  1.00  0.00     0.029 A 
BRANCH  20  24
HETATM   24  C   UNL     1      38.615 -14.172  -3.065  1.00  0.00     0.010 A 
HETATM   25  C   UNL     1      38.583 -15.369  -3.818  1.00  0.00     0.152 A 
HETATM   26  N   UNL     1      37.581 -15.399  -4.701  1.00  0.00    -0.187 NA
HETATM   27  N   UNL     1      36.968 -14.218  -4.519  1.00  0.00    -0.289 N 
HETATM   28  H   UNL     1      36.157 -14.005  -5.090  1.00  0.00     0.188 HD
HETATM   29  C   UNL     1      37.547 -13.449  -3.551  1.00  0.00     0.123 A 
ENDBRANCH  20  24
ENDBRANCH   2  18
TORSDOF 5
ENDMDL
MODEL 10
REMARK VINA RESULT:      -8.4      5.704      8.921
REMARK  5 active torsions:
REMARK  status: ('A' for Active; 'I' for Inactive)
REMARK    1  A    between atoms: C_2  and  C_3 
REMARK    2  A    between atoms: C_6  and  C_7 
REMARK    3  A    between atoms: C_7  and  C_8 
REMARK       I    between atoms: C_8  and  N_9 
REMARK    4  A    between atoms: N_9  and  C_10 
REMARK    5  A    between atoms: C_12  and  C_13 
ROOT
HETATM    1  C   UNL     1      42.110 -16.773   0.576  1.00  0.00     0.226 C 
HETATM    2  N   UNL     1      42.099 -15.767  -0.383  1.00  0.00    -0.327 N 
HETATM    3  O   UNL     1      41.137 -17.411   0.967  1.00  0.00    -0.273 OA
HETATM    4  H   UNL     1      42.970 -15.275  -0.529  1.00  0.00     0.169 HD
ENDROOT
BRANCH   1   5
HETATM    5  C   UNL     1      43.511 -17.057   1.103  1.00  0.00     0.144 C 
BRANCH   5   6
HETATM    6  C   UNL     1      43.547 -17.424   2.552  1.00  0.00    -0.021 A 
HETATM    7  C   UNL     1      43.962 -18.667   3.139  1.00  0.00    -0.001 A 
HETATM    8  C   UNL     1      43.734 -18.581   4.515  1.00  0.00     0.049 A 
HETATM    9  C   UNL     1      44.496 -19.866   2.626  1.00  0.00     0.014 A 
HETATM   10  C   UNL     1      43.987 -19.639   5.413  1.00  0.00    -0.031 A 
HETATM   11  N   UNL     1      43.242 -17.319   4.758  1.00  0.00    -0.364 N 
HETATM   12  C   UNL     1      44.531 -20.810   4.857  1.00  0.00     0.009 A 
HETATM   13  C   UNL     1      44.783 -20.924   3.493  1.00  0.00     0.002 A 
HETATM   14  C   UNL     1      43.118 -16.620   3.591  1.00  0.00     0.097 A 
HETATM   15  H   UNL     1      43.000 -16.968   5.674  1.00  0.00     0.165 HD
BRANCH  10  16
HETATM   16  C   UNL     1      43.717 -19.561   6.895  1.00  0.00     0.036 C 
HETATM   17  C   UNL     1      43.559 -20.939   7.519  1.00  0.00     0.010 C 
ENDBRANCH  10  16
ENDBRANCH   5   6
ENDBRANCH   1   5
BRANCH   2  18
HETATM   18  C   UNL     1      41.006 -15.318  -1.150  1.00  0.00     0.035 A 
HETATM   19  C   UNL     1      40.129 -14.408  -0.539  1.00  0.00     0.042 A 
HETATM   20  C   UNL     1      39.023 -13.886  -1.228  1.00  0.00    -0.021 A 
HETATM   21  C   UNL     1      38.805 -14.283  -2.551  1.00  0.00     0.012 A 
HETATM   22  C   UNL     1      39.672 -15.187  -3.167  1.00  0.00     0.003 A 
HETATM   23  C   UNL     1      40.765 -15.705  -2.468  1.00  0.00     0.029 A 
BRANCH  20  24
HETATM   24  C   UNL     1      38.121 -12.962  -0.560  1.00  0.00     0.010 A 
HETATM   25  C   UNL     1      37.682 -12.908   0.784  1.00  0.00     0.152 A 
HETATM   26  N   UNL     1      36.858 -11.884   1.019  1.00  0.00    -0.187 NA
HETATM   27  N   UNL     1      36.760 -11.279  -0.176  1.00  0.00    -0.289 N 
HETATM   28  H   UNL     1      36.174 -10.455  -0.252  1.00  0.00     0.188 HD
HETATM   29  C   UNL     1      37.499 -11.884  -1.153  1.00  0.00     0.123 A 
ENDBRANCH  20  24
ENDBRANCH   2  18
TORSDOF 5
ENDMDL
