MODEL 1
REMARK VINA RESULT:      -8.6      0.000      0.000
REMARK  2 active torsions:
REMARK  status: ('A' for Active; 'I' for Inactive)
REMARK    1  A    between atoms: O_2  and  C_3 
REMARK    2  A    between atoms: C_9  and  N_10 
REMARK       I    between atoms: N_10  and  C_11 
REMARK       I    between atoms: C_11  and  N_12 
ROOT
HETATM    1  N   UNL     1      41.774 -13.576   0.917  1.00  0.00    -0.306 N 
HETATM    2  C   UNL     1      42.382 -14.004   2.070  1.00  0.00     0.323 C 
HETATM    3  N   UNL     1      42.218 -15.355   2.353  1.00  0.00    -0.328 N 
HETATM    4  C   UNL     1      42.967 -15.879   3.504  1.00  0.00     0.185 C 
HETATM    5  C   UNL     1      43.245 -17.323   3.266  1.00  0.00     0.035 A 
HETATM    6  C   UNL     1      42.701 -18.124   2.281  1.00  0.00    -0.020 A 
HETATM    7  C   UNL     1      41.732 -17.574   1.293  1.00  0.00     0.061 C 
HETATM    8  C   UNL     1      41.157 -16.242   1.817  1.00  0.00     0.132 C 
HETATM    9  N   UNL     1      44.105 -18.085   4.005  1.00  0.00    -0.357 N 
HETATM   10  H   UNL     1      44.654 -17.763   4.790  1.00  0.00     0.166 HD
HETATM   11  C   UNL     1      44.138 -19.371   3.505  1.00  0.00     0.043 A 
HETATM   12  C   UNL     1      43.264 -19.420   2.416  1.00  0.00    -0.001 A 
HETATM   13  C   UNL     1      44.878 -20.481   3.929  1.00  0.00     0.030 A 
HETATM   14  C   UNL     1      44.723 -21.674   3.218  1.00  0.00     0.002 A 
HETATM   15  C   UNL     1      43.860 -21.752   2.126  1.00  0.00     0.001 A 
HETATM   16  C   UNL     1      43.125 -20.633   1.715  1.00  0.00     0.014 A 
HETATM   17  O   UNL     1      43.043 -13.281   2.814  1.00  0.00    -0.247 OA
HETATM   18  H   UNL     1      41.457 -14.285   0.273  1.00  0.00     0.171 HD
ENDROOT
BRANCH   1  19
HETATM   19  C   UNL     1      41.762 -12.276   0.358  1.00  0.00     0.071 A 
HETATM   20  C   UNL     1      42.119 -12.156  -0.999  1.00  0.00     0.116 A 
HETATM   21  C   UNL     1      42.226 -10.895  -1.599  1.00  0.00     0.069 A 
HETATM   22 CL   UNL     1      42.741 -10.711  -3.237  1.00  0.00    -0.081 Cl
HETATM   23  C   UNL     1      41.917  -9.749  -0.869  1.00  0.00     0.027 A 
HETATM   24  C   UNL     1      41.511  -9.863   0.460  1.00  0.00     0.004 A 
HETATM   25  C   UNL     1      41.434 -11.120   1.071  1.00  0.00     0.032 A 
BRANCH  20  26
HETATM   26  O   UNL     1      42.414 -13.302  -1.707  1.00  0.00    -0.352 OA
HETATM   27  C   UNL     1      41.268 -13.719  -2.457  1.00  0.00     0.210 C 
ENDBRANCH  20  26
ENDBRANCH   1  19
TORSDOF 2
ENDMDL
MODEL 2
REMARK VINA RESULT:      -8.4      2.221      3.083
REMARK  2 active torsions:
REMARK  status: ('A' for Active; 'I' for Inactive)
REMARK    1  A    between atoms: O_2  and  C_3 
REMARK    2  A    between atoms: C_9  and  N_10 
REMARK       I    between atoms: N_10  and  C_11 
REMARK       I    between atoms: C_11  and  N_12 
ROOT
HETATM    1  N   UNL     1      40.931 -15.003   1.655  1.00  0.00    -0.306 N 
HETATM    2  C   UNL     1      41.555 -16.010   0.963  1.00  0.00     0.323 C 
HETATM    3  N   UNL     1      42.518 -16.707   1.684  1.00  0.00    -0.328 N 
HETATM    4  C   UNL     1      43.109 -17.879   1.023  1.00  0.00     0.185 C 
HETATM    5  C   UNL     1      43.531 -18.849   2.073  1.00  0.00     0.035 A 
HETATM    6  C   UNL     1      43.603 -18.622   3.433  1.00  0.00    -0.020 A 
HETATM    7  C   UNL     1      43.229 -17.303   4.013  1.00  0.00     0.061 C 
HETATM    8  C   UNL     1      43.218 -16.233   2.902  1.00  0.00     0.132 C 
HETATM    9  N   UNL     1      43.912 -20.139   1.836  1.00  0.00    -0.357 N 
HETATM   10  H   UNL     1      43.949 -20.588   0.931  1.00  0.00     0.166 HD
HETATM   11  C   UNL     1      44.221 -20.762   3.029  1.00  0.00     0.043 A 
HETATM   12  C   UNL     1      44.031 -19.827   4.051  1.00  0.00    -0.001 A 
HETATM   13  C   UNL     1      44.642 -22.073   3.275  1.00  0.00     0.030 A 
HETATM   14  C   UNL     1      44.872 -22.442   4.604  1.00  0.00     0.002 A 
HETATM   15  C   UNL     1      44.689 -21.532   5.643  1.00  0.00     0.001 A 
HETATM   16  C   UNL     1      44.269 -20.222   5.381  1.00  0.00     0.014 A 
HETATM   17  O   UNL     1      41.298 -16.312  -0.201  1.00  0.00    -0.247 OA
HETATM   18  H   UNL     1      41.051 -14.989   2.656  1.00  0.00     0.171 HD
ENDROOT
BRANCH   1  19
HETATM   19  C   UNL     1      39.914 -14.125   1.208  1.00  0.00     0.071 A 
HETATM   20  C   UNL     1      40.323 -12.890   0.670  1.00  0.00     0.116 A 
HETATM   21  C   UNL     1      39.376 -11.928   0.296  1.00  0.00     0.069 A 
HETATM   22 CL   UNL     1      39.845 -10.372  -0.290  1.00  0.00    -0.081 Cl
HETATM   23  C   UNL     1      38.016 -12.214   0.398  1.00  0.00     0.027 A 
HETATM   24  C   UNL     1      37.604 -13.456   0.880  1.00  0.00     0.004 A 
HETATM   25  C   UNL     1      38.548 -14.407   1.283  1.00  0.00     0.032 A 
BRANCH  20  26
HETATM   26  O   UNL     1      41.673 -12.628   0.570  1.00  0.00    -0.352 OA
HETATM   27  C   UNL     1      42.097 -12.769  -0.790  1.00  0.00     0.210 C 
ENDBRANCH  20  26
ENDBRANCH   1  19
TORSDOF 2
ENDMDL
MODEL 3
REMARK VINA RESULT:      -8.3      2.078      2.502
REMARK  2 active torsions:
REMARK  status: ('A' for Active; 'I' for Inactive)
REMARK    1  A    between atoms: O_2  and  C_3 
REMARK    2  A    between atoms: C_9  and  N_10 
REMARK       I    between atoms: N_10  and  C_11 
REMARK       I    between atoms: C_11  and  N_12 
ROOT
HETATM    1  N   UNL     1      41.602 -14.490  -0.836  1.00  0.00    -0.306 N 
HETATM    2  C   UNL     1      41.796 -14.330   0.512  1.00  0.00     0.323 C 
HETATM    3  N   UNL     1      41.835 -15.512   1.244  1.00  0.00    -0.328 N 
HETATM    4  C   UNL     1      42.177 -15.390   2.668  1.00  0.00     0.185 C 
HETATM    5  C   UNL     1      42.834 -16.654   3.104  1.00  0.00     0.035 A 
HETATM    6  C   UNL     1      42.901 -17.841   2.402  1.00  0.00    -0.020 A 
HETATM    7  C   UNL     1      42.294 -17.969   1.049  1.00  0.00     0.061 C 
HETATM    8  C   UNL     1      41.286 -16.823   0.824  1.00  0.00     0.132 C 
HETATM    9  N   UNL     1      43.486 -16.825   4.292  1.00  0.00    -0.357 N 
HETATM   10  H   UNL     1      43.605 -16.121   5.008  1.00  0.00     0.166 HD
HETATM   11  C   UNL     1      43.990 -18.108   4.368  1.00  0.00     0.043 A 
HETATM   12  C   UNL     1      43.638 -18.767   3.187  1.00  0.00    -0.001 A 
HETATM   13  C   UNL     1      44.732 -18.723   5.383  1.00  0.00     0.030 A 
HETATM   14  C   UNL     1      45.129 -20.048   5.183  1.00  0.00     0.002 A 
HETATM   15  C   UNL     1      44.794 -20.730   4.016  1.00  0.00     0.001 A 
HETATM   16  C   UNL     1      44.049 -20.102   3.010  1.00  0.00     0.014 A 
HETATM   17  O   UNL     1      41.943 -13.242   1.066  1.00  0.00    -0.247 OA
HETATM   18  H   UNL     1      41.722 -15.419  -1.212  1.00  0.00     0.171 HD
ENDROOT
BRANCH   1  19
HETATM   19  C   UNL     1      41.522 -13.495  -1.839  1.00  0.00     0.071 A 
HETATM   20  C   UNL     1      40.236 -13.121  -2.273  1.00  0.00     0.116 A 
HETATM   21  C   UNL     1      40.075 -12.216  -3.329  1.00  0.00     0.069 A 
HETATM   22 CL   UNL     1      38.513 -11.800  -3.939  1.00  0.00    -0.081 Cl
HETATM   23  C   UNL     1      41.193 -11.629  -3.919  1.00  0.00     0.027 A 
HETATM   24  C   UNL     1      42.469 -11.954  -3.459  1.00  0.00     0.004 A 
HETATM   25  C   UNL     1      42.633 -12.882  -2.425  1.00  0.00     0.032 A 
BRANCH  20  26
HETATM   26  O   UNL     1      39.141 -13.707  -1.672  1.00  0.00    -0.352 OA
HETATM   27  C   UNL     1      38.603 -12.829  -0.679  1.00  0.00     0.210 C 
ENDBRANCH  20  26
ENDBRANCH   1  19
TORSDOF 2
ENDMDL
MODEL 4
REMARK VINA RESULT:      -8.2      2.262      3.287
REMARK  2 active torsions:
REMARK  status: ('A' for Active; 'I' for Inactive)
REMARK    1  A    between atoms: O_2  and  C_3 
REMARK    2  A    between atoms: C_9  and  N_10 
REMARK       I    between atoms: N_10  and  C_11 
REMARK       I    between atoms: C_11  and  N_12 
ROOT
HETATM    1  N   UNL     1      39.923 -14.884  -0.167  1.00  0.00    -0.306 N 
HETATM    2  C   UNL     1      40.007 -14.482   1.142  1.00  0.00     0.323 C 
HETATM    3  N   UNL     1      40.443 -15.461   2.028  1.00  0.00    -0.328 N 
HETATM    4  C   UNL     1      40.677 -15.031   3.415  1.00  0.00     0.185 C 
HETATM    5  C   UNL     1      41.728 -15.904   4.007  1.00  0.00     0.035 A 
HETATM    6  C   UNL     1      42.236 -17.073   3.475  1.00  0.00    -0.020 A 
HETATM    7  C   UNL     1      41.755 -17.593   2.165  1.00  0.00     0.061 C 
HETATM    8  C   UNL     1      40.411 -16.926   1.805  1.00  0.00     0.132 C 
HETATM    9  N   UNL     1      42.363 -15.667   5.193  1.00  0.00    -0.357 N 
HETATM   10  H   UNL     1      42.202 -14.877   5.803  1.00  0.00     0.166 HD
HETATM   11  C   UNL     1      43.290 -16.661   5.435  1.00  0.00     0.043 A 
HETATM   12  C   UNL     1      43.231 -17.558   4.364  1.00  0.00    -0.001 A 
HETATM   13  C   UNL     1      44.172 -16.825   6.509  1.00  0.00     0.030 A 
HETATM   14  C   UNL     1      45.021 -17.935   6.486  1.00  0.00     0.002 A 
HETATM   15  C   UNL     1      44.987 -18.844   5.431  1.00  0.00     0.001 A 
HETATM   16  C   UNL     1      44.097 -18.668   4.364  1.00  0.00     0.014 A 
HETATM   17  O   UNL     1      39.739 -13.349   1.537  1.00  0.00    -0.247 OA
HETATM   18  H   UNL     1      40.378 -15.750  -0.413  1.00  0.00     0.171 HD
ENDROOT
BRANCH   1  19
HETATM   19  C   UNL     1      39.523 -14.130  -1.296  1.00  0.00     0.071 A 
HETATM   20  C   UNL     1      40.541 -13.530  -2.062  1.00  0.00     0.116 A 
HETATM   21  C   UNL     1      40.223 -12.689  -3.136  1.00  0.00     0.069 A 
HETATM   22 CL   UNL     1      41.446 -11.874  -4.043  1.00  0.00    -0.081 Cl
HETATM   23  C   UNL     1      38.891 -12.489  -3.492  1.00  0.00     0.027 A 
HETATM   24  C   UNL     1      37.879 -13.122  -2.771  1.00  0.00     0.004 A 
HETATM   25  C   UNL     1      38.193 -13.938  -1.679  1.00  0.00     0.032 A 
BRANCH  20  26
HETATM   26  O   UNL     1      41.854 -13.746  -1.699  1.00  0.00    -0.352 OA
HETATM   27  C   UNL     1      42.356 -12.608  -0.991  1.00  0.00     0.210 C 
ENDBRANCH  20  26
ENDBRANCH   1  19
TORSDOF 2
ENDMDL
MODEL 5
REMARK VINA RESULT:      -8.2      1.520      1.679
REMARK  2 active torsions:
REMARK  status: ('A' for Active; 'I' for Inactive)
REMARK    1  A    between atoms: O_2  and  C_3 
REMARK    2  A    between atoms: C_9  and  N_10 
REMARK       I    between atoms: N_10  and  C_11 
REMARK       I    between atoms: C_11  and  N_12 
ROOT
HETATM    1  N   UNL     1      41.574 -13.726   0.190  1.00  0.00    -0.306 N 
HETATM    2  C   UNL     1      42.084 -13.983   1.438  1.00  0.00     0.323 C 
HETATM    3  N   UNL     1      41.986 -15.308   1.850  1.00  0.00    -0.328 N 
HETATM    4  C   UNL     1      42.643 -15.649   3.120  1.00  0.00     0.185 C 
HETATM    5  C   UNL     1      43.047 -17.082   3.071  1.00  0.00     0.035 A 
HETATM    6  C   UNL     1      42.671 -18.021   2.130  1.00  0.00    -0.020 A 
HETATM    7  C   UNL     1      41.777 -17.656   0.997  1.00  0.00     0.061 C 
HETATM    8  C   UNL     1      41.056 -16.329   1.312  1.00  0.00     0.132 C 
HETATM    9  N   UNL     1      43.875 -17.691   3.971  1.00  0.00    -0.357 N 
HETATM   10  H   UNL     1      44.313 -17.247   4.766  1.00  0.00     0.166 HD
HETATM   11  C   UNL     1      44.054 -19.014   3.621  1.00  0.00     0.043 A 
HETATM   12  C   UNL     1      43.307 -19.245   2.462  1.00  0.00    -0.001 A 
HETATM   13  C   UNL     1      44.821 -20.010   4.235  1.00  0.00     0.030 A 
HETATM   14  C   UNL     1      44.828 -21.278   3.647  1.00  0.00     0.002 A 
HETATM   15  C   UNL     1      44.096 -21.538   2.491  1.00  0.00     0.001 A 
HETATM   16  C   UNL     1      43.331 -20.531   1.888  1.00  0.00     0.014 A 
HETATM   17  O   UNL     1      42.607 -13.137   2.159  1.00  0.00    -0.247 OA
HETATM   18  H   UNL     1      41.379 -14.521  -0.400  1.00  0.00     0.171 HD
ENDROOT
BRANCH   1  19
HETATM   19  C   UNL     1      41.529 -12.496  -0.507  1.00  0.00     0.071 A 
HETATM   20  C   UNL     1      40.262 -11.912  -0.699  1.00  0.00     0.116 A 
HETATM   21  C   UNL     1      40.123 -10.746  -1.463  1.00  0.00     0.069 A 
HETATM   22 CL   UNL     1      38.575 -10.052  -1.787  1.00  0.00    -0.081 Cl
HETATM   23  C   UNL     1      41.252 -10.119  -1.987  1.00  0.00     0.027 A 
HETATM   24  C   UNL     1      42.515 -10.662  -1.755  1.00  0.00     0.004 A 
HETATM   25  C   UNL     1      42.654 -11.844  -1.019  1.00  0.00     0.032 A 
BRANCH  20  26
HETATM   26  O   UNL     1      39.157 -12.543  -0.167  1.00  0.00    -0.352 OA
HETATM   27  C   UNL     1      38.566 -13.401  -1.148  1.00  0.00     0.210 C 
ENDBRANCH  20  26
ENDBRANCH   1  19
TORSDOF 2
ENDMDL
MODEL 6
REMARK VINA RESULT:      -8.1      4.907      9.086
REMARK  2 active torsions:
REMARK  status: ('A' for Active; 'I' for Inactive)
REMARK    1  A    between atoms: O_2  and  C_3 
REMARK    2  A    between atoms: C_9  and  N_10 
REMARK       I    between atoms: N_10  and  C_11 
REMARK       I    between atoms: C_11  and  N_12 
ROOT
HETATM    1  N   UNL     1      43.267 -17.854   4.209  1.00  0.00    -0.306 N 
HETATM    2  C   UNL     1      42.145 -17.491   4.910  1.00  0.00     0.323 C 
HETATM    3  N   UNL     1      42.108 -16.159   5.307  1.00  0.00    -0.328 N 
HETATM    4  C   UNL     1      40.864 -15.699   5.940  1.00  0.00     0.185 C 
HETATM    5  C   UNL     1      40.708 -14.242   5.670  1.00  0.00     0.035 A 
HETATM    6  C   UNL     1      41.658 -13.388   5.143  1.00  0.00    -0.020 A 
HETATM    7  C   UNL     1      43.009 -13.884   4.761  1.00  0.00     0.061 C 
HETATM    8  C   UNL     1      43.270 -15.247   5.435  1.00  0.00     0.132 C 
HETATM    9  N   UNL     1      39.572 -13.520   5.904  1.00  0.00    -0.357 N 
HETATM   10  H   UNL     1      38.708 -13.885   6.281  1.00  0.00     0.166 HD
HETATM   11  C   UNL     1      39.765 -12.208   5.525  1.00  0.00     0.043 A 
HETATM   12  C   UNL     1      41.071 -12.099   5.039  1.00  0.00    -0.001 A 
HETATM   13  C   UNL     1      38.884 -11.121   5.570  1.00  0.00     0.030 A 
HETATM   14  C   UNL     1      39.350  -9.890   5.100  1.00  0.00     0.002 A 
HETATM   15  C   UNL     1      40.646  -9.752   4.607  1.00  0.00     0.001 A 
HETATM   16  C   UNL     1      41.516 -10.848   4.571  1.00  0.00     0.014 A 
HETATM   17  O   UNL     1      41.217 -18.253   5.174  1.00  0.00    -0.247 OA
HETATM   18  H   UNL     1      43.849 -17.110   3.855  1.00  0.00     0.171 HD
ENDROOT
BRANCH   1  19
HETATM   19  C   UNL     1      43.596 -19.119   3.668  1.00  0.00     0.071 A 
HETATM   20  C   UNL     1      44.281 -20.018   4.507  1.00  0.00     0.116 A 
HETATM   21  C   UNL     1      44.728 -21.252   4.016  1.00  0.00     0.069 A 
HETATM   22 CL   UNL     1      45.643 -22.341   4.996  1.00  0.00    -0.081 Cl
HETATM   23  C   UNL     1      44.441 -21.623   2.704  1.00  0.00     0.027 A 
HETATM   24  C   UNL     1      43.717 -20.760   1.883  1.00  0.00     0.004 A 
HETATM   25  C   UNL     1      43.296 -19.514   2.361  1.00  0.00     0.032 A 
BRANCH  20  26
HETATM   26  O   UNL     1      44.549 -19.636   5.805  1.00  0.00    -0.352 OA
HETATM   27  C   UNL     1      43.687 -20.337   6.706  1.00  0.00     0.210 C 
ENDBRANCH  20  26
ENDBRANCH   1  19
TORSDOF 2
ENDMDL
MODEL 7
REMARK VINA RESULT:      -8.0      5.516      6.972
REMARK  2 active torsions:
REMARK  status: ('A' for Active; 'I' for Inactive)
REMARK    1  A    between atoms: O_2  and  C_3 
REMARK    2  A    between atoms: C_9  and  N_10 
REMARK       I    between atoms: N_10  and  C_11 
REMARK       I    between atoms: C_11  and  N_12 
ROOT
HETATM    1  N   UNL     1      41.769 -12.062   7.004  1.00  0.00    -0.306 N 
HETATM    2  C   UNL     1      41.992 -12.139   5.653  1.00  0.00     0.323 C 
HETATM    3  N   UNL     1      42.767 -13.219   5.246  1.00  0.00    -0.328 N 
HETATM    4  C   UNL     1      42.912 -13.412   3.797  1.00  0.00     0.185 C 
HETATM    5  C   UNL     1      43.123 -14.863   3.533  1.00  0.00     0.035 A 
HETATM    6  C   UNL     1      43.393 -15.847   4.465  1.00  0.00    -0.020 A 
HETATM    7  C   UNL     1      43.489 -15.525   5.916  1.00  0.00     0.061 C 
HETATM    8  C   UNL     1      43.692 -14.006   6.096  1.00  0.00     0.132 C 
HETATM    9  N   UNL     1      43.075 -15.449   2.300  1.00  0.00    -0.357 N 
HETATM   10  H   UNL     1      42.888 -14.974   1.428  1.00  0.00     0.166 HD
HETATM   11  C   UNL     1      43.298 -16.806   2.417  1.00  0.00     0.043 A 
HETATM   12  C   UNL     1      43.497 -17.082   3.773  1.00  0.00    -0.001 A 
HETATM   13  C   UNL     1      43.328 -17.799   1.433  1.00  0.00     0.030 A 
HETATM   14  C   UNL     1      43.565 -19.114   1.845  1.00  0.00     0.002 A 
HETATM   15  C   UNL     1      43.765 -19.420   3.190  1.00  0.00     0.001 A 
HETATM   16  C   UNL     1      43.734 -18.414   4.163  1.00  0.00     0.014 A 
HETATM   17  O   UNL     1      41.545 -11.340   4.832  1.00  0.00    -0.247 OA
HETATM   18  H   UNL     1      41.985 -12.881   7.554  1.00  0.00     0.171 HD
ENDROOT
BRANCH   1  19
HETATM   19  C   UNL     1      41.024 -11.096   7.721  1.00  0.00     0.071 A 
HETATM   20  C   UNL     1      41.724 -10.310   8.656  1.00  0.00     0.116 A 
HETATM   21  C   UNL     1      41.042  -9.400   9.475  1.00  0.00     0.069 A 
HETATM   22 CL   UNL     1      41.858  -8.481  10.687  1.00  0.00    -0.081 Cl
HETATM   23  C   UNL     1      39.667  -9.224   9.324  1.00  0.00     0.027 A 
HETATM   24  C   UNL     1      38.977  -9.961   8.363  1.00  0.00     0.004 A 
HETATM   25  C   UNL     1      39.651 -10.893   7.566  1.00  0.00     0.032 A 
BRANCH  20  26
HETATM   26  O   UNL     1      43.084 -10.493   8.786  1.00  0.00    -0.352 OA
HETATM   27  C   UNL     1      43.360 -11.293   9.940  1.00  0.00     0.210 C 
ENDBRANCH  20  26
ENDBRANCH   1  19
TORSDOF 2
ENDMDL
MODEL 8
REMARK VINA RESULT:      -7.8      3.540      8.479
REMARK  2 active torsions:
REMARK  status: ('A' for Active; 'I' for Inactive)
REMARK    1  A    between atoms: O_2  and  C_3 
REMARK    2  A    between atoms: C_9  and  N_10 
REMARK       I    between atoms: N_10  and  C_11 
REMARK       I    between atoms: C_11  and  N_12 
ROOT
HETATM    1  N   UNL     1      42.713 -16.746   2.709  1.00  0.00    -0.306 N 
HETATM    2  C   UNL     1      41.366 -16.507   2.604  1.00  0.00     0.323 C 
HETATM    3  N   UNL     1      41.027 -15.369   1.881  1.00  0.00    -0.328 N 
HETATM    4  C   UNL     1      39.595 -15.154   1.631  1.00  0.00     0.185 C 
HETATM    5  C   UNL     1      39.448 -14.389   0.361  1.00  0.00     0.035 A 
HETATM    6  C   UNL     1      40.450 -13.759  -0.350  1.00  0.00    -0.020 A 
HETATM    7  C   UNL     1      41.864 -13.801   0.113  1.00  0.00     0.061 C 
HETATM    8  C   UNL     1      41.910 -14.212   1.599  1.00  0.00     0.132 C 
HETATM    9  N   UNL     1      38.270 -14.199  -0.305  1.00  0.00    -0.357 N 
HETATM   10  H   UNL     1      37.367 -14.555  -0.022  1.00  0.00     0.166 HD
HETATM   11  C   UNL     1      38.494 -13.463  -1.450  1.00  0.00     0.043 A 
HETATM   12  C   UNL     1      39.861 -13.175  -1.503  1.00  0.00    -0.001 A 
HETATM   13  C   UNL     1      37.596 -13.041  -2.437  1.00  0.00     0.030 A 
HETATM   14  C   UNL     1      38.110 -12.309  -3.511  1.00  0.00     0.002 A 
HETATM   15  C   UNL     1      39.468 -12.009  -3.592  1.00  0.00     0.001 A 
HETATM   16  C   UNL     1      40.354 -12.436  -2.595  1.00  0.00     0.014 A 
HETATM   17  O   UNL     1      40.495 -17.229   3.087  1.00  0.00    -0.247 OA
HETATM   18  H   UNL     1      43.321 -16.229   2.093  1.00  0.00     0.171 HD
ENDROOT
BRANCH   1  19
HETATM   19  C   UNL     1      43.369 -17.813   3.367  1.00  0.00     0.071 A 
HETATM   20  C   UNL     1      43.774 -17.596   4.698  1.00  0.00     0.116 A 
HETATM   21  C   UNL     1      44.515 -18.566   5.385  1.00  0.00     0.069 A 
HETATM   22 CL   UNL     1      45.096 -18.296   6.989  1.00  0.00    -0.081 Cl
HETATM   23  C   UNL     1      44.804 -19.783   4.772  1.00  0.00     0.027 A 
HETATM   24  C   UNL     1      44.361 -20.026   3.472  1.00  0.00     0.004 A 
HETATM   25  C   UNL     1      43.648 -19.047   2.773  1.00  0.00     0.032 A 
BRANCH  20  26
HETATM   26  O   UNL     1      43.471 -16.388   5.290  1.00  0.00    -0.352 OA
HETATM   27  C   UNL     1      42.343 -16.540   6.158  1.00  0.00     0.210 C 
ENDBRANCH  20  26
ENDBRANCH   1  19
TORSDOF 2
ENDMDL
MODEL 9
REMARK VINA RESULT:      -7.8      4.625      8.754
REMARK  2 active torsions:
REMARK  status: ('A' for Active; 'I' for Inactive)
REMARK    1  A    between atoms: O_2  and  C_3 
REMARK    2  A    between atoms: C_9  and  N_10 
REMARK       I    between atoms: N_10  and  C_11 
REMARK       I    between atoms: C_11  and  N_12 
ROOT
HETATM    1  N   UNL     1      42.292 -17.304   3.521  1.00  0.00    -0.306 N 
HETATM    2  C   UNL     1      42.688 -16.026   3.216  1.00  0.00     0.323 C 
HETATM    3  N   UNL     1      41.830 -15.025   3.659  1.00  0.00    -0.328 N 
HETATM    4  C   UNL     1      42.288 -13.641   3.473  1.00  0.00     0.185 C 
HETATM    5  C   UNL     1      41.680 -12.797   4.539  1.00  0.00     0.035 A 
HETATM    6  C   UNL     1      40.670 -13.156   5.410  1.00  0.00    -0.020 A 
HETATM    7  C   UNL     1      40.066 -14.516   5.366  1.00  0.00     0.061 C 
HETATM    8  C   UNL     1      40.401 -15.188   4.018  1.00  0.00     0.132 C 
HETATM    9  N   UNL     1      42.047 -11.511   4.822  1.00  0.00    -0.357 N 
HETATM   10  H   UNL     1      42.771 -10.986   4.350  1.00  0.00     0.166 HD
HETATM   11  C   UNL     1      41.297 -11.032   5.876  1.00  0.00     0.043 A 
HETATM   12  C   UNL     1      40.423 -12.051   6.266  1.00  0.00    -0.001 A 
HETATM   13  C   UNL     1      41.333  -9.785   6.511  1.00  0.00     0.030 A 
HETATM   14  C   UNL     1      40.455  -9.575   7.578  1.00  0.00     0.002 A 
HETATM   15  C   UNL     1      39.575 -10.573   7.991  1.00  0.00     0.001 A 
HETATM   16  C   UNL     1      39.548 -11.815   7.344  1.00  0.00     0.014 A 
HETATM   17  O   UNL     1      43.722 -15.747   2.612  1.00  0.00    -0.247 OA
HETATM   18  H   UNL     1      41.559 -17.408   4.207  1.00  0.00     0.171 HD
ENDROOT
BRANCH   1  19
HETATM   19  C   UNL     1      42.943 -18.523   3.218  1.00  0.00     0.071 A 
HETATM   20  C   UNL     1      43.520 -19.227   4.292  1.00  0.00     0.116 A 
HETATM   21  C   UNL     1      44.265 -20.391   4.063  1.00  0.00     0.069 A 
HETATM   22 CL   UNL     1      45.055 -21.231   5.349  1.00  0.00    -0.081 Cl
HETATM   23  C   UNL     1      44.387 -20.895   2.769  1.00  0.00     0.027 A 
HETATM   24  C   UNL     1      43.773 -20.232   1.707  1.00  0.00     0.004 A 
HETATM   25  C   UNL     1      43.055 -19.053   1.930  1.00  0.00     0.032 A 
BRANCH  20  26
HETATM   26  O   UNL     1      43.382 -18.717   5.566  1.00  0.00    -0.352 OA
HETATM   27  C   UNL     1      44.551 -17.973   5.922  1.00  0.00     0.210 C 
ENDBRANCH  20  26
ENDBRANCH   1  19
TORSDOF 2
ENDMDL
MODEL 10
REMARK VINA RESULT:      -7.8      3.407      8.493
REMARK  2 active torsions:
REMARK  status: ('A' for Active; 'I' for Inactive)
REMARK    1  A    between atoms: O_2  and  C_3 
REMARK    2  A    between atoms: C_9  and  N_10 
REMARK       I    between atoms: N_10  and  C_11 
REMARK       I    between atoms: C_11  and  N_12 
ROOT
HETATM    1  N   UNL     1      42.603 -16.261   3.162  1.00  0.00    -0.306 N 
HETATM    2  C   UNL     1      42.145 -16.456   1.883  1.00  0.00     0.323 C 
HETATM    3  N   UNL     1      41.763 -15.299   1.214  1.00  0.00    -0.328 N 
HETATM    4  C   UNL     1      41.397 -15.451  -0.201  1.00  0.00     0.185 C 
HETATM    5  C   UNL     1      41.693 -14.172  -0.904  1.00  0.00     0.035 A 
HETATM    6  C   UNL     1      42.014 -12.959  -0.325  1.00  0.00    -0.020 A 
HETATM    7  C   UNL     1      42.112 -12.817   1.154  1.00  0.00     0.061 C 
HETATM    8  C   UNL     1      41.400 -14.003   1.837  1.00  0.00     0.132 C 
HETATM    9  N   UNL     1      41.695 -14.008  -2.261  1.00  0.00    -0.357 N 
HETATM   10  H   UNL     1      41.502 -14.728  -2.943  1.00  0.00     0.166 HD
HETATM   11  C   UNL     1      42.026 -12.705  -2.574  1.00  0.00     0.043 A 
HETATM   12  C   UNL     1      42.234 -12.025  -1.371  1.00  0.00    -0.001 A 
HETATM   13  C   UNL     1      42.161 -12.088  -3.823  1.00  0.00     0.030 A 
HETATM   14  C   UNL     1      42.525 -10.739  -3.843  1.00  0.00     0.002 A 
HETATM   15  C   UNL     1      42.743 -10.035  -2.660  1.00  0.00     0.001 A 
HETATM   16  C   UNL     1      42.600 -10.666  -1.418  1.00  0.00     0.014 A 
HETATM   17  O   UNL     1      42.077 -17.553   1.333  1.00  0.00    -0.247 OA
HETATM   18  H   UNL     1      42.830 -15.315   3.430  1.00  0.00     0.171 HD
ENDROOT
BRANCH   1  19
HETATM   19  C   UNL     1      43.066 -17.225   4.089  1.00  0.00     0.071 A 
HETATM   20  C   UNL     1      42.843 -16.963   5.454  1.00  0.00     0.116 A 
HETATM   21  C   UNL     1      43.356 -17.818   6.437  1.00  0.00     0.069 A 
HETATM   22 CL   UNL     1      43.170 -17.481   8.121  1.00  0.00    -0.081 Cl
HETATM   23  C   UNL     1      44.042 -18.973   6.065  1.00  0.00     0.027 A 
HETATM   24  C   UNL     1      44.221 -19.266   4.713  1.00  0.00     0.004 A 
HETATM   25  C   UNL     1      43.736 -18.397   3.730  1.00  0.00     0.032 A 
BRANCH  20  26
HETATM   26  O   UNL     1      42.155 -15.819   5.803  1.00  0.00    -0.352 OA
HETATM   27  C   UNL     1      40.785 -16.136   6.066  1.00  0.00     0.210 C 
ENDBRANCH  20  26
ENDBRANCH   1  19
TORSDOF 2
ENDMDL
