MODEL 1
REMARK VINA RESULT:      -9.0      0.000      0.000
REMARK  6 active torsions:
REMARK  status: ('A' for Active; 'I' for Inactive)
REMARK    1  A    between atoms: C_4  and  C_5 
REMARK    2  A    between atoms: C_9  and  C_10 
REMARK       I    between atoms: C_10  and  N_11 
REMARK    3  A    between atoms: N_11  and  C_12 
REMARK    4  A    between atoms: C_12  and  C_13 
REMARK    5  A    between atoms: C_13  and  N_14 
REMARK    6  A    between atoms: C_13  and  C_18 
ROOT
HETATM    1  C   UNL     1      44.432 -14.440   6.947  1.00  0.00     0.092 A 
HETATM    2  N   UNL     1      44.852 -15.701   7.189  1.00  0.00    -0.246 NA
HETATM    3  C   UNL     1      44.242 -16.729   6.578  1.00  0.00     0.069 A 
HETATM    4  C   UNL     1      43.175 -16.561   5.671  1.00  0.00     0.008 A 
HETATM    5  C   UNL     1      42.800 -15.222   5.399  1.00  0.00     0.046 A 
HETATM    6  C   UNL     1      43.416 -14.157   6.057  1.00  0.00     0.052 A 
HETATM    7  C   UNL     1      44.686 -18.010   6.870  1.00  0.00     0.032 A 
HETATM    8  C   UNL     1      44.093 -19.143   6.311  1.00  0.00     0.002 A 
HETATM    9  C   UNL     1      43.016 -18.999   5.451  1.00  0.00     0.001 A 
HETATM   10  C   UNL     1      42.552 -17.721   5.138  1.00  0.00     0.015 A 
ENDROOT
BRANCH   5  11
HETATM   11  C   UNL     1      41.749 -14.842   4.424  1.00  0.00     0.252 C 
HETATM   12  N   UNL     1      42.162 -14.430   3.177  1.00  0.00    -0.355 N 
HETATM   13  H   UNL     1      43.162 -14.456   2.992  1.00  0.00     0.162 HD
HETATM   14  O   UNL     1      40.574 -14.767   4.765  1.00  0.00    -0.268 OA
BRANCH  12  15
HETATM   15  C   UNL     1      41.293 -14.300   2.000  1.00  0.00     0.161 C 
BRANCH  15  16
HETATM   16  C   UNL     1      41.353 -15.392   0.871  1.00  0.00     0.237 C 
BRANCH  16  17
HETATM   17  N   UNL     1      41.727 -14.787  -0.483  1.00  0.00    -0.069 N 
HETATM   18  H   UNL     1      42.722 -15.066  -0.571  1.00  0.00     0.279 HD
HETATM   19  C   UNL     1      40.995 -15.311  -1.671  1.00  0.00     0.270 C 
HETATM   20  C   UNL     1      41.785 -13.288  -0.473  1.00  0.00     0.270 C 
ENDBRANCH  16  17
BRANCH  16  21
HETATM   21  C   UNL     1      42.179 -16.615   1.243  1.00  0.00    -0.026 A 
HETATM   22  C   UNL     1      41.524 -17.839   1.480  1.00  0.00     0.009 A 
HETATM   23  C   UNL     1      42.246 -18.992   1.793  1.00  0.00     0.001 A 
HETATM   24  C   UNL     1      43.633 -18.942   1.882  1.00  0.00     0.000 A 
HETATM   25  C   UNL     1      44.300 -17.741   1.655  1.00  0.00     0.001 A 
HETATM   26  C   UNL     1      43.581 -16.587   1.333  1.00  0.00     0.009 A 
ENDBRANCH  16  21
ENDBRANCH  15  16
ENDBRANCH  12  15
ENDBRANCH   5  11
BRANCH   1  27
HETATM   27  C   UNL     1      45.131 -13.406   7.697  1.00  0.00     0.104 A 
HETATM   28  O   UNL     1      44.597 -13.054   8.907  1.00  0.00    -0.313 OA
HETATM   29  C   UNL     1      45.397 -12.083   9.435  1.00  0.00     0.050 A 
HETATM   30  C   UNL     1      45.007 -11.541  10.752  1.00  0.00     0.076 C 
HETATM   31  C   UNL     1      46.440 -11.811   8.578  1.00  0.00     0.035 A 
HETATM   32  C   UNL     1      46.266 -12.658   7.458  1.00  0.00     0.042 A 
ENDBRANCH   1  27
TORSDOF 6
ENDMDL
MODEL 2
REMARK VINA RESULT:      -8.6      2.339      4.284
REMARK  6 active torsions:
REMARK  status: ('A' for Active; 'I' for Inactive)
REMARK    1  A    between atoms: C_4  and  C_5 
REMARK    2  A    between atoms: C_9  and  C_10 
REMARK       I    between atoms: C_10  and  N_11 
REMARK    3  A    between atoms: N_11  and  C_12 
REMARK    4  A    between atoms: C_12  and  C_13 
REMARK    5  A    between atoms: C_13  and  N_14 
REMARK    6  A    between atoms: C_13  and  C_18 
ROOT
HETATM    1  C   UNL     1      43.825 -18.234   5.046  1.00  0.00     0.092 A 
HETATM    2  N   UNL     1      44.251 -19.510   5.171  1.00  0.00    -0.246 NA
HETATM    3  C   UNL     1      44.289 -20.302   4.089  1.00  0.00     0.069 A 
HETATM    4  C   UNL     1      43.913 -19.866   2.802  1.00  0.00     0.008 A 
HETATM    5  C   UNL     1      43.527 -18.506   2.700  1.00  0.00     0.046 A 
HETATM    6  C   UNL     1      43.460 -17.692   3.831  1.00  0.00     0.052 A 
HETATM    7  C   UNL     1      44.710 -21.613   4.262  1.00  0.00     0.032 A 
HETATM    8  C   UNL     1      44.751 -22.522   3.204  1.00  0.00     0.002 A 
HETATM    9  C   UNL     1      44.345 -22.122   1.940  1.00  0.00     0.001 A 
HETATM   10  C   UNL     1      43.920 -20.808   1.739  1.00  0.00     0.015 A 
ENDROOT
BRANCH   5  11
HETATM   11  C   UNL     1      43.164 -17.846   1.422  1.00  0.00     0.252 C 
HETATM   12  N   UNL     1      41.854 -17.459   1.259  1.00  0.00    -0.355 N 
HETATM   13  H   UNL     1      41.227 -17.613   2.046  1.00  0.00     0.162 HD
HETATM   14  O   UNL     1      43.971 -17.775   0.501  1.00  0.00    -0.268 OA
BRANCH  12  15
HETATM   15  C   UNL     1      41.366 -16.544   0.219  1.00  0.00     0.161 C 
BRANCH  15  16
HETATM   16  C   UNL     1      41.459 -14.992   0.449  1.00  0.00     0.237 C 
BRANCH  16  17
HETATM   17  N   UNL     1      40.372 -14.239  -0.318  1.00  0.00    -0.069 N 
HETATM   18  H   UNL     1      39.513 -14.563   0.162  1.00  0.00     0.279 HD
HETATM   19  C   UNL     1      40.411 -12.751  -0.239  1.00  0.00     0.270 C 
HETATM   20  C   UNL     1      40.189 -14.723  -1.726  1.00  0.00     0.270 C 
ENDBRANCH  16  17
BRANCH  16  21
HETATM   21  C   UNL     1      41.561 -14.594   1.914  1.00  0.00    -0.026 A 
HETATM   22  C   UNL     1      40.432 -14.738   2.744  1.00  0.00     0.009 A 
HETATM   23  C   UNL     1      40.491 -14.413   4.100  1.00  0.00     0.001 A 
HETATM   24  C   UNL     1      41.674 -13.933   4.651  1.00  0.00     0.000 A 
HETATM   25  C   UNL     1      42.801 -13.779   3.847  1.00  0.00     0.001 A 
HETATM   26  C   UNL     1      42.749 -14.112   2.490  1.00  0.00     0.009 A 
ENDBRANCH  16  21
ENDBRANCH  15  16
ENDBRANCH  12  15
ENDBRANCH   5  11
BRANCH   1  27
HETATM   27  C   UNL     1      43.779 -17.477   6.289  1.00  0.00     0.104 A 
HETATM   28  O   UNL     1      44.124 -16.154   6.220  1.00  0.00    -0.313 OA
HETATM   29  C   UNL     1      44.013 -15.640   7.479  1.00  0.00     0.050 A 
HETATM   30  C   UNL     1      44.345 -14.212   7.647  1.00  0.00     0.076 C 
HETATM   31  C   UNL     1      43.596 -16.618   8.355  1.00  0.00     0.035 A 
HETATM   32  C   UNL     1      43.451 -17.800   7.590  1.00  0.00     0.042 A 
ENDBRANCH   1  27
TORSDOF 6
ENDMDL
MODEL 3
REMARK VINA RESULT:      -8.3      2.124      7.377
REMARK  6 active torsions:
REMARK  status: ('A' for Active; 'I' for Inactive)
REMARK    1  A    between atoms: C_4  and  C_5 
REMARK    2  A    between atoms: C_9  and  C_10 
REMARK       I    between atoms: C_10  and  N_11 
REMARK    3  A    between atoms: N_11  and  C_12 
REMARK    4  A    between atoms: C_12  and  C_13 
REMARK    5  A    between atoms: C_13  and  N_14 
REMARK    6  A    between atoms: C_13  and  C_18 
ROOT
HETATM    1  C   UNL     1      43.216 -17.895   2.133  1.00  0.00     0.092 A 
HETATM    2  N   UNL     1      42.547 -17.717   0.973  1.00  0.00    -0.246 NA
HETATM    3  C   UNL     1      42.087 -16.496   0.657  1.00  0.00     0.069 A 
HETATM    4  C   UNL     1      42.277 -15.366   1.478  1.00  0.00     0.008 A 
HETATM    5  C   UNL     1      43.032 -15.580   2.658  1.00  0.00     0.046 A 
HETATM    6  C   UNL     1      43.484 -16.856   2.999  1.00  0.00     0.052 A 
HETATM    7  C   UNL     1      41.384 -16.358  -0.532  1.00  0.00     0.032 A 
HETATM    8  C   UNL     1      40.839 -15.138  -0.930  1.00  0.00     0.002 A 
HETATM    9  C   UNL     1      40.979 -14.025  -0.114  1.00  0.00     0.001 A 
HETATM   10  C   UNL     1      41.683 -14.137   1.085  1.00  0.00     0.015 A 
ENDROOT
BRANCH   5  11
HETATM   11  C   UNL     1      43.395 -14.504   3.612  1.00  0.00     0.252 C 
HETATM   12  N   UNL     1      42.628 -14.379   4.747  1.00  0.00    -0.355 N 
HETATM   13  H   UNL     1      41.886 -15.063   4.879  1.00  0.00     0.162 HD
HETATM   14  O   UNL     1      44.255 -13.677   3.327  1.00  0.00    -0.268 OA
BRANCH  12  15
HETATM   15  C   UNL     1      42.994 -13.591   5.932  1.00  0.00     0.161 C 
BRANCH  15  16
HETATM   16  C   UNL     1      44.189 -14.065   6.836  1.00  0.00     0.237 C 
BRANCH  16  17
HETATM   17  N   UNL     1      44.317 -13.211   8.099  1.00  0.00    -0.069 N 
HETATM   18  H   UNL     1      43.975 -13.863   8.828  1.00  0.00     0.279 HD
HETATM   19  C   UNL     1      45.694 -12.781   8.473  1.00  0.00     0.270 C 
HETATM   20  C   UNL     1      43.337 -12.077   8.156  1.00  0.00     0.270 C 
ENDBRANCH  16  17
BRANCH  16  21
HETATM   21  C   UNL     1      44.198 -15.562   7.106  1.00  0.00    -0.026 A 
HETATM   22  C   UNL     1      45.034 -16.394   6.336  1.00  0.00     0.009 A 
HETATM   23  C   UNL     1      45.095 -17.768   6.572  1.00  0.00     0.001 A 
HETATM   24  C   UNL     1      44.320 -18.338   7.575  1.00  0.00     0.000 A 
HETATM   25  C   UNL     1      43.484 -17.534   8.346  1.00  0.00     0.001 A 
HETATM   26  C   UNL     1      43.426 -16.156   8.119  1.00  0.00     0.009 A 
ENDBRANCH  16  21
ENDBRANCH  15  16
ENDBRANCH  12  15
ENDBRANCH   5  11
BRANCH   1  27
HETATM   27  C   UNL     1      43.629 -19.266   2.399  1.00  0.00     0.104 A 
HETATM   28  O   UNL     1      44.164 -19.521   3.633  1.00  0.00    -0.313 OA
HETATM   29  C   UNL     1      44.479 -20.848   3.672  1.00  0.00     0.050 A 
HETATM   30  C   UNL     1      45.082 -21.353   4.920  1.00  0.00     0.076 C 
HETATM   31  C   UNL     1      44.148 -21.448   2.477  1.00  0.00     0.035 A 
HETATM   32  C   UNL     1      43.607 -20.430   1.657  1.00  0.00     0.042 A 
ENDBRANCH   1  27
TORSDOF 6
ENDMDL
MODEL 4
REMARK VINA RESULT:      -8.1      1.448      2.773
REMARK  6 active torsions:
REMARK  status: ('A' for Active; 'I' for Inactive)
REMARK    1  A    between atoms: C_4  and  C_5 
REMARK    2  A    between atoms: C_9  and  C_10 
REMARK       I    between atoms: C_10  and  N_11 
REMARK    3  A    between atoms: N_11  and  C_12 
REMARK    4  A    between atoms: C_12  and  C_13 
REMARK    5  A    between atoms: C_13  and  N_14 
REMARK    6  A    between atoms: C_13  and  C_18 
ROOT
HETATM    1  C   UNL     1      44.250 -13.946   7.057  1.00  0.00     0.092 A 
HETATM    2  N   UNL     1      44.766 -15.185   7.206  1.00  0.00    -0.246 NA
HETATM    3  C   UNL     1      44.308 -16.187   6.439  1.00  0.00     0.069 A 
HETATM    4  C   UNL     1      43.308 -16.012   5.460  1.00  0.00     0.008 A 
HETATM    5  C   UNL     1      42.833 -14.688   5.293  1.00  0.00     0.046 A 
HETATM    6  C   UNL     1      43.288 -13.653   6.112  1.00  0.00     0.052 A 
HETATM    7  C   UNL     1      44.845 -17.451   6.638  1.00  0.00     0.032 A 
HETATM    8  C   UNL     1      44.411 -18.561   5.914  1.00  0.00     0.002 A 
HETATM    9  C   UNL     1      43.399 -18.415   4.977  1.00  0.00     0.001 A 
HETATM   10  C   UNL     1      42.844 -17.155   4.756  1.00  0.00     0.015 A 
ENDROOT
BRANCH   5  11
HETATM   11  C   UNL     1      41.834 -14.293   4.270  1.00  0.00     0.252 C 
HETATM   12  N   UNL     1      42.311 -13.873   3.050  1.00  0.00    -0.355 N 
HETATM   13  H   UNL     1      43.320 -13.902   2.915  1.00  0.00     0.162 HD
HETATM   14  O   UNL     1      40.643 -14.214   4.553  1.00  0.00    -0.268 OA
BRANCH  12  15
HETATM   15  C   UNL     1      41.504 -13.727   1.831  1.00  0.00     0.161 C 
BRANCH  15  16
HETATM   16  C   UNL     1      41.317 -14.961   0.877  1.00  0.00     0.237 C 
BRANCH  16  17
HETATM   17  N   UNL     1      40.062 -15.763   1.225  1.00  0.00    -0.069 N 
HETATM   18  H   UNL     1      39.759 -16.095   0.291  1.00  0.00     0.279 HD
HETATM   19  C   UNL     1      40.256 -16.956   2.098  1.00  0.00     0.270 C 
HETATM   20  C   UNL     1      38.916 -14.911   1.683  1.00  0.00     0.270 C 
ENDBRANCH  16  17
BRANCH  16  21
HETATM   21  C   UNL     1      41.431 -14.617  -0.602  1.00  0.00    -0.026 A 
HETATM   22  C   UNL     1      41.002 -15.556  -1.560  1.00  0.00     0.009 A 
HETATM   23  C   UNL     1      41.060 -15.269  -2.924  1.00  0.00     0.001 A 
HETATM   24  C   UNL     1      41.554 -14.043  -3.357  1.00  0.00     0.000 A 
HETATM   25  C   UNL     1      41.987 -13.102  -2.427  1.00  0.00     0.001 A 
HETATM   26  C   UNL     1      41.922 -13.382  -1.059  1.00  0.00     0.009 A 
ENDBRANCH  16  21
ENDBRANCH  15  16
ENDBRANCH  12  15
ENDBRANCH   5  11
BRANCH   1  27
HETATM   27  C   UNL     1      44.783 -12.945   7.970  1.00  0.00     0.104 A 
HETATM   28  O   UNL     1      43.874 -12.231   8.704  1.00  0.00    -0.313 OA
HETATM   29  C   UNL     1      44.578 -11.360   9.484  1.00  0.00     0.050 A 
HETATM   30  C   UNL     1      43.794 -10.473  10.365  1.00  0.00     0.076 C 
HETATM   31  C   UNL     1      45.928 -11.511   9.262  1.00  0.00     0.035 A 
HETATM   32  C   UNL     1      46.060 -12.526   8.285  1.00  0.00     0.042 A 
ENDBRANCH   1  27
TORSDOF 6
ENDMDL
MODEL 5
REMARK VINA RESULT:      -8.1      2.295      4.686
REMARK  6 active torsions:
REMARK  status: ('A' for Active; 'I' for Inactive)
REMARK    1  A    between atoms: C_4  and  C_5 
REMARK    2  A    between atoms: C_9  and  C_10 
REMARK       I    between atoms: C_10  and  N_11 
REMARK    3  A    between atoms: N_11  and  C_12 
REMARK    4  A    between atoms: C_12  and  C_13 
REMARK    5  A    between atoms: C_13  and  N_14 
REMARK    6  A    between atoms: C_13  and  C_18 
ROOT
HETATM    1  C   UNL     1      43.513 -17.614   4.701  1.00  0.00     0.092 A 
HETATM    2  N   UNL     1      44.165 -18.796   4.741  1.00  0.00    -0.246 NA
HETATM    3  C   UNL     1      44.050 -19.648   3.710  1.00  0.00     0.069 A 
HETATM    4  C   UNL     1      43.281 -19.368   2.563  1.00  0.00     0.008 A 
HETATM    5  C   UNL     1      42.658 -18.096   2.532  1.00  0.00     0.046 A 
HETATM    6  C   UNL     1      42.756 -17.223   3.617  1.00  0.00     0.052 A 
HETATM    7  C   UNL     1      44.715 -20.863   3.799  1.00  0.00     0.032 A 
HETATM    8  C   UNL     1      44.629 -21.827   2.794  1.00  0.00     0.002 A 
HETATM    9  C   UNL     1      43.843 -21.586   1.678  1.00  0.00     0.001 A 
HETATM   10  C   UNL     1      43.166 -20.372   1.564  1.00  0.00     0.015 A 
ENDROOT
BRANCH   5  11
HETATM   11  C   UNL     1      41.867 -17.592   1.383  1.00  0.00     0.252 C 
HETATM   12  N   UNL     1      42.435 -16.610   0.605  1.00  0.00    -0.355 N 
HETATM   13  H   UNL     1      43.382 -16.323   0.845  1.00  0.00     0.162 HD
HETATM   14  O   UNL     1      40.702 -17.942   1.221  1.00  0.00    -0.268 OA
BRANCH  12  15
HETATM   15  C   UNL     1      41.955 -16.198  -0.721  1.00  0.00     0.161 C 
BRANCH  15  16
HETATM   16  C   UNL     1      41.176 -14.841  -0.873  1.00  0.00     0.237 C 
BRANCH  16  17
HETATM   17  N   UNL     1      42.129 -13.655  -1.025  1.00  0.00    -0.069 N 
HETATM   18  H   UNL     1      43.016 -14.049  -0.660  1.00  0.00     0.279 HD
HETATM   19  C   UNL     1      42.376 -13.174  -2.414  1.00  0.00     0.270 C 
HETATM   20  C   UNL     1      41.834 -12.526  -0.083  1.00  0.00     0.270 C 
ENDBRANCH  16  17
BRANCH  16  21
HETATM   21  C   UNL     1      40.076 -14.880  -1.924  1.00  0.00    -0.026 A 
HETATM   22  C   UNL     1      40.209 -15.748  -3.025  1.00  0.00     0.009 A 
HETATM   23  C   UNL     1      39.209 -15.836  -3.995  1.00  0.00     0.001 A 
HETATM   24  C   UNL     1      38.063 -15.056  -3.888  1.00  0.00     0.000 A 
HETATM   25  C   UNL     1      37.914 -14.189  -2.809  1.00  0.00     0.001 A 
HETATM   26  C   UNL     1      38.908 -14.104  -1.830  1.00  0.00     0.009 A 
ENDBRANCH  16  21
ENDBRANCH  15  16
ENDBRANCH  12  15
ENDBRANCH   5  11
BRANCH   1  27
HETATM   27  C   UNL     1      43.669 -16.787   5.889  1.00  0.00     0.104 A 
HETATM   28  O   UNL     1      44.384 -15.628   5.746  1.00  0.00    -0.313 OA
HETATM   29  C   UNL     1      44.407 -15.013   6.963  1.00  0.00     0.050 A 
HETATM   30  C   UNL     1      45.137 -13.732   7.049  1.00  0.00     0.076 C 
HETATM   31  C   UNL     1      43.711 -15.762   7.886  1.00  0.00     0.035 A 
HETATM   32  C   UNL     1      43.241 -16.905   7.196  1.00  0.00     0.042 A 
ENDBRANCH   1  27
TORSDOF 6
ENDMDL
MODEL 6
REMARK VINA RESULT:      -8.0      2.545      6.287
REMARK  6 active torsions:
REMARK  status: ('A' for Active; 'I' for Inactive)
REMARK    1  A    between atoms: C_4  and  C_5 
REMARK    2  A    between atoms: C_9  and  C_10 
REMARK       I    between atoms: C_10  and  N_11 
REMARK    3  A    between atoms: N_11  and  C_12 
REMARK    4  A    between atoms: C_12  and  C_13 
REMARK    5  A    between atoms: C_13  and  N_14 
REMARK    6  A    between atoms: C_13  and  C_18 
ROOT
HETATM    1  C   UNL     1      43.458 -18.056   3.604  1.00  0.00     0.092 A 
HETATM    2  N   UNL     1      43.968 -17.791   4.826  1.00  0.00    -0.246 NA
HETATM    3  C   UNL     1      43.826 -16.563   5.348  1.00  0.00     0.069 A 
HETATM    4  C   UNL     1      43.150 -15.518   4.684  1.00  0.00     0.008 A 
HETATM    5  C   UNL     1      42.578 -15.850   3.431  1.00  0.00     0.046 A 
HETATM    6  C   UNL     1      42.753 -17.119   2.877  1.00  0.00     0.052 A 
HETATM    7  C   UNL     1      44.385 -16.322   6.594  1.00  0.00     0.032 A 
HETATM    8  C   UNL     1      44.319 -15.069   7.205  1.00  0.00     0.002 A 
HETATM    9  C   UNL     1      43.695 -14.019   6.548  1.00  0.00     0.001 A 
HETATM   10  C   UNL     1      43.122 -14.236   5.295  1.00  0.00     0.015 A 
ENDROOT
BRANCH   5  11
HETATM   11  C   UNL     1      41.773 -14.909   2.616  1.00  0.00     0.252 C 
HETATM   12  N   UNL     1      42.449 -13.924   1.934  1.00  0.00    -0.355 N 
HETATM   13  H   UNL     1      43.464 -13.933   2.000  1.00  0.00     0.162 HD
HETATM   14  O   UNL     1      40.547 -14.928   2.664  1.00  0.00    -0.268 OA
BRANCH  12  15
HETATM   15  C   UNL     1      41.881 -13.097   0.861  1.00  0.00     0.161 C 
BRANCH  15  16
HETATM   16  C   UNL     1      42.047 -13.551  -0.634  1.00  0.00     0.237 C 
BRANCH  16  17
HETATM   17  N   UNL     1      40.909 -14.473  -1.076  1.00  0.00    -0.069 N 
HETATM   18  H   UNL     1      40.870 -14.285  -2.095  1.00  0.00     0.279 HD
HETATM   19  C   UNL     1      41.126 -15.935  -0.886  1.00  0.00     0.270 C 
HETATM   20  C   UNL     1      39.561 -14.035  -0.588  1.00  0.00     0.270 C 
ENDBRANCH  16  17
BRANCH  16  21
HETATM   21  C   UNL     1      42.314 -12.404  -1.599  1.00  0.00    -0.026 A 
HETATM   22  C   UNL     1      42.058 -12.589  -2.971  1.00  0.00     0.009 A 
HETATM   23  C   UNL     1      42.260 -11.554  -3.886  1.00  0.00     0.001 A 
HETATM   24  C   UNL     1      42.727 -10.319  -3.448  1.00  0.00     0.000 A 
HETATM   25  C   UNL     1      42.990 -10.117  -2.096  1.00  0.00     0.001 A 
HETATM   26  C   UNL     1      42.781 -11.148  -1.175  1.00  0.00     0.009 A 
ENDBRANCH  16  21
ENDBRANCH  15  16
ENDBRANCH  12  15
ENDBRANCH   5  11
BRANCH   1  27
HETATM   27  C   UNL     1      43.709 -19.404   3.113  1.00  0.00     0.104 A 
HETATM   28  O   UNL     1      44.170 -20.317   4.023  1.00  0.00    -0.313 OA
HETATM   29  C   UNL     1      44.337 -21.499   3.362  1.00  0.00     0.050 A 
HETATM   30  C   UNL     1      44.838 -22.639   4.153  1.00  0.00     0.076 C 
HETATM   31  C   UNL     1      43.982 -21.356   2.039  1.00  0.00     0.035 A 
HETATM   32  C   UNL     1      43.584 -20.007   1.878  1.00  0.00     0.042 A 
ENDBRANCH   1  27
TORSDOF 6
ENDMDL
MODEL 7
REMARK VINA RESULT:      -7.9      3.965      6.603
REMARK  6 active torsions:
REMARK  status: ('A' for Active; 'I' for Inactive)
REMARK    1  A    between atoms: C_4  and  C_5 
REMARK    2  A    between atoms: C_9  and  C_10 
REMARK       I    between atoms: C_10  and  N_11 
REMARK    3  A    between atoms: N_11  and  C_12 
REMARK    4  A    between atoms: C_12  and  C_13 
REMARK    5  A    between atoms: C_13  and  N_14 
REMARK    6  A    between atoms: C_13  and  C_18 
ROOT
HETATM    1  C   UNL     1      42.461 -17.167   2.577  1.00  0.00     0.092 A 
HETATM    2  N   UNL     1      41.831 -16.771   3.705  1.00  0.00    -0.246 NA
HETATM    3  C   UNL     1      41.172 -15.602   3.717  1.00  0.00     0.069 A 
HETATM    4  C   UNL     1      41.088 -14.754   2.593  1.00  0.00     0.008 A 
HETATM    5  C   UNL     1      41.711 -15.230   1.413  1.00  0.00     0.046 A 
HETATM    6  C   UNL     1      42.422 -16.431   1.411  1.00  0.00     0.052 A 
HETATM    7  C   UNL     1      40.558 -15.219   4.901  1.00  0.00     0.032 A 
HETATM    8  C   UNL     1      39.877 -14.007   5.021  1.00  0.00     0.002 A 
HETATM    9  C   UNL     1      39.821 -13.142   3.940  1.00  0.00     0.001 A 
HETATM   10  C   UNL     1      40.427 -13.505   2.737  1.00  0.00     0.015 A 
ENDROOT
BRANCH   5  11
HETATM   11  C   UNL     1      41.672 -14.514   0.114  1.00  0.00     0.252 C 
HETATM   12  N   UNL     1      41.223 -15.216  -0.981  1.00  0.00    -0.355 N 
HETATM   13  H   UNL     1      40.905 -16.169  -0.819  1.00  0.00     0.162 HD
HETATM   14  O   UNL     1      42.151 -13.391   0.002  1.00  0.00    -0.268 OA
BRANCH  12  15
HETATM   15  C   UNL     1      40.834 -14.618  -2.265  1.00  0.00     0.161 C 
BRANCH  15  16
HETATM   16  C   UNL     1      39.351 -14.143  -2.478  1.00  0.00     0.237 C 
BRANCH  16  17
HETATM   17  N   UNL     1      38.478 -15.254  -3.064  1.00  0.00    -0.069 N 
HETATM   18  H   UNL     1      38.216 -15.786  -2.215  1.00  0.00     0.279 HD
HETATM   19  C   UNL     1      37.224 -14.824  -3.745  1.00  0.00     0.270 C 
HETATM   20  C   UNL     1      39.247 -16.252  -3.879  1.00  0.00     0.270 C 
ENDBRANCH  16  17
BRANCH  16  21
HETATM   21  C   UNL     1      38.742 -13.467  -1.259  1.00  0.00    -0.026 A 
HETATM   22  C   UNL     1      38.962 -12.090  -1.056  1.00  0.00     0.009 A 
HETATM   23  C   UNL     1      38.396 -11.424   0.032  1.00  0.00     0.001 A 
HETATM   24  C   UNL     1      37.607 -12.121   0.941  1.00  0.00     0.000 A 
HETATM   25  C   UNL     1      37.380 -13.483   0.761  1.00  0.00     0.001 A 
HETATM   26  C   UNL     1      37.938 -14.151  -0.332  1.00  0.00     0.009 A 
ENDBRANCH  16  21
ENDBRANCH  15  16
ENDBRANCH  12  15
ENDBRANCH   5  11
BRANCH   1  27
HETATM   27  C   UNL     1      43.185 -18.425   2.687  1.00  0.00     0.104 A 
HETATM   28  O   UNL     1      43.622 -18.779   3.935  1.00  0.00    -0.313 OA
HETATM   29  C   UNL     1      44.266 -19.976   3.815  1.00  0.00     0.050 A 
HETATM   30  C   UNL     1      44.833 -20.555   5.048  1.00  0.00     0.076 C 
HETATM   31  C   UNL     1      44.242 -20.397   2.504  1.00  0.00     0.035 A 
HETATM   32  C   UNL     1      43.552 -19.397   1.778  1.00  0.00     0.042 A 
ENDBRANCH   1  27
TORSDOF 6
ENDMDL
MODEL 8
REMARK VINA RESULT:      -7.8      2.212      4.394
REMARK  6 active torsions:
REMARK  status: ('A' for Active; 'I' for Inactive)
REMARK    1  A    between atoms: C_4  and  C_5 
REMARK    2  A    between atoms: C_9  and  C_10 
REMARK       I    between atoms: C_10  and  N_11 
REMARK    3  A    between atoms: N_11  and  C_12 
REMARK    4  A    between atoms: C_12  and  C_13 
REMARK    5  A    between atoms: C_13  and  N_14 
REMARK    6  A    between atoms: C_13  and  C_18 
ROOT
HETATM    1  C   UNL     1      43.413 -17.361   4.907  1.00  0.00     0.092 A 
HETATM    2  N   UNL     1      44.112 -18.515   4.833  1.00  0.00    -0.246 NA
HETATM    3  C   UNL     1      43.941 -19.323   3.775  1.00  0.00     0.069 A 
HETATM    4  C   UNL     1      43.065 -19.024   2.712  1.00  0.00     0.008 A 
HETATM    5  C   UNL     1      42.393 -17.780   2.797  1.00  0.00     0.046 A 
HETATM    6  C   UNL     1      42.549 -16.955   3.911  1.00  0.00     0.052 A 
HETATM    7  C   UNL     1      44.659 -20.510   3.747  1.00  0.00     0.032 A 
HETATM    8  C   UNL     1      44.525 -21.430   2.707  1.00  0.00     0.002 A 
HETATM    9  C   UNL     1      43.636 -21.172   1.674  1.00  0.00     0.001 A 
HETATM   10  C   UNL     1      42.904 -19.984   1.678  1.00  0.00     0.015 A 
ENDROOT
BRANCH   5  11
HETATM   11  C   UNL     1      41.485 -17.259   1.745  1.00  0.00     0.252 C 
HETATM   12  N   UNL     1      42.051 -16.526   0.727  1.00  0.00    -0.355 N 
HETATM   13  H   UNL     1      43.064 -16.427   0.740  1.00  0.00     0.162 HD
HETATM   14  O   UNL     1      40.269 -17.363   1.859  1.00  0.00    -0.268 OA
BRANCH  12  15
HETATM   15  C   UNL     1      41.388 -16.184  -0.538  1.00  0.00     0.161 C 
BRANCH  15  16
HETATM   16  C   UNL     1      41.112 -14.676  -0.882  1.00  0.00     0.237 C 
BRANCH  16  17
HETATM   17  N   UNL     1      40.784 -14.484  -2.364  1.00  0.00    -0.069 N 
HETATM   18  H   UNL     1      39.851 -14.036  -2.316  1.00  0.00     0.279 HD
HETATM   19  C   UNL     1      41.689 -13.584  -3.134  1.00  0.00     0.270 C 
HETATM   20  C   UNL     1      40.518 -15.769  -3.089  1.00  0.00     0.270 C 
ENDBRANCH  16  17
BRANCH  16  21
HETATM   21  C   UNL     1      40.120 -14.003   0.056  1.00  0.00    -0.026 A 
HETATM   22  C   UNL     1      40.602 -13.319   1.189  1.00  0.00     0.009 A 
HETATM   23  C   UNL     1      39.730 -12.663   2.058  1.00  0.00     0.001 A 
HETATM   24  C   UNL     1      38.360 -12.682   1.815  1.00  0.00     0.000 A 
HETATM   25  C   UNL     1      37.863 -13.355   0.703  1.00  0.00     0.001 A 
HETATM   26  C   UNL     1      38.734 -14.006  -0.175  1.00  0.00     0.009 A 
ENDBRANCH  16  21
ENDBRANCH  15  16
ENDBRANCH  12  15
ENDBRANCH   5  11
BRANCH   1  27
HETATM   27  C   UNL     1      43.638 -16.583   6.117  1.00  0.00     0.104 A 
HETATM   28  O   UNL     1      44.308 -15.398   5.974  1.00  0.00    -0.313 OA
HETATM   29  C   UNL     1      44.409 -14.837   7.213  1.00  0.00     0.050 A 
HETATM   30  C   UNL     1      45.108 -13.540   7.303  1.00  0.00     0.076 C 
HETATM   31  C   UNL     1      43.807 -15.647   8.150  1.00  0.00     0.035 A 
HETATM   32  C   UNL     1      43.316 -16.772   7.446  1.00  0.00     0.042 A 
ENDBRANCH   1  27
TORSDOF 6
ENDMDL
MODEL 9
REMARK VINA RESULT:      -7.8      3.028      6.303
REMARK  6 active torsions:
REMARK  status: ('A' for Active; 'I' for Inactive)
REMARK    1  A    between atoms: C_4  and  C_5 
REMARK    2  A    between atoms: C_9  and  C_10 
REMARK       I    between atoms: C_10  and  N_11 
REMARK    3  A    between atoms: N_11  and  C_12 
REMARK    4  A    between atoms: C_12  and  C_13 
REMARK    5  A    between atoms: C_13  and  N_14 
REMARK    6  A    between atoms: C_13  and  C_18 
ROOT
HETATM    1  C   UNL     1      43.292 -18.488   3.179  1.00  0.00     0.092 A 
HETATM    2  N   UNL     1      43.676 -17.790   4.270  1.00  0.00    -0.246 NA
HETATM    3  C   UNL     1      43.299 -16.509   4.399  1.00  0.00     0.069 A 
HETATM    4  C   UNL     1      42.501 -15.841   3.448  1.00  0.00     0.008 A 
HETATM    5  C   UNL     1      42.070 -16.622   2.347  1.00  0.00     0.046 A 
HETATM    6  C   UNL     1      42.487 -17.945   2.199  1.00  0.00     0.052 A 
HETATM    7  C   UNL     1      43.733 -15.818   5.522  1.00  0.00     0.032 A 
HETATM    8  C   UNL     1      43.422 -14.474   5.729  1.00  0.00     0.002 A 
HETATM    9  C   UNL     1      42.673 -13.790   4.783  1.00  0.00     0.001 A 
HETATM   10  C   UNL     1      42.222 -14.462   3.647  1.00  0.00     0.015 A 
ENDROOT
BRANCH   5  11
HETATM   11  C   UNL     1      41.170 -16.118   1.280  1.00  0.00     0.252 C 
HETATM   12  N   UNL     1      41.757 -15.591   0.154  1.00  0.00    -0.355 N 
HETATM   13  H   UNL     1      42.774 -15.620   0.107  1.00  0.00     0.162 HD
HETATM   14  O   UNL     1      39.959 -16.051   1.461  1.00  0.00    -0.268 OA
BRANCH  12  15
HETATM   15  C   UNL     1      41.064 -15.320  -1.113  1.00  0.00     0.161 C 
BRANCH  15  16
HETATM   16  C   UNL     1      40.579 -13.859  -1.431  1.00  0.00     0.237 C 
BRANCH  16  17
HETATM   17  N   UNL     1      39.992 -13.750  -2.839  1.00  0.00    -0.069 N 
HETATM   18  H   UNL     1      38.990 -13.578  -2.636  1.00  0.00     0.279 HD
HETATM   19  C   UNL     1      40.492 -12.629  -3.683  1.00  0.00     0.270 C 
HETATM   20  C   UNL     1      39.978 -15.053  -3.583  1.00  0.00     0.270 C 
ENDBRANCH  16  17
BRANCH  16  21
HETATM   21  C   UNL     1      39.691 -13.258  -0.350  1.00  0.00    -0.026 A 
HETATM   22  C   UNL     1      38.315 -13.557  -0.349  1.00  0.00     0.009 A 
HETATM   23  C   UNL     1      37.470 -13.052   0.641  1.00  0.00     0.001 A 
HETATM   24  C   UNL     1      37.983 -12.234   1.643  1.00  0.00     0.000 A 
HETATM   25  C   UNL     1      39.340 -11.923   1.657  1.00  0.00     0.001 A 
HETATM   26  C   UNL     1      40.190 -12.434   0.673  1.00  0.00     0.009 A 
ENDBRANCH  16  21
ENDBRANCH  15  16
ENDBRANCH  12  15
ENDBRANCH   5  11
BRANCH   1  27
HETATM   27  C   UNL     1      43.794 -19.853   3.115  1.00  0.00     0.104 A 
HETATM   28  O   UNL     1      44.284 -20.386   4.277  1.00  0.00    -0.313 OA
HETATM   29  C   UNL     1      44.695 -21.656   3.999  1.00  0.00     0.050 A 
HETATM   30  C   UNL     1      45.272 -22.430   5.116  1.00  0.00     0.076 C 
HETATM   31  C   UNL     1      44.471 -21.947   2.672  1.00  0.00     0.035 A 
HETATM   32  C   UNL     1      43.896 -20.786   2.102  1.00  0.00     0.042 A 
ENDBRANCH   1  27
TORSDOF 6
ENDMDL
MODEL 10
REMARK VINA RESULT:      -7.8      3.015      6.351
REMARK  6 active torsions:
REMARK  status: ('A' for Active; 'I' for Inactive)
REMARK    1  A    between atoms: C_4  and  C_5 
REMARK    2  A    between atoms: C_9  and  C_10 
REMARK       I    between atoms: C_10  and  N_11 
REMARK    3  A    between atoms: N_11  and  C_12 
REMARK    4  A    between atoms: C_12  and  C_13 
REMARK    5  A    between atoms: C_13  and  N_14 
REMARK    6  A    between atoms: C_13  and  C_18 
ROOT
HETATM    1  C   UNL     1      43.583 -18.275   3.935  1.00  0.00     0.092 A 
HETATM    2  N   UNL     1      44.098 -17.803   5.092  1.00  0.00    -0.246 NA
HETATM    3  C   UNL     1      43.838 -16.540   5.463  1.00  0.00     0.069 A 
HETATM    4  C   UNL     1      43.034 -15.665   4.705  1.00  0.00     0.008 A 
HETATM    5  C   UNL     1      42.465 -16.212   3.528  1.00  0.00     0.046 A 
HETATM    6  C   UNL     1      42.760 -17.516   3.129  1.00  0.00     0.052 A 
HETATM    7  C   UNL     1      44.404 -16.085   6.646  1.00  0.00     0.032 A 
HETATM    8  C   UNL     1      44.220 -14.778   7.098  1.00  0.00     0.002 A 
HETATM    9  C   UNL     1      43.467 -13.891   6.344  1.00  0.00     0.001 A 
HETATM   10  C   UNL     1      42.884 -14.325   5.153  1.00  0.00     0.015 A 
ENDROOT
BRANCH   5  11
HETATM   11  C   UNL     1      41.538 -15.471   2.639  1.00  0.00     0.252 C 
HETATM   12  N   UNL     1      40.235 -15.332   3.058  1.00  0.00    -0.355 N 
HETATM   13  H   UNL     1      40.003 -15.710   3.974  1.00  0.00     0.162 HD
HETATM   14  O   UNL     1      41.890 -15.122   1.517  1.00  0.00    -0.268 OA
BRANCH  12  15
HETATM   15  C   UNL     1      39.257 -14.400   2.481  1.00  0.00     0.161 C 
BRANCH  15  16
HETATM   16  C   UNL     1      39.549 -12.856   2.513  1.00  0.00     0.237 C 
BRANCH  16  17
HETATM   17  N   UNL     1      38.433 -12.054   1.841  1.00  0.00    -0.069 N 
HETATM   18  H   UNL     1      37.842 -11.796   2.652  1.00  0.00     0.279 HD
HETATM   19  C   UNL     1      38.841 -10.799   1.148  1.00  0.00     0.270 C 
HETATM   20  C   UNL     1      37.520 -12.892   0.996  1.00  0.00     0.270 C 
ENDBRANCH  16  17
BRANCH  16  21
HETATM   21  C   UNL     1      39.934 -12.332   3.889  1.00  0.00    -0.026 A 
HETATM   22  C   UNL     1      39.264 -12.829   5.024  1.00  0.00     0.009 A 
HETATM   23  C   UNL     1      39.607 -12.398   6.307  1.00  0.00     0.001 A 
HETATM   24  C   UNL     1      40.618 -11.460   6.479  1.00  0.00     0.000 A 
HETATM   25  C   UNL     1      41.290 -10.953   5.370  1.00  0.00     0.001 A 
HETATM   26  C   UNL     1      40.956 -11.388   4.084  1.00  0.00     0.009 A 
ENDBRANCH  16  21
ENDBRANCH  15  16
ENDBRANCH  12  15
ENDBRANCH   5  11
BRANCH   1  27
HETATM   27  C   UNL     1      43.965 -19.640   3.605  1.00  0.00     0.104 A 
HETATM   28  O   UNL     1      44.430 -20.418   4.631  1.00  0.00    -0.313 OA
HETATM   29  C   UNL     1      44.726 -21.643   4.110  1.00  0.00     0.050 A 
HETATM   30  C   UNL     1      45.255 -22.655   5.045  1.00  0.00     0.076 C 
HETATM   31  C   UNL     1      44.452 -21.662   2.760  1.00  0.00     0.035 A 
HETATM   32  C   UNL     1      43.969 -20.373   2.435  1.00  0.00     0.042 A 
ENDBRANCH   1  27
TORSDOF 6
ENDMDL
