MODEL 1
REMARK VINA RESULT:      -6.9      0.000      0.000
REMARK  5 active torsions:
REMARK  status: ('A' for Active; 'I' for Inactive)
REMARK    1  A    between atoms: C_2  and  O_3 
REMARK    2  A    between atoms: C_4  and  C_5 
REMARK    3  A    between atoms: C_5  and  O_6 
REMARK    4  A    between atoms: C_9  and  C_10 
REMARK    5  A    between atoms: C_22  and  O_23 
ROOT
HETATM    1  C   UNL     1      43.636 -17.498   8.153  1.00  0.00     0.047 C 
HETATM    2  C   UNL     1      43.502 -18.286   6.842  1.00  0.00     0.073 C 
HETATM    3  C   UNL     1      42.397 -17.719   5.881  1.00  0.00     0.133 C 
HETATM    4  C   UNL     1      42.360 -18.337   4.440  1.00  0.00     0.074 C 
HETATM    5  C   UNL     1      43.590 -19.117   4.108  1.00  0.00     0.030 A 
HETATM    6  C   UNL     1      44.728 -19.127   4.881  1.00  0.00     0.042 A 
HETATM    7  N   UNL     1      45.619 -19.965   4.276  1.00  0.00    -0.279 N 
HETATM    8  H   UNL     1      46.561 -20.211   4.564  1.00  0.00     0.189 HD
HETATM    9  N   UNL     1      45.104 -20.563   3.179  1.00  0.00    -0.149 NA
HETATM   10  C   UNL     1      43.888 -20.038   3.102  1.00  0.00     0.190 A 
HETATM   11  C   UNL     1      44.902 -18.419   6.173  1.00  0.00     0.097 C 
ENDROOT
BRANCH   4  12
HETATM   12  C   UNL     1      42.176 -17.363   3.278  1.00  0.00    -0.048 A 
HETATM   13  C   UNL     1      43.267 -16.788   2.594  1.00  0.00     0.009 A 
HETATM   14  C   UNL     1      43.068 -15.881   1.552  1.00  0.00     0.024 A 
HETATM   15  C   UNL     1      41.775 -15.536   1.176  1.00  0.00     0.034 A 
HETATM   16 CL   UNL     1      41.528 -14.416  -0.105  1.00  0.00    -0.084 Cl
HETATM   17  C   UNL     1      40.680 -16.089   1.835  1.00  0.00     0.024 A 
HETATM   18  C   UNL     1      40.879 -16.996   2.882  1.00  0.00     0.009 A 
ENDBRANCH   4  12
BRANCH   3  19
HETATM   19  C   UNL     1      42.404 -16.204   5.857  1.00  0.00     0.266 C 
HETATM   20  O   UNL     1      43.367 -15.509   5.566  1.00  0.00    -0.265 OA
BRANCH  19  21
HETATM   21  O   UNL     1      41.170 -15.733   6.200  1.00  0.00    -0.326 OA
HETATM   22  C   UNL     1      40.842 -14.463   5.636  1.00  0.00     0.213 C 
ENDBRANCH  19  21
ENDBRANCH   3  19
BRANCH   2  23
HETATM   23  O   UNL     1      43.070 -19.601   7.273  1.00  0.00    -0.389 OA
HETATM   24  H   UNL     1      43.402 -19.756   8.176  1.00  0.00     0.210 HD
ENDBRANCH   2  23
BRANCH  10  25
HETATM   25  O   UNL     1      43.129 -20.493   2.111  1.00  0.00    -0.343 OA
HETATM   26  H   UNL     1      42.501 -19.772   1.933  1.00  0.00     0.219 HD
ENDBRANCH  10  25
TORSDOF 5
ENDMDL
MODEL 2
REMARK VINA RESULT:      -6.8      2.722      4.629
REMARK  5 active torsions:
REMARK  status: ('A' for Active; 'I' for Inactive)
REMARK    1  A    between atoms: C_2  and  O_3 
REMARK    2  A    between atoms: C_4  and  C_5 
REMARK    3  A    between atoms: C_5  and  O_6 
REMARK    4  A    between atoms: C_9  and  C_10 
REMARK    5  A    between atoms: C_22  and  O_23 
ROOT
HETATM    1  C   UNL     1      43.219 -19.304   2.946  1.00  0.00     0.047 C 
HETATM    2  C   UNL     1      43.525 -18.352   4.111  1.00  0.00     0.073 C 
HETATM    3  C   UNL     1      43.307 -16.838   3.756  1.00  0.00     0.133 C 
HETATM    4  C   UNL     1      43.387 -15.834   4.958  1.00  0.00     0.074 C 
HETATM    5  C   UNL     1      43.323 -16.511   6.289  1.00  0.00     0.030 A 
HETATM    6  C   UNL     1      43.013 -17.841   6.463  1.00  0.00     0.042 A 
HETATM    7  N   UNL     1      43.078 -18.098   7.802  1.00  0.00    -0.279 N 
HETATM    8  H   UNL     1      42.908 -18.970   8.293  1.00  0.00     0.189 HD
HETATM    9  N   UNL     1      43.481 -17.024   8.515  1.00  0.00    -0.149 NA
HETATM   10  C   UNL     1      43.622 -16.088   7.585  1.00  0.00     0.190 A 
HETATM   11  C   UNL     1      42.747 -18.815   5.377  1.00  0.00     0.097 C 
ENDROOT
BRANCH   4  12
HETATM   12  C   UNL     1      42.324 -14.739   5.014  1.00  0.00    -0.048 A 
HETATM   13  C   UNL     1      41.079 -14.926   5.649  1.00  0.00     0.009 A 
HETATM   14  C   UNL     1      40.117 -13.914   5.661  1.00  0.00     0.024 A 
HETATM   15  C   UNL     1      40.385 -12.700   5.039  1.00  0.00     0.034 A 
HETATM   16 CL   UNL     1      39.199 -11.455   5.050  1.00  0.00    -0.084 Cl
HETATM   17  C   UNL     1      41.606 -12.490   4.404  1.00  0.00     0.024 A 
HETATM   18  C   UNL     1      42.570 -13.505   4.389  1.00  0.00     0.009 A 
ENDBRANCH   4  12
BRANCH   3  19
HETATM   19  C   UNL     1      42.058 -16.637   2.922  1.00  0.00     0.266 C 
HETATM   20  O   UNL     1      40.936 -17.015   3.231  1.00  0.00    -0.265 OA
BRANCH  19  21
HETATM   21  O   UNL     1      42.372 -15.963   1.778  1.00  0.00    -0.326 OA
HETATM   22  C   UNL     1      41.893 -16.572   0.579  1.00  0.00     0.213 C 
ENDBRANCH  19  21
ENDBRANCH   3  19
BRANCH   2  23
HETATM   23  O   UNL     1      44.943 -18.542   4.346  1.00  0.00    -0.389 OA
HETATM   24  H   UNL     1      45.090 -18.634   5.305  1.00  0.00     0.210 HD
ENDBRANCH   2  23
BRANCH  10  25
HETATM   25  O   UNL     1      44.059 -14.911   8.017  1.00  0.00    -0.343 OA
HETATM   26  H   UNL     1      43.813 -14.285   7.315  1.00  0.00     0.219 HD
ENDBRANCH  10  25
TORSDOF 5
ENDMDL
MODEL 3
REMARK VINA RESULT:      -6.8      2.736      4.272
REMARK  5 active torsions:
REMARK  status: ('A' for Active; 'I' for Inactive)
REMARK    1  A    between atoms: C_2  and  O_3 
REMARK    2  A    between atoms: C_4  and  C_5 
REMARK    3  A    between atoms: C_5  and  O_6 
REMARK    4  A    between atoms: C_9  and  C_10 
REMARK    5  A    between atoms: C_22  and  O_23 
ROOT
HETATM    1  C   UNL     1      44.742 -19.960   3.785  1.00  0.00     0.047 C 
HETATM    2  C   UNL     1      43.594 -19.171   3.138  1.00  0.00     0.073 C 
HETATM    3  C   UNL     1      42.638 -18.488   4.179  1.00  0.00     0.133 C 
HETATM    4  C   UNL     1      41.582 -17.491   3.588  1.00  0.00     0.074 C 
HETATM    5  C   UNL     1      41.877 -17.098   2.177  1.00  0.00     0.030 A 
HETATM    6  C   UNL     1      43.051 -17.395   1.524  1.00  0.00     0.042 A 
HETATM    7  N   UNL     1      42.943 -16.900   0.256  1.00  0.00    -0.279 N 
HETATM    8  H   UNL     1      43.618 -16.933  -0.501  1.00  0.00     0.189 HD
HETATM    9  N   UNL     1      41.733 -16.349   0.018  1.00  0.00    -0.149 NA
HETATM   10  C   UNL     1      41.114 -16.482   1.184  1.00  0.00     0.190 A 
HETATM   11  C   UNL     1      44.175 -18.185   2.083  1.00  0.00     0.097 C 
ENDROOT
BRANCH   4  12
HETATM   12  C   UNL     1      41.383 -16.175   4.338  1.00  0.00    -0.048 A 
HETATM   13  C   UNL     1      40.495 -16.053   5.427  1.00  0.00     0.009 A 
HETATM   14  C   UNL     1      40.314 -14.830   6.076  1.00  0.00     0.024 A 
HETATM   15  C   UNL     1      41.019 -13.711   5.648  1.00  0.00     0.034 A 
HETATM   16 CL   UNL     1      40.795 -12.204   6.444  1.00  0.00    -0.084 Cl
HETATM   17  C   UNL     1      41.901 -13.804   4.574  1.00  0.00     0.024 A 
HETATM   18  C   UNL     1      42.080 -15.029   3.921  1.00  0.00     0.009 A 
ENDBRANCH   4  12
BRANCH   3  19
HETATM   19  C   UNL     1      43.413 -17.887   5.335  1.00  0.00     0.266 C 
HETATM   20  O   UNL     1      44.306 -17.059   5.228  1.00  0.00    -0.265 OA
BRANCH  19  21
HETATM   21  O   UNL     1      42.957 -18.403   6.513  1.00  0.00    -0.326 OA
HETATM   22  C   UNL     1      43.045 -17.513   7.625  1.00  0.00     0.213 C 
ENDBRANCH  19  21
ENDBRANCH   3  19
BRANCH   2  23
HETATM   23  O   UNL     1      42.826 -20.188   2.446  1.00  0.00    -0.389 OA
HETATM   24  H   UNL     1      43.424 -20.679   1.853  1.00  0.00     0.210 HD
ENDBRANCH   2  23
BRANCH  10  25
HETATM   25  O   UNL     1      39.859 -16.048   1.219  1.00  0.00    -0.343 OA
HETATM   26  H   UNL     1      39.360 -16.700   0.698  1.00  0.00     0.219 HD
ENDBRANCH  10  25
TORSDOF 5
ENDMDL
MODEL 4
REMARK VINA RESULT:      -6.7      3.825      6.375
REMARK  5 active torsions:
REMARK  status: ('A' for Active; 'I' for Inactive)
REMARK    1  A    between atoms: C_2  and  O_3 
REMARK    2  A    between atoms: C_4  and  C_5 
REMARK    3  A    between atoms: C_5  and  O_6 
REMARK    4  A    between atoms: C_9  and  C_10 
REMARK    5  A    between atoms: C_22  and  O_23 
ROOT
HETATM    1  C   UNL     1      41.330 -15.497  -0.556  1.00  0.00     0.047 C 
HETATM    2  C   UNL     1      40.787 -15.321   0.870  1.00  0.00     0.073 C 
HETATM    3  C   UNL     1      41.118 -16.527   1.819  1.00  0.00     0.133 C 
HETATM    4  C   UNL     1      40.787 -16.314   3.337  1.00  0.00     0.074 C 
HETATM    5  C   UNL     1      40.527 -14.884   3.683  1.00  0.00     0.030 A 
HETATM    6  C   UNL     1      40.758 -13.830   2.827  1.00  0.00     0.042 A 
HETATM    7  N   UNL     1      40.380 -12.692   3.480  1.00  0.00    -0.279 N 
HETATM    8  H   UNL     1      40.412 -11.730   3.155  1.00  0.00     0.189 HD
HETATM    9  N   UNL     1      39.850 -12.945   4.696  1.00  0.00    -0.149 NA
HETATM   10  C   UNL     1      39.950 -14.265   4.792  1.00  0.00     0.190 A 
HETATM   11  C   UNL     1      41.243 -13.941   1.430  1.00  0.00     0.097 C 
ENDROOT
BRANCH   4  12
HETATM   12  C   UNL     1      41.835 -16.785   4.343  1.00  0.00    -0.048 A 
HETATM   13  C   UNL     1      42.857 -15.940   4.823  1.00  0.00     0.009 A 
HETATM   14  C   UNL     1      43.816 -16.407   5.723  1.00  0.00     0.024 A 
HETATM   15  C   UNL     1      43.769 -17.727   6.158  1.00  0.00     0.034 A 
HETATM   16 CL   UNL     1      44.952 -18.305   7.263  1.00  0.00    -0.084 Cl
HETATM   17  C   UNL     1      42.771 -18.583   5.699  1.00  0.00     0.024 A 
HETATM   18  C   UNL     1      41.811 -18.116   4.795  1.00  0.00     0.009 A 
ENDBRANCH   4  12
BRANCH   3  19
HETATM   19  C   UNL     1      42.530 -17.033   1.604  1.00  0.00     0.266 C 
HETATM   20  O   UNL     1      43.536 -16.339   1.619  1.00  0.00    -0.265 OA
BRANCH  19  21
HETATM   21  O   UNL     1      42.508 -18.382   1.400  1.00  0.00    -0.326 OA
HETATM   22  C   UNL     1      43.676 -19.069   1.850  1.00  0.00     0.213 C 
ENDBRANCH  19  21
ENDBRANCH   3  19
BRANCH   2  23
HETATM   23  O   UNL     1      39.349 -15.293   0.688  1.00  0.00    -0.389 OA
HETATM   24  H   UNL     1      38.925 -15.293   1.566  1.00  0.00     0.210 HD
ENDBRANCH   2  23
BRANCH  10  25
HETATM   25  O   UNL     1      39.453 -14.798   5.903  1.00  0.00    -0.343 OA
HETATM   26  H   UNL     1      39.492 -14.080   6.558  1.00  0.00     0.219 HD
ENDBRANCH  10  25
TORSDOF 5
ENDMDL
MODEL 5
REMARK VINA RESULT:      -6.6      3.080      4.948
REMARK  5 active torsions:
REMARK  status: ('A' for Active; 'I' for Inactive)
REMARK    1  A    between atoms: C_2  and  O_3 
REMARK    2  A    between atoms: C_4  and  C_5 
REMARK    3  A    between atoms: C_5  and  O_6 
REMARK    4  A    between atoms: C_9  and  C_10 
REMARK    5  A    between atoms: C_22  and  O_23 
ROOT
HETATM    1  C   UNL     1      40.401 -14.312   5.580  1.00  0.00     0.047 C 
HETATM    2  C   UNL     1      41.239 -14.840   4.406  1.00  0.00     0.073 C 
HETATM    3  C   UNL     1      42.504 -15.654   4.856  1.00  0.00     0.133 C 
HETATM    4  C   UNL     1      43.276 -16.405   3.716  1.00  0.00     0.074 C 
HETATM    5  C   UNL     1      42.495 -16.500   2.446  1.00  0.00     0.030 A 
HETATM    6  C   UNL     1      41.165 -16.164   2.333  1.00  0.00     0.042 A 
HETATM    7  N   UNL     1      40.810 -16.357   1.029  1.00  0.00    -0.279 N 
HETATM    8  H   UNL     1      39.909 -16.213   0.585  1.00  0.00     0.189 HD
HETATM    9  N   UNL     1      41.854 -16.738   0.261  1.00  0.00    -0.149 NA
HETATM   10  C   UNL     1      42.850 -16.816   1.134  1.00  0.00     0.190 A 
HETATM   11  C   UNL     1      40.317 -15.614   3.419  1.00  0.00     0.097 C 
ENDROOT
BRANCH   4  12
HETATM   12  C   UNL     1      43.730 -17.832   4.016  1.00  0.00    -0.048 A 
HETATM   13  C   UNL     1      43.200 -18.951   3.341  1.00  0.00     0.009 A 
HETATM   14  C   UNL     1      43.615 -20.247   3.655  1.00  0.00     0.024 A 
HETATM   15  C   UNL     1      44.568 -20.443   4.648  1.00  0.00     0.034 A 
HETATM   16 CL   UNL     1      45.079 -22.038   5.038  1.00  0.00    -0.084 Cl
HETATM   17  C   UNL     1      45.107 -19.355   5.330  1.00  0.00     0.024 A 
HETATM   18  C   UNL     1      44.689 -18.057   5.018  1.00  0.00     0.009 A 
ENDBRANCH   4  12
BRANCH   3  19
HETATM   19  C   UNL     1      42.195 -16.558   6.032  1.00  0.00     0.266 C 
HETATM   20  O   UNL     1      41.383 -17.473   6.022  1.00  0.00    -0.265 OA
BRANCH  19  21
HETATM   21  O   UNL     1      42.963 -16.201   7.102  1.00  0.00    -0.326 OA
HETATM   22  C   UNL     1      43.151 -17.235   8.069  1.00  0.00     0.213 C 
ENDBRANCH  19  21
ENDBRANCH   3  19
BRANCH   2  23
HETATM   23  O   UNL     1      41.709 -13.635   3.750  1.00  0.00    -0.389 OA
HETATM   24  H   UNL     1      42.643 -13.762   3.499  1.00  0.00     0.210 HD
ENDBRANCH   2  23
BRANCH  10  25
HETATM   25  O   UNL     1      44.034 -17.140   0.626  1.00  0.00    -0.343 OA
HETATM   26  H   UNL     1      44.328 -17.899   1.158  1.00  0.00     0.219 HD
ENDBRANCH  10  25
TORSDOF 5
ENDMDL
MODEL 6
REMARK VINA RESULT:      -6.5      3.789      5.588
REMARK  5 active torsions:
REMARK  status: ('A' for Active; 'I' for Inactive)
REMARK    1  A    between atoms: C_2  and  O_3 
REMARK    2  A    between atoms: C_4  and  C_5 
REMARK    3  A    between atoms: C_5  and  O_6 
REMARK    4  A    between atoms: C_9  and  C_10 
REMARK    5  A    between atoms: C_22  and  O_23 
ROOT
HETATM    1  C   UNL     1      41.133 -12.841   5.416  1.00  0.00     0.047 C 
HETATM    2  C   UNL     1      41.352 -13.191   3.937  1.00  0.00     0.073 C 
HETATM    3  C   UNL     1      42.461 -14.279   3.708  1.00  0.00     0.133 C 
HETATM    4  C   UNL     1      42.579 -14.839   2.248  1.00  0.00     0.074 C 
HETATM    5  C   UNL     1      41.402 -14.497   1.394  1.00  0.00     0.030 A 
HETATM    6  C   UNL     1      40.239 -13.939   1.873  1.00  0.00     0.042 A 
HETATM    7  N   UNL     1      39.414 -13.748   0.803  1.00  0.00    -0.279 N 
HETATM    8  H   UNL     1      38.475 -13.360   0.782  1.00  0.00     0.189 HD
HETATM    9  N   UNL     1      39.996 -14.089  -0.367  1.00  0.00    -0.149 NA
HETATM   10  C   UNL     1      41.187 -14.533   0.016  1.00  0.00     0.190 A 
HETATM   11  C   UNL     1      39.985 -13.544   3.280  1.00  0.00     0.097 C 
ENDROOT
BRANCH   4  12
HETATM   12  C   UNL     1      42.754 -16.349   2.103  1.00  0.00    -0.048 A 
HETATM   13  C   UNL     1      41.659 -17.230   1.983  1.00  0.00     0.009 A 
HETATM   14  C   UNL     1      41.849 -18.608   1.877  1.00  0.00     0.024 A 
HETATM   15  C   UNL     1      43.138 -19.129   1.888  1.00  0.00     0.034 A 
HETATM   16 CL   UNL     1      43.375 -20.828   1.762  1.00  0.00    -0.084 Cl
HETATM   17  C   UNL     1      44.238 -18.282   2.007  1.00  0.00     0.024 A 
HETATM   18  C   UNL     1      44.047 -16.901   2.115  1.00  0.00     0.009 A 
ENDBRANCH   4  12
BRANCH   3  19
HETATM   19  C   UNL     1      42.379 -15.383   4.743  1.00  0.00     0.266 C 
HETATM   20  O   UNL     1      41.378 -16.039   4.994  1.00  0.00    -0.265 OA
BRANCH  19  21
HETATM   21  O   UNL     1      43.592 -15.539   5.346  1.00  0.00    -0.326 OA
HETATM   22  C   UNL     1      43.527 -15.948   6.713  1.00  0.00     0.213 C 
ENDBRANCH  19  21
ENDBRANCH   3  19
BRANCH   2  23
HETATM   23  O   UNL     1      41.834 -11.951   3.358  1.00  0.00    -0.389 OA
HETATM   24  H   UNL     1      42.582 -11.629   3.895  1.00  0.00     0.210 HD
ENDBRANCH   2  23
BRANCH  10  25
HETATM   25  O   UNL     1      42.002 -14.906  -0.965  1.00  0.00    -0.343 OA
HETATM   26  H   UNL     1      41.822 -14.277  -1.685  1.00  0.00     0.219 HD
ENDBRANCH  10  25
TORSDOF 5
ENDMDL
MODEL 7
REMARK VINA RESULT:      -6.4      3.604      5.607
REMARK  5 active torsions:
REMARK  status: ('A' for Active; 'I' for Inactive)
REMARK    1  A    between atoms: C_2  and  O_3 
REMARK    2  A    between atoms: C_4  and  C_5 
REMARK    3  A    between atoms: C_5  and  O_6 
REMARK    4  A    between atoms: C_9  and  C_10 
REMARK    5  A    between atoms: C_22  and  O_23 
ROOT
HETATM    1  C   UNL     1      42.522 -18.875   1.978  1.00  0.00     0.047 C 
HETATM    2  C   UNL     1      41.712 -17.610   1.658  1.00  0.00     0.073 C 
HETATM    3  C   UNL     1      41.079 -16.934   2.926  1.00  0.00     0.133 C 
HETATM    4  C   UNL     1      40.430 -15.525   2.699  1.00  0.00     0.074 C 
HETATM    5  C   UNL     1      40.815 -14.909   1.393  1.00  0.00     0.030 A 
HETATM    6  C   UNL     1      41.795 -15.406   0.566  1.00  0.00     0.042 A 
HETATM    7  N   UNL     1      41.842 -14.599  -0.534  1.00  0.00    -0.279 N 
HETATM    8  H   UNL     1      42.447 -14.663  -1.347  1.00  0.00     0.189 HD
HETATM    9  N   UNL     1      40.899 -13.633  -0.507  1.00  0.00    -0.149 NA
HETATM   10  C   UNL     1      40.297 -13.842   0.658  1.00  0.00     0.190 A 
HETATM   11  C   UNL     1      42.581 -16.642   0.802  1.00  0.00     0.097 C 
ENDROOT
BRANCH   4  12
HETATM   12  C   UNL     1      40.721 -14.455   3.749  1.00  0.00    -0.048 A 
HETATM   13  C   UNL     1      41.829 -13.587   3.657  1.00  0.00     0.009 A 
HETATM   14  C   UNL     1      42.084 -12.636   4.646  1.00  0.00     0.024 A 
HETATM   15  C   UNL     1      41.234 -12.536   5.742  1.00  0.00     0.034 A 
HETATM   16 CL   UNL     1      41.549 -11.367   6.963  1.00  0.00    -0.084 Cl
HETATM   17  C   UNL     1      40.134 -13.381   5.858  1.00  0.00     0.024 A 
HETATM   18  C   UNL     1      39.880 -14.337   4.868  1.00  0.00     0.009 A 
ENDBRANCH   4  12
BRANCH   3  19
HETATM   19  C   UNL     1      42.039 -16.942   4.098  1.00  0.00     0.266 C 
HETATM   20  O   UNL     1      43.181 -16.502   4.077  1.00  0.00    -0.265 OA
BRANCH  19  21
HETATM   21  O   UNL     1      41.436 -17.506   5.184  1.00  0.00    -0.326 OA
HETATM   22  C   UNL     1      41.880 -16.998   6.442  1.00  0.00     0.213 C 
ENDBRANCH  19  21
ENDBRANCH   3  19
BRANCH   2  23
HETATM   23  O   UNL     1      40.622 -18.099   0.837  1.00  0.00    -0.389 OA
HETATM   24  H   UNL     1      40.165 -18.813   1.319  1.00  0.00     0.210 HD
ENDBRANCH   2  23
BRANCH  10  25
HETATM   25  O   UNL     1      39.276 -13.037   0.928  1.00  0.00    -0.343 OA
HETATM   26  H   UNL     1      38.546 -13.374   0.380  1.00  0.00     0.219 HD
ENDBRANCH  10  25
TORSDOF 5
ENDMDL
MODEL 8
REMARK VINA RESULT:      -6.3      3.286      5.124
REMARK  5 active torsions:
REMARK  status: ('A' for Active; 'I' for Inactive)
REMARK    1  A    between atoms: C_2  and  O_3 
REMARK    2  A    between atoms: C_4  and  C_5 
REMARK    3  A    between atoms: C_5  and  O_6 
REMARK    4  A    between atoms: C_9  and  C_10 
REMARK    5  A    between atoms: C_22  and  O_23 
ROOT
HETATM    1  C   UNL     1      41.816 -12.479   3.745  1.00  0.00     0.047 C 
HETATM    2  C   UNL     1      42.076 -13.854   3.112  1.00  0.00     0.073 C 
HETATM    3  C   UNL     1      43.148 -14.705   3.882  1.00  0.00     0.133 C 
HETATM    4  C   UNL     1      43.298 -16.196   3.421  1.00  0.00     0.074 C 
HETATM    5  C   UNL     1      42.169 -16.657   2.559  1.00  0.00     0.030 A 
HETATM    6  C   UNL     1      41.012 -15.940   2.356  1.00  0.00     0.042 A 
HETATM    7  N   UNL     1      40.236 -16.663   1.497  1.00  0.00    -0.279 N 
HETATM    8  H   UNL     1      39.315 -16.442   1.129  1.00  0.00     0.189 HD
HETATM    9  N   UNL     1      40.848 -17.789   1.070  1.00  0.00    -0.149 NA
HETATM   10  C   UNL     1      42.004 -17.760   1.720  1.00  0.00     0.190 A 
HETATM   11  C   UNL     1      40.722 -14.594   2.906  1.00  0.00     0.097 C 
ENDROOT
BRANCH   4  12
HETATM   12  C   UNL     1      43.418 -17.248   4.522  1.00  0.00    -0.048 A 
HETATM   13  C   UNL     1      44.663 -17.737   4.969  1.00  0.00     0.009 A 
HETATM   14  C   UNL     1      44.739 -18.718   5.959  1.00  0.00     0.024 A 
HETATM   15  C   UNL     1      43.571 -19.225   6.519  1.00  0.00     0.034 A 
HETATM   16 CL   UNL     1      43.664 -20.436   7.736  1.00  0.00    -0.084 Cl
HETATM   17  C   UNL     1      42.329 -18.760   6.095  1.00  0.00     0.024 A 
HETATM   18  C   UNL     1      42.252 -17.779   5.101  1.00  0.00     0.009 A 
ENDBRANCH   4  12
BRANCH   3  19
HETATM   19  C   UNL     1      42.983 -14.581   5.383  1.00  0.00     0.266 C 
HETATM   20  O   UNL     1      41.946 -14.792   5.997  1.00  0.00    -0.265 OA
BRANCH  19  21
HETATM   21  O   UNL     1      44.167 -14.206   5.947  1.00  0.00    -0.326 OA
HETATM   22  C   UNL     1      44.434 -14.801   7.218  1.00  0.00     0.213 C 
ENDBRANCH  19  21
ENDBRANCH   3  19
BRANCH   2  23
HETATM   23  O   UNL     1      42.630 -13.534   1.810  1.00  0.00    -0.389 OA
HETATM   24  H   UNL     1      41.935 -13.659   1.138  1.00  0.00     0.210 HD
ENDBRANCH   2  23
BRANCH  10  25
HETATM   25  O   UNL     1      42.839 -18.756   1.447  1.00  0.00    -0.343 OA
HETATM   26  H   UNL     1      42.262 -19.518   1.267  1.00  0.00     0.219 HD
ENDBRANCH  10  25
TORSDOF 5
ENDMDL
MODEL 9
REMARK VINA RESULT:      -6.2      3.294      5.250
REMARK  5 active torsions:
REMARK  status: ('A' for Active; 'I' for Inactive)
REMARK    1  A    between atoms: C_2  and  O_3 
REMARK    2  A    between atoms: C_4  and  C_5 
REMARK    3  A    between atoms: C_5  and  O_6 
REMARK    4  A    between atoms: C_9  and  C_10 
REMARK    5  A    between atoms: C_22  and  O_23 
ROOT
HETATM    1  C   UNL     1      42.853 -18.485   4.460  1.00  0.00     0.047 C 
HETATM    2  C   UNL     1      42.461 -17.003   4.547  1.00  0.00     0.073 C 
HETATM    3  C   UNL     1      42.411 -16.285   3.152  1.00  0.00     0.133 C 
HETATM    4  C   UNL     1      41.805 -14.838   3.147  1.00  0.00     0.074 C 
HETATM    5  C   UNL     1      41.069 -14.510   4.405  1.00  0.00     0.030 A 
HETATM    6  C   UNL     1      40.761 -15.431   5.380  1.00  0.00     0.042 A 
HETATM    7  N   UNL     1      40.115 -14.760   6.378  1.00  0.00    -0.279 N 
HETATM    8  H   UNL     1      39.741 -15.120   7.251  1.00  0.00     0.189 HD
HETATM    9  N   UNL     1      40.039 -13.432   6.144  1.00  0.00    -0.149 NA
HETATM   10  C   UNL     1      40.619 -13.309   4.956  1.00  0.00     0.190 A 
HETATM   11  C   UNL     1      41.146 -16.863   5.369  1.00  0.00     0.097 C 
ENDROOT
BRANCH   4  12
HETATM   12  C   UNL     1      40.837 -14.500   2.016  1.00  0.00    -0.048 A 
HETATM   13  C   UNL     1      39.441 -14.664   2.141  1.00  0.00     0.009 A 
HETATM   14  C   UNL     1      38.583 -14.371   1.080  1.00  0.00     0.024 A 
HETATM   15  C   UNL     1      39.106 -13.908  -0.123  1.00  0.00     0.034 A 
HETATM   16 CL   UNL     1      38.050 -13.551  -1.432  1.00  0.00    -0.084 Cl
HETATM   17  C   UNL     1      40.480 -13.739  -0.273  1.00  0.00     0.024 A 
HETATM   18  C   UNL     1      41.341 -14.035   0.790  1.00  0.00     0.009 A 
ENDBRANCH   4  12
BRANCH   3  19
HETATM   19  C   UNL     1      41.788 -17.171   2.092  1.00  0.00     0.266 C 
HETATM   20  O   UNL     1      40.690 -17.703   2.176  1.00  0.00    -0.265 OA
BRANCH  19  21
HETATM   21  O   UNL     1      42.635 -17.280   1.028  1.00  0.00    -0.326 OA
HETATM   22  C   UNL     1      44.021 -17.249   1.366  1.00  0.00     0.213 C 
ENDBRANCH  19  21
ENDBRANCH   3  19
BRANCH   2  23
HETATM   23  O   UNL     1      43.544 -16.405   5.304  1.00  0.00    -0.389 OA
HETATM   24  H   UNL     1      44.391 -16.710   4.929  1.00  0.00     0.210 HD
ENDBRANCH   2  23
BRANCH  10  25
HETATM   25  O   UNL     1      40.718 -12.068   4.492  1.00  0.00    -0.343 OA
HETATM   26  H   UNL     1      40.031 -11.573   4.970  1.00  0.00     0.219 HD
ENDBRANCH  10  25
TORSDOF 5
ENDMDL
MODEL 10
REMARK VINA RESULT:      -6.1      3.476      5.647
REMARK  5 active torsions:
REMARK  status: ('A' for Active; 'I' for Inactive)
REMARK    1  A    between atoms: C_2  and  O_3 
REMARK    2  A    between atoms: C_4  and  C_5 
REMARK    3  A    between atoms: C_5  and  O_6 
REMARK    4  A    between atoms: C_9  and  C_10 
REMARK    5  A    between atoms: C_22  and  O_23 
ROOT
HETATM    1  C   UNL     1      39.090 -12.378   2.821  1.00  0.00     0.047 C 
HETATM    2  C   UNL     1      40.101 -13.503   2.557  1.00  0.00     0.073 C 
HETATM    3  C   UNL     1      41.237 -13.590   3.637  1.00  0.00     0.133 C 
HETATM    4  C   UNL     1      42.170 -14.848   3.550  1.00  0.00     0.074 C 
HETATM    5  C   UNL     1      41.621 -15.922   2.668  1.00  0.00     0.030 A 
HETATM    6  C   UNL     1      40.344 -15.918   2.153  1.00  0.00     0.042 A 
HETATM    7  N   UNL     1      40.217 -17.038   1.383  1.00  0.00    -0.279 N 
HETATM    8  H   UNL     1      39.413 -17.360   0.853  1.00  0.00     0.189 HD
HETATM    9  N   UNL     1      41.365 -17.746   1.308  1.00  0.00    -0.149 NA
HETATM   10  C   UNL     1      42.189 -17.056   2.086  1.00  0.00     0.190 A 
HETATM   11  C   UNL     1      39.339 -14.843   2.341  1.00  0.00     0.097 C 
ENDROOT
BRANCH   4  12
HETATM   12  C   UNL     1      42.511 -15.545   4.865  1.00  0.00    -0.048 A 
HETATM   13  C   UNL     1      41.761 -16.629   5.364  1.00  0.00     0.009 A 
HETATM   14  C   UNL     1      42.082 -17.230   6.582  1.00  0.00     0.024 A 
HETATM   15  C   UNL     1      43.160 -16.755   7.321  1.00  0.00     0.034 A 
HETATM   16 CL   UNL     1      43.555 -17.491   8.825  1.00  0.00    -0.084 Cl
HETATM   17  C   UNL     1      43.918 -15.685   6.852  1.00  0.00     0.024 A 
HETATM   18  C   UNL     1      43.594 -15.082   5.632  1.00  0.00     0.009 A 
ENDBRANCH   4  12
BRANCH   3  19
HETATM   19  C   UNL     1      40.694 -13.374   5.035  1.00  0.00     0.266 C 
HETATM   20  O   UNL     1      39.800 -14.030   5.552  1.00  0.00    -0.265 OA
BRANCH  19  21
HETATM   21  O   UNL     1      41.356 -12.342   5.632  1.00  0.00    -0.326 OA
HETATM   22  C   UNL     1      40.519 -11.437   6.352  1.00  0.00     0.213 C 
ENDBRANCH  19  21
ENDBRANCH   3  19
BRANCH   2  23
HETATM   23  O   UNL     1      40.723 -13.119   1.304  1.00  0.00    -0.389 OA
HETATM   24  H   UNL     1      40.735 -13.894   0.713  1.00  0.00     0.210 HD
ENDBRANCH   2  23
BRANCH  10  25
HETATM   25  O   UNL     1      43.431 -17.521   2.161  1.00  0.00    -0.343 OA
HETATM   26  H   UNL     1      43.679 -17.708   1.239  1.00  0.00     0.219 HD
ENDBRANCH  10  25
TORSDOF 5
ENDMDL
