MODEL 1
REMARK VINA RESULT:      -8.2      0.000      0.000
REMARK  5 active torsions:
REMARK  status: ('A' for Active; 'I' for Inactive)
REMARK    1  A    between atoms: C_3  and  O_4 
REMARK    2  A    between atoms: O_4  and  C_5 
REMARK    3  A    between atoms: C_5  and  C_6 
REMARK       I    between atoms: C_6  and  N_7 
REMARK    4  A    between atoms: N_7  and  N_8 
REMARK    5  A    between atoms: C_9  and  C_10 
ROOT
HETATM    1  C   UNL     1      44.807 -13.618   7.350  1.00  0.00     0.261 C 
HETATM    2  N   UNL     1      43.629 -14.262   6.989  1.00  0.00    -0.246 N 
HETATM    3  O   UNL     1      45.863 -13.625   6.722  1.00  0.00    -0.269 OA
HETATM    4  H   UNL     1      42.791 -14.002   7.506  1.00  0.00     0.192 HD
ENDROOT
BRANCH   2   5
HETATM    5  N   UNL     1      43.380 -14.971   5.838  1.00  0.00    -0.184 NA
HETATM    6  C   UNL     1      43.393 -16.265   5.869  1.00  0.00     0.152 C 
BRANCH   6   7
HETATM    7  C   UNL     1      43.158 -17.012   4.647  1.00  0.00     0.011 A 
HETATM    8  C   UNL     1      43.730 -18.277   4.292  1.00  0.00     0.004 A 
HETATM    9  C   UNL     1      43.225 -18.627   3.038  1.00  0.00     0.043 A 
HETATM   10  C   UNL     1      44.641 -19.155   4.917  1.00  0.00     0.014 A 
HETATM   11  C   UNL     1      43.581 -19.812   2.383  1.00  0.00     0.030 A 
HETATM   12  N   UNL     1      42.378 -17.617   2.647  1.00  0.00    -0.364 N 
HETATM   13  C   UNL     1      44.485 -20.663   3.025  1.00  0.00     0.002 A 
HETATM   14  C   UNL     1      45.011 -20.341   4.273  1.00  0.00     0.001 A 
HETATM   15  H   UNL     1      41.868 -17.603   1.774  1.00  0.00     0.165 HD
HETATM   16  C   UNL     1      42.335 -16.638   3.601  1.00  0.00     0.102 A 
ENDBRANCH   6   7
ENDBRANCH   2   5
BRANCH   1  17
HETATM   17  C   UNL     1      44.709 -12.928   8.708  1.00  0.00     0.280 C 
BRANCH  17  18
HETATM   18  O   UNL     1      44.521 -11.522   8.566  1.00  0.00    -0.342 OA
BRANCH  18  19
HETATM   19  C   UNL     1      43.956 -10.923   9.665  1.00  0.00     0.075 A 
HETATM   20  C   UNL     1      42.680 -10.361   9.506  1.00  0.00    -0.029 A 
HETATM   21  C   UNL     1      41.951 -10.419   8.192  1.00  0.00     0.051 C 
HETATM   22  C   UNL     1      42.053  -9.767  10.613  1.00  0.00     0.009 A 
HETATM   23  C   UNL     1      42.689  -9.726  11.853  1.00  0.00     0.001 A 
HETATM   24  C   UNL     1      43.951 -10.293  12.006  1.00  0.00     0.003 A 
HETATM   25  C   UNL     1      44.579 -10.899  10.917  1.00  0.00     0.037 A 
ENDBRANCH  18  19
ENDBRANCH  17  18
ENDBRANCH   1  17
TORSDOF 5
ENDMDL
MODEL 2
REMARK VINA RESULT:      -8.2      5.409      7.720
REMARK  5 active torsions:
REMARK  status: ('A' for Active; 'I' for Inactive)
REMARK    1  A    between atoms: C_3  and  O_4 
REMARK    2  A    between atoms: O_4  and  C_5 
REMARK    3  A    between atoms: C_5  and  C_6 
REMARK       I    between atoms: C_6  and  N_7 
REMARK    4  A    between atoms: N_7  and  N_8 
REMARK    5  A    between atoms: C_9  and  C_10 
ROOT
HETATM    1  C   UNL     1      42.673 -13.784   2.717  1.00  0.00     0.261 C 
HETATM    2  N   UNL     1      42.097 -15.042   2.851  1.00  0.00    -0.246 N 
HETATM    3  O   UNL     1      43.710 -13.396   3.250  1.00  0.00    -0.269 OA
HETATM    4  H   UNL     1      41.351 -15.274   2.197  1.00  0.00     0.192 HD
ENDROOT
BRANCH   2   5
HETATM    5  N   UNL     1      42.595 -16.123   3.539  1.00  0.00    -0.184 NA
HETATM    6  C   UNL     1      43.390 -16.951   2.941  1.00  0.00     0.152 C 
BRANCH   6   7
HETATM    7  C   UNL     1      43.892 -18.106   3.661  1.00  0.00     0.011 A 
HETATM    8  C   UNL     1      43.984 -19.449   3.169  1.00  0.00     0.004 A 
HETATM    9  C   UNL     1      44.530 -20.232   4.189  1.00  0.00     0.043 A 
HETATM   10  C   UNL     1      43.645 -20.076   1.952  1.00  0.00     0.014 A 
HETATM   11  C   UNL     1      44.756 -21.606   4.050  1.00  0.00     0.030 A 
HETATM   12  N   UNL     1      44.761 -19.398   5.259  1.00  0.00    -0.364 N 
HETATM   13  C   UNL     1      44.411 -22.202   2.833  1.00  0.00     0.002 A 
HETATM   14  C   UNL     1      43.861 -21.450   1.798  1.00  0.00     0.001 A 
HETATM   15  H   UNL     1      45.154 -19.695   6.142  1.00  0.00     0.165 HD
HETATM   16  C   UNL     1      44.376 -18.121   4.956  1.00  0.00     0.102 A 
ENDBRANCH   6   7
ENDBRANCH   2   5
BRANCH   1  17
HETATM   17  C   UNL     1      41.825 -12.835   1.873  1.00  0.00     0.280 C 
BRANCH  17  18
HETATM   18  O   UNL     1      42.610 -12.180   0.879  1.00  0.00    -0.342 OA
BRANCH  18  19
HETATM   19  C   UNL     1      42.306 -12.557  -0.406  1.00  0.00     0.075 A 
HETATM   20  C   UNL     1      42.759 -11.728  -1.444  1.00  0.00    -0.029 A 
HETATM   21  C   UNL     1      43.555 -10.483  -1.168  1.00  0.00     0.051 C 
HETATM   22  C   UNL     1      42.496 -12.094  -2.774  1.00  0.00     0.009 A 
HETATM   23  C   UNL     1      41.787 -13.260  -3.064  1.00  0.00     0.001 A 
HETATM   24  C   UNL     1      41.349 -14.082  -2.030  1.00  0.00     0.003 A 
HETATM   25  C   UNL     1      41.615 -13.737  -0.705  1.00  0.00     0.037 A 
ENDBRANCH  18  19
ENDBRANCH  17  18
ENDBRANCH   1  17
TORSDOF 5
ENDMDL
MODEL 3
REMARK VINA RESULT:      -8.1      6.057      8.899
REMARK  5 active torsions:
REMARK  status: ('A' for Active; 'I' for Inactive)
REMARK    1  A    between atoms: C_3  and  O_4 
REMARK    2  A    between atoms: O_4  and  C_5 
REMARK    3  A    between atoms: C_5  and  C_6 
REMARK       I    between atoms: C_6  and  N_7 
REMARK    4  A    between atoms: N_7  and  N_8 
REMARK    5  A    between atoms: C_9  and  C_10 
ROOT
HETATM    1  C   UNL     1      39.348 -14.927   2.152  1.00  0.00     0.261 C 
HETATM    2  N   UNL     1      39.788 -16.224   1.917  1.00  0.00    -0.246 N 
HETATM    3  O   UNL     1      39.609 -14.235   3.133  1.00  0.00    -0.269 OA
HETATM    4  H   UNL     1      39.649 -16.590   0.976  1.00  0.00     0.192 HD
ENDROOT
BRANCH   2   5
HETATM    5  N   UNL     1      40.652 -16.968   2.685  1.00  0.00    -0.184 NA
HETATM    6  C   UNL     1      41.919 -16.950   2.422  1.00  0.00     0.152 C 
BRANCH   6   7
HETATM    7  C   UNL     1      42.826 -17.758   3.216  1.00  0.00     0.011 A 
HETATM    8  C   UNL     1      43.302 -19.072   2.901  1.00  0.00     0.004 A 
HETATM    9  C   UNL     1      44.155 -19.467   3.934  1.00  0.00     0.043 A 
HETATM   10  C   UNL     1      43.078 -19.971   1.836  1.00  0.00     0.014 A 
HETATM   11  C   UNL     1      44.799 -20.711   3.951  1.00  0.00     0.030 A 
HETATM   12  N   UNL     1      44.198 -18.433   4.840  1.00  0.00    -0.364 N 
HETATM   13  C   UNL     1      44.559 -21.580   2.883  1.00  0.00     0.002 A 
HETATM   14  C   UNL     1      43.710 -21.220   1.840  1.00  0.00     0.001 A 
HETATM   15  H   UNL     1      44.740 -18.442   5.694  1.00  0.00     0.165 HD
HETATM   16  C   UNL     1      43.398 -17.404   4.424  1.00  0.00     0.102 A 
ENDBRANCH   6   7
ENDBRANCH   2   5
BRANCH   1  17
HETATM   17  C   UNL     1      38.389 -14.426   1.075  1.00  0.00     0.280 C 
BRANCH  17  18
HETATM   18  O   UNL     1      39.038 -13.528   0.177  1.00  0.00    -0.342 OA
BRANCH  18  19
HETATM   19  C   UNL     1      39.140 -14.004  -1.107  1.00  0.00     0.075 A 
HETATM   20  C   UNL     1      40.407 -14.426  -1.538  1.00  0.00    -0.029 A 
HETATM   21  C   UNL     1      41.606 -14.372  -0.633  1.00  0.00     0.051 C 
HETATM   22  C   UNL     1      40.548 -14.949  -2.833  1.00  0.00     0.009 A 
HETATM   23  C   UNL     1      39.449 -15.042  -3.687  1.00  0.00     0.001 A 
HETATM   24  C   UNL     1      38.194 -14.630  -3.250  1.00  0.00     0.003 A 
HETATM   25  C   UNL     1      38.036 -14.121  -1.960  1.00  0.00     0.037 A 
ENDBRANCH  18  19
ENDBRANCH  17  18
ENDBRANCH   1  17
TORSDOF 5
ENDMDL
MODEL 4
REMARK VINA RESULT:      -7.9      6.367      8.646
REMARK  5 active torsions:
REMARK  status: ('A' for Active; 'I' for Inactive)
REMARK    1  A    between atoms: C_3  and  O_4 
REMARK    2  A    between atoms: O_4  and  C_5 
REMARK    3  A    between atoms: C_5  and  C_6 
REMARK       I    between atoms: C_6  and  N_7 
REMARK    4  A    between atoms: N_7  and  N_8 
REMARK    5  A    between atoms: C_9  and  C_10 
ROOT
HETATM    1  C   UNL     1      40.366 -15.331   1.594  1.00  0.00     0.261 C 
HETATM    2  N   UNL     1      41.261 -16.345   1.271  1.00  0.00    -0.246 N 
HETATM    3  O   UNL     1      39.854 -15.133   2.693  1.00  0.00    -0.269 OA
HETATM    4  H   UNL     1      41.743 -16.260   0.378  1.00  0.00     0.192 HD
ENDROOT
BRANCH   2   5
HETATM    5  N   UNL     1      41.808 -17.281   2.117  1.00  0.00    -0.184 NA
HETATM    6  C   UNL     1      43.069 -17.226   2.401  1.00  0.00     0.152 C 
BRANCH   6   7
HETATM    7  C   UNL     1      43.650 -18.231   3.271  1.00  0.00     0.011 A 
HETATM    8  C   UNL     1      43.860 -19.615   2.962  1.00  0.00     0.004 A 
HETATM    9  C   UNL     1      44.448 -20.209   4.081  1.00  0.00     0.043 A 
HETATM   10  C   UNL     1      43.596 -20.423   1.835  1.00  0.00     0.014 A 
HETATM   11  C   UNL     1      44.789 -21.567   4.126  1.00  0.00     0.030 A 
HETATM   12  N   UNL     1      44.591 -19.226   5.033  1.00  0.00    -0.364 N 
HETATM   13  C   UNL     1      44.516 -22.343   2.996  1.00  0.00     0.002 A 
HETATM   14  C   UNL     1      43.927 -21.782   1.866  1.00  0.00     0.001 A 
HETATM   15  H   UNL     1      44.990 -19.371   5.950  1.00  0.00     0.165 HD
HETATM   16  C   UNL     1      44.109 -18.036   4.561  1.00  0.00     0.102 A 
ENDBRANCH   6   7
ENDBRANCH   2   5
BRANCH   1  17
HETATM   17  C   UNL     1      39.979 -14.482   0.386  1.00  0.00     0.280 C 
BRANCH  17  18
HETATM   18  O   UNL     1      40.605 -14.955  -0.805  1.00  0.00    -0.342 OA
BRANCH  18  19
HETATM   19  C   UNL     1      41.235 -13.972  -1.529  1.00  0.00     0.075 A 
HETATM   20  C   UNL     1      40.941 -13.894  -2.899  1.00  0.00    -0.029 A 
HETATM   21  C   UNL     1      39.968 -14.835  -3.551  1.00  0.00     0.051 C 
HETATM   22  C   UNL     1      41.539 -12.883  -3.668  1.00  0.00     0.009 A 
HETATM   23  C   UNL     1      42.422 -11.974  -3.086  1.00  0.00     0.001 A 
HETATM   24  C   UNL     1      42.702 -12.052  -1.725  1.00  0.00     0.003 A 
HETATM   25  C   UNL     1      42.104 -13.042  -0.946  1.00  0.00     0.037 A 
ENDBRANCH  18  19
ENDBRANCH  17  18
ENDBRANCH   1  17
TORSDOF 5
ENDMDL
MODEL 5
REMARK VINA RESULT:      -7.9      5.897      9.014
REMARK  5 active torsions:
REMARK  status: ('A' for Active; 'I' for Inactive)
REMARK    1  A    between atoms: C_3  and  O_4 
REMARK    2  A    between atoms: O_4  and  C_5 
REMARK    3  A    between atoms: C_5  and  C_6 
REMARK       I    between atoms: C_6  and  N_7 
REMARK    4  A    between atoms: N_7  and  N_8 
REMARK    5  A    between atoms: C_9  and  C_10 
ROOT
HETATM    1  C   UNL     1      42.140 -17.577   4.832  1.00  0.00     0.261 C 
HETATM    2  N   UNL     1      42.375 -16.467   4.030  1.00  0.00    -0.246 N 
HETATM    3  O   UNL     1      41.044 -18.059   5.107  1.00  0.00    -0.269 OA
HETATM    4  H   UNL     1      43.339 -16.310   3.739  1.00  0.00     0.192 HD
ENDROOT
BRANCH   2   5
HETATM    5  N   UNL     1      41.452 -15.728   3.329  1.00  0.00    -0.184 NA
HETATM    6  C   UNL     1      41.054 -16.137   2.167  1.00  0.00     0.152 C 
BRANCH   6   7
HETATM    7  C   UNL     1      40.100 -15.342   1.417  1.00  0.00     0.011 A 
HETATM    8  C   UNL     1      40.344 -14.644   0.190  1.00  0.00     0.004 A 
HETATM    9  C   UNL     1      39.151 -14.019  -0.180  1.00  0.00     0.043 A 
HETATM   10  C   UNL     1      41.473 -14.476  -0.639  1.00  0.00     0.014 A 
HETATM   11  C   UNL     1      39.031 -13.241  -1.338  1.00  0.00     0.030 A 
HETATM   12  N   UNL     1      38.218 -14.325   0.783  1.00  0.00    -0.364 N 
HETATM   13  C   UNL     1      40.166 -13.092  -2.141  1.00  0.00     0.002 A 
HETATM   14  C   UNL     1      41.371 -13.698  -1.798  1.00  0.00     0.001 A 
HETATM   15  H   UNL     1      37.259 -14.005   0.774  1.00  0.00     0.165 HD
HETATM   16  C   UNL     1      38.778 -15.113   1.751  1.00  0.00     0.102 A 
ENDBRANCH   6   7
ENDBRANCH   2   5
BRANCH   1  17
HETATM   17  C   UNL     1      43.418 -18.138   5.451  1.00  0.00     0.280 C 
BRANCH  17  18
HETATM   18  O   UNL     1      44.400 -18.416   4.455  1.00  0.00    -0.342 OA
BRANCH  18  19
HETATM   19  C   UNL     1      44.412 -19.724   4.036  1.00  0.00     0.075 A 
HETATM   20  C   UNL     1      44.084 -19.972   2.695  1.00  0.00    -0.029 A 
HETATM   21  C   UNL     1      43.743 -18.857   1.747  1.00  0.00     0.051 C 
HETATM   22  C   UNL     1      44.116 -21.293   2.218  1.00  0.00     0.009 A 
HETATM   23  C   UNL     1      44.459 -22.347   3.064  1.00  0.00     0.001 A 
HETATM   24  C   UNL     1      44.792 -22.091   4.391  1.00  0.00     0.003 A 
HETATM   25  C   UNL     1      44.779 -20.783   4.875  1.00  0.00     0.037 A 
ENDBRANCH  18  19
ENDBRANCH  17  18
ENDBRANCH   1  17
TORSDOF 5
ENDMDL
MODEL 6
REMARK VINA RESULT:      -7.9      1.652      2.473
REMARK  5 active torsions:
REMARK  status: ('A' for Active; 'I' for Inactive)
REMARK    1  A    between atoms: C_3  and  O_4 
REMARK    2  A    between atoms: O_4  and  C_5 
REMARK    3  A    between atoms: C_5  and  C_6 
REMARK       I    between atoms: C_6  and  N_7 
REMARK    4  A    between atoms: N_7  and  N_8 
REMARK    5  A    between atoms: C_9  and  C_10 
ROOT
HETATM    1  C   UNL     1      44.709 -12.550   8.819  1.00  0.00     0.261 C 
HETATM    2  N   UNL     1      44.121 -13.251   7.772  1.00  0.00    -0.246 N 
HETATM    3  O   UNL     1      45.660 -12.923   9.502  1.00  0.00    -0.269 OA
HETATM    4  H   UNL     1      43.475 -12.730   7.181  1.00  0.00     0.192 HD
ENDROOT
BRANCH   2   5
HETATM    5  N   UNL     1      44.518 -14.455   7.242  1.00  0.00    -0.184 NA
HETATM    6  C   UNL     1      43.628 -15.279   6.788  1.00  0.00     0.152 C 
BRANCH   6   7
HETATM    7  C   UNL     1      44.047 -16.561   6.255  1.00  0.00     0.011 A 
HETATM    8  C   UNL     1      43.615 -17.161   5.027  1.00  0.00     0.004 A 
HETATM    9  C   UNL     1      44.274 -18.387   4.905  1.00  0.00     0.043 A 
HETATM   10  C   UNL     1      42.716 -16.780   4.008  1.00  0.00     0.014 A 
HETATM   11  C   UNL     1      44.082 -19.245   3.816  1.00  0.00     0.030 A 
HETATM   12  N   UNL     1      45.075 -18.527   6.015  1.00  0.00    -0.364 N 
HETATM   13  C   UNL     1      43.186 -18.842   2.822  1.00  0.00     0.002 A 
HETATM   14  C   UNL     1      42.509 -17.628   2.914  1.00  0.00     0.001 A 
HETATM   15  H   UNL     1      45.670 -19.324   6.194  1.00  0.00     0.165 HD
HETATM   16  C   UNL     1      44.942 -17.440   6.836  1.00  0.00     0.102 A 
ENDBRANCH   6   7
ENDBRANCH   2   5
BRANCH   1  17
HETATM   17  C   UNL     1      43.988 -11.241   9.130  1.00  0.00     0.280 C 
BRANCH  17  18
HETATM   18  O   UNL     1      42.768 -11.474   9.831  1.00  0.00    -0.342 OA
BRANCH  18  19
HETATM   19  C   UNL     1      42.698 -10.842  11.049  1.00  0.00     0.075 A 
HETATM   20  C   UNL     1      41.431 -10.721  11.639  1.00  0.00    -0.029 A 
HETATM   21  C   UNL     1      40.197 -11.270  10.977  1.00  0.00     0.051 C 
HETATM   22  C   UNL     1      41.319 -10.111  12.898  1.00  0.00     0.009 A 
HETATM   23  C   UNL     1      42.449  -9.620  13.553  1.00  0.00     0.001 A 
HETATM   24  C   UNL     1      43.704  -9.751  12.966  1.00  0.00     0.003 A 
HETATM   25  C   UNL     1      43.831 -10.368  11.721  1.00  0.00     0.037 A 
ENDBRANCH  18  19
ENDBRANCH  17  18
ENDBRANCH   1  17
TORSDOF 5
ENDMDL
MODEL 7
REMARK VINA RESULT:      -7.7      6.312      9.687
REMARK  5 active torsions:
REMARK  status: ('A' for Active; 'I' for Inactive)
REMARK    1  A    between atoms: C_3  and  O_4 
REMARK    2  A    between atoms: O_4  and  C_5 
REMARK    3  A    between atoms: C_5  and  C_6 
REMARK       I    between atoms: C_6  and  N_7 
REMARK    4  A    between atoms: N_7  and  N_8 
REMARK    5  A    between atoms: C_9  and  C_10 
ROOT
HETATM    1  C   UNL     1      41.164 -16.234   2.657  1.00  0.00     0.261 C 
HETATM    2  N   UNL     1      41.271 -16.484   1.294  1.00  0.00    -0.246 N 
HETATM    3  O   UNL     1      40.775 -15.191   3.179  1.00  0.00    -0.269 OA
HETATM    4  H   UNL     1      41.420 -17.453   1.019  1.00  0.00     0.192 HD
ENDROOT
BRANCH   2   5
HETATM    5  N   UNL     1      40.904 -15.658   0.259  1.00  0.00    -0.184 NA
HETATM    6  C   UNL     1      41.320 -15.911  -0.940  1.00  0.00     0.152 C 
BRANCH   6   7
HETATM    7  C   UNL     1      40.954 -15.022  -2.027  1.00  0.00     0.011 A 
HETATM    8  C   UNL     1      41.503 -13.726  -2.296  1.00  0.00     0.004 A 
HETATM    9  C   UNL     1      40.868 -13.231  -3.437  1.00  0.00     0.043 A 
HETATM   10  C   UNL     1      42.477 -12.920  -1.668  1.00  0.00     0.014 A 
HETATM   11  C   UNL     1      41.163 -11.975  -3.983  1.00  0.00     0.030 A 
HETATM   12  N   UNL     1      39.970 -14.188  -3.846  1.00  0.00    -0.364 N 
HETATM   13  C   UNL     1      42.131 -11.199  -3.340  1.00  0.00     0.002 A 
HETATM   14  C   UNL     1      42.780 -11.661  -2.198  1.00  0.00     0.001 A 
HETATM   15  H   UNL     1      39.366 -14.099  -4.653  1.00  0.00     0.165 HD
HETATM   16  C   UNL     1      40.007 -15.265  -3.004  1.00  0.00     0.102 A 
ENDBRANCH   6   7
ENDBRANCH   2   5
BRANCH   1  17
HETATM   17  C   UNL     1      41.676 -17.391   3.511  1.00  0.00     0.280 C 
BRANCH  17  18
HETATM   18  O   UNL     1      43.095 -17.505   3.436  1.00  0.00    -0.342 OA
BRANCH  18  19
HETATM   19  C   UNL     1      43.538 -18.781   3.185  1.00  0.00     0.075 A 
HETATM   20  C   UNL     1      44.362 -19.377   4.151  1.00  0.00    -0.029 A 
HETATM   21  C   UNL     1      44.739 -18.660   5.417  1.00  0.00     0.051 C 
HETATM   22  C   UNL     1      44.810 -20.693   3.949  1.00  0.00     0.009 A 
HETATM   23  C   UNL     1      44.451 -21.397   2.800  1.00  0.00     0.001 A 
HETATM   24  C   UNL     1      43.626 -20.803   1.850  1.00  0.00     0.003 A 
HETATM   25  C   UNL     1      43.162 -19.501   2.045  1.00  0.00     0.037 A 
ENDBRANCH  18  19
ENDBRANCH  17  18
ENDBRANCH   1  17
TORSDOF 5
ENDMDL
MODEL 8
REMARK VINA RESULT:      -7.5      6.967     10.282
REMARK  5 active torsions:
REMARK  status: ('A' for Active; 'I' for Inactive)
REMARK    1  A    between atoms: C_3  and  O_4 
REMARK    2  A    between atoms: O_4  and  C_5 
REMARK    3  A    between atoms: C_5  and  C_6 
REMARK       I    between atoms: C_6  and  N_7 
REMARK    4  A    between atoms: N_7  and  N_8 
REMARK    5  A    between atoms: C_9  and  C_10 
ROOT
HETATM    1  C   UNL     1      42.050 -17.023   0.738  1.00  0.00     0.261 C 
HETATM    2  N   UNL     1      42.118 -15.881  -0.052  1.00  0.00    -0.246 N 
HETATM    3  O   UNL     1      41.031 -17.529   1.202  1.00  0.00    -0.269 OA
HETATM    4  H   UNL     1      43.006 -15.701  -0.518  1.00  0.00     0.192 HD
ENDROOT
BRANCH   2   5
HETATM    5  N   UNL     1      41.072 -15.131  -0.532  1.00  0.00    -0.184 NA
HETATM    6  C   UNL     1      41.300 -14.194  -1.395  1.00  0.00     0.152 C 
BRANCH   6   7
HETATM    7  C   UNL     1      40.197 -13.385  -1.880  1.00  0.00     0.011 A 
HETATM    8  C   UNL     1      39.100 -13.827  -2.690  1.00  0.00     0.004 A 
HETATM    9  C   UNL     1      38.274 -12.724  -2.914  1.00  0.00     0.043 A 
HETATM   10  C   UNL     1      38.737 -15.065  -3.262  1.00  0.00     0.014 A 
HETATM   11  C   UNL     1      37.102 -12.799  -3.676  1.00  0.00     0.030 A 
HETATM   12  N   UNL     1      38.845 -11.653  -2.267  1.00  0.00    -0.364 N 
HETATM   13  C   UNL     1      36.766 -14.037  -4.232  1.00  0.00     0.002 A 
HETATM   14  C   UNL     1      37.571 -15.155  -4.031  1.00  0.00     0.001 A 
HETATM   15  H   UNL     1      38.460 -10.718  -2.258  1.00  0.00     0.165 HD
HETATM   16  C   UNL     1      40.003 -12.036  -1.648  1.00  0.00     0.102 A 
ENDBRANCH   6   7
ENDBRANCH   2   5
BRANCH   1  17
HETATM   17  C   UNL     1      43.428 -17.588   1.077  1.00  0.00     0.280 C 
BRANCH  17  18
HETATM   18  O   UNL     1      43.364 -18.986   1.349  1.00  0.00    -0.342 OA
BRANCH  18  19
HETATM   19  C   UNL     1      43.823 -19.331   2.597  1.00  0.00     0.075 A 
HETATM   20  C   UNL     1      44.217 -20.663   2.792  1.00  0.00    -0.029 A 
HETATM   21  C   UNL     1      44.154 -21.675   1.681  1.00  0.00     0.051 C 
HETATM   22  C   UNL     1      44.723 -21.049   4.043  1.00  0.00     0.009 A 
HETATM   23  C   UNL     1      44.825 -20.127   5.085  1.00  0.00     0.001 A 
HETATM   24  C   UNL     1      44.440 -18.805   4.882  1.00  0.00     0.003 A 
HETATM   25  C   UNL     1      43.949 -18.405   3.639  1.00  0.00     0.037 A 
ENDBRANCH  18  19
ENDBRANCH  17  18
ENDBRANCH   1  17
TORSDOF 5
ENDMDL
MODEL 9
REMARK VINA RESULT:      -7.5      4.562      5.795
REMARK  5 active torsions:
REMARK  status: ('A' for Active; 'I' for Inactive)
REMARK    1  A    between atoms: C_3  and  O_4 
REMARK    2  A    between atoms: O_4  and  C_5 
REMARK    3  A    between atoms: C_5  and  C_6 
REMARK       I    between atoms: C_6  and  N_7 
REMARK    4  A    between atoms: N_7  and  N_8 
REMARK    5  A    between atoms: C_9  and  C_10 
ROOT
HETATM    1  C   UNL     1      40.229 -15.821   1.966  1.00  0.00     0.261 C 
HETATM    2  N   UNL     1      40.521 -16.210   3.268  1.00  0.00    -0.246 N 
HETATM    3  O   UNL     1      40.687 -16.314   0.938  1.00  0.00    -0.269 OA
HETATM    4  H   UNL     1      39.917 -15.840   4.001  1.00  0.00     0.192 HD
ENDROOT
BRANCH   2   5
HETATM    5  N   UNL     1      41.314 -17.257   3.672  1.00  0.00    -0.184 NA
HETATM    6  C   UNL     1      42.601 -17.115   3.689  1.00  0.00     0.152 C 
BRANCH   6   7
HETATM    7  C   UNL     1      43.438 -18.230   4.090  1.00  0.00     0.011 A 
HETATM    8  C   UNL     1      43.655 -19.444   3.359  1.00  0.00     0.004 A 
HETATM    9  C   UNL     1      44.533 -20.232   4.108  1.00  0.00     0.043 A 
HETATM   10  C   UNL     1      43.179 -19.953   2.132  1.00  0.00     0.014 A 
HETATM   11  C   UNL     1      44.960 -21.497   3.688  1.00  0.00     0.030 A 
HETATM   12  N   UNL     1      44.838 -19.525   5.248  1.00  0.00    -0.364 N 
HETATM   13  C   UNL     1      44.473 -21.976   2.468  1.00  0.00     0.002 A 
HETATM   14  C   UNL     1      43.594 -21.218   1.700  1.00  0.00     0.001 A 
HETATM   15  H   UNL     1      45.455 -19.854   5.977  1.00  0.00     0.165 HD
HETATM   16  C   UNL     1      44.181 -18.325   5.252  1.00  0.00     0.102 A 
ENDBRANCH   6   7
ENDBRANCH   2   5
BRANCH   1  17
HETATM   17  C   UNL     1      39.305 -14.607   1.907  1.00  0.00     0.280 C 
BRANCH  17  18
HETATM   18  O   UNL     1      40.047 -13.394   1.789  1.00  0.00    -0.342 OA
BRANCH  18  19
HETATM   19  C   UNL     1      40.160 -12.696   2.966  1.00  0.00     0.075 A 
HETATM   20  C   UNL     1      41.437 -12.603   3.539  1.00  0.00    -0.029 A 
HETATM   21  C   UNL     1      42.640 -13.230   2.890  1.00  0.00     0.051 C 
HETATM   22  C   UNL     1      41.602 -11.871   4.726  1.00  0.00     0.009 A 
HETATM   23  C   UNL     1      40.512 -11.250   5.336  1.00  0.00     0.001 A 
HETATM   24  C   UNL     1      39.249 -11.339   4.757  1.00  0.00     0.003 A 
HETATM   25  C   UNL     1      39.074 -12.051   3.570  1.00  0.00     0.037 A 
ENDBRANCH  18  19
ENDBRANCH  17  18
ENDBRANCH   1  17
TORSDOF 5
ENDMDL
MODEL 10
REMARK VINA RESULT:      -7.4      1.670      2.621
REMARK  5 active torsions:
REMARK  status: ('A' for Active; 'I' for Inactive)
REMARK    1  A    between atoms: C_3  and  O_4 
REMARK    2  A    between atoms: O_4  and  C_5 
REMARK    3  A    between atoms: C_5  and  C_6 
REMARK       I    between atoms: C_6  and  N_7 
REMARK    4  A    between atoms: N_7  and  N_8 
REMARK    5  A    between atoms: C_9  and  C_10 
ROOT
HETATM    1  C   UNL     1      42.403 -12.635   6.626  1.00  0.00     0.261 C 
HETATM    2  N   UNL     1      43.563 -13.367   6.852  1.00  0.00    -0.246 N 
HETATM    3  O   UNL     1      41.539 -12.880   5.787  1.00  0.00    -0.269 OA
HETATM    4  H   UNL     1      44.078 -13.153   7.705  1.00  0.00     0.192 HD
ENDROOT
BRANCH   2   5
HETATM    5  N   UNL     1      43.948 -14.538   6.244  1.00  0.00    -0.184 NA
HETATM    6  C   UNL     1      43.617 -15.672   6.773  1.00  0.00     0.152 C 
BRANCH   6   7
HETATM    7  C   UNL     1      44.048 -16.907   6.145  1.00  0.00     0.011 A 
HETATM    8  C   UNL     1      43.615 -17.420   4.879  1.00  0.00     0.004 A 
HETATM    9  C   UNL     1      44.288 -18.625   4.665  1.00  0.00     0.043 A 
HETATM   10  C   UNL     1      42.704 -16.977   3.897  1.00  0.00     0.014 A 
HETATM   11  C   UNL     1      44.099 -19.404   3.516  1.00  0.00     0.030 A 
HETATM   12  N   UNL     1      45.098 -18.836   5.756  1.00  0.00    -0.364 N 
HETATM   13  C   UNL     1      43.190 -18.941   2.560  1.00  0.00     0.002 A 
HETATM   14  C   UNL     1      42.500 -17.746   2.746  1.00  0.00     0.001 A 
HETATM   15  H   UNL     1      45.705 -19.636   5.873  1.00  0.00     0.165 HD
HETATM   16  C   UNL     1      44.958 -17.814   6.655  1.00  0.00     0.102 A 
ENDBRANCH   6   7
ENDBRANCH   2   5
BRANCH   1  17
HETATM   17  C   UNL     1      42.318 -11.382   7.494  1.00  0.00     0.280 C 
BRANCH  17  18
HETATM   18  O   UNL     1      43.444 -11.274   8.363  1.00  0.00    -0.342 OA
BRANCH  18  19
HETATM   19  C   UNL     1      43.130 -10.839   9.627  1.00  0.00     0.075 A 
HETATM   20  C   UNL     1      44.192 -10.646  10.523  1.00  0.00    -0.029 A 
HETATM   21  C   UNL     1      45.619 -10.891  10.118  1.00  0.00     0.051 C 
HETATM   22  C   UNL     1      43.917 -10.172  11.816  1.00  0.00     0.009 A 
HETATM   23  C   UNL     1      42.607  -9.905  12.212  1.00  0.00     0.001 A 
HETATM   24  C   UNL     1      41.559 -10.090  11.315  1.00  0.00     0.003 A 
HETATM   25  C   UNL     1      41.819 -10.547  10.023  1.00  0.00     0.037 A 
ENDBRANCH  18  19
ENDBRANCH  17  18
ENDBRANCH   1  17
TORSDOF 5
ENDMDL
