MODEL 1
REMARK VINA RESULT:      -8.6      0.000      0.000
REMARK  6 active torsions:
REMARK  status: ('A' for Active; 'I' for Inactive)
REMARK       I    between atoms: C_2  and  N_3 
REMARK    1  A    between atoms: N_3  and  C_4 
REMARK    2  A    between atoms: C_4  and  C_5 
REMARK    3  A    between atoms: C_4  and  C_11 
REMARK    4  A    between atoms: C_11  and  C_12 
REMARK       I    between atoms: C_12  and  N_13 
REMARK    5  A    between atoms: N_13  and  C_14 
REMARK    6  A    between atoms: C_16  and  C_17 
ROOT
HETATM    1  C   UNL     1      42.400 -16.995   0.886  1.00  0.00     0.224 C 
HETATM    2  N   UNL     1      42.507 -15.736   0.311  1.00  0.00    -0.327 N 
HETATM    3  O   UNL     1      41.359 -17.616   1.072  1.00  0.00    -0.273 OA
HETATM    4  H   UNL     1      43.435 -15.331   0.272  1.00  0.00     0.169 HD
ENDROOT
BRANCH   1   5
HETATM    5  C   UNL     1      43.756 -17.536   1.308  1.00  0.00     0.133 C 
BRANCH   5   6
HETATM    6  C   UNL     1      43.744 -18.021   2.766  1.00  0.00     0.126 C 
BRANCH   6   7
HETATM    7  N   UNL     1      42.599 -17.618   3.578  1.00  0.00    -0.352 N 
HETATM    8  C   UNL     1      42.638 -17.114   4.853  1.00  0.00     0.214 C 
HETATM    9  C   UNL     1      41.275 -16.814   5.420  1.00  0.00     0.117 C 
HETATM   10  O   UNL     1      43.664 -16.892   5.487  1.00  0.00    -0.274 OA
HETATM   11  H   UNL     1      41.691 -17.774   3.160  1.00  0.00     0.163 HD
ENDBRANCH   6   7
BRANCH   6  12
HETATM   12  C   UNL     1      44.014 -19.516   2.864  1.00  0.00    -0.035 A 
HETATM   13  C   UNL     1      44.623 -20.092   3.989  1.00  0.00     0.009 A 
HETATM   14  C   UNL     1      44.839 -21.470   4.056  1.00  0.00     0.001 A 
HETATM   15  C   UNL     1      44.439 -22.294   3.006  1.00  0.00     0.000 A 
HETATM   16  C   UNL     1      43.822 -21.741   1.887  1.00  0.00     0.001 A 
HETATM   17  C   UNL     1      43.612 -20.362   1.816  1.00  0.00     0.009 A 
ENDBRANCH   6  12
ENDBRANCH   5   6
ENDBRANCH   1   5
BRANCH   2  18
HETATM   18  C   UNL     1      41.456 -14.912  -0.146  1.00  0.00     0.035 A 
HETATM   19  C   UNL     1      40.687 -15.185  -1.281  1.00  0.00     0.042 A 
HETATM   20  C   UNL     1      39.646 -14.328  -1.677  1.00  0.00    -0.021 A 
HETATM   21  C   UNL     1      39.371 -13.194  -0.905  1.00  0.00     0.012 A 
HETATM   22  C   UNL     1      40.138 -12.908   0.225  1.00  0.00     0.003 A 
HETATM   23  C   UNL     1      41.180 -13.758   0.596  1.00  0.00     0.029 A 
BRANCH  20  24
HETATM   24  C   UNL     1      38.861 -14.607  -2.868  1.00  0.00     0.010 A 
HETATM   25  C   UNL     1      38.860 -15.720  -3.741  1.00  0.00     0.152 A 
HETATM   26  N   UNL     1      37.962 -15.608  -4.723  1.00  0.00    -0.187 NA
HETATM   27  N   UNL     1      37.382 -14.420  -4.484  1.00  0.00    -0.289 N 
HETATM   28  H   UNL     1      36.648 -14.107  -5.109  1.00  0.00     0.188 HD
HETATM   29  C   UNL     1      37.881 -13.785  -3.384  1.00  0.00     0.123 A 
ENDBRANCH  20  24
ENDBRANCH   2  18
TORSDOF 6
ENDMDL
MODEL 2
REMARK VINA RESULT:      -8.4      2.315      3.115
REMARK  6 active torsions:
REMARK  status: ('A' for Active; 'I' for Inactive)
REMARK       I    between atoms: C_2  and  N_3 
REMARK    1  A    between atoms: N_3  and  C_4 
REMARK    2  A    between atoms: C_4  and  C_5 
REMARK    3  A    between atoms: C_4  and  C_11 
REMARK    4  A    between atoms: C_11  and  C_12 
REMARK       I    between atoms: C_12  and  N_13 
REMARK    5  A    between atoms: N_13  and  C_14 
REMARK    6  A    between atoms: C_16  and  C_17 
ROOT
HETATM    1  C   UNL     1      41.102 -16.244   3.652  1.00  0.00     0.224 C 
HETATM    2  N   UNL     1      40.227 -16.444   2.594  1.00  0.00    -0.327 N 
HETATM    3  O   UNL     1      41.718 -15.212   3.894  1.00  0.00    -0.273 OA
HETATM    4  H   UNL     1      39.833 -17.372   2.498  1.00  0.00     0.169 HD
ENDROOT
BRANCH   1   5
HETATM    5  C   UNL     1      41.252 -17.497   4.501  1.00  0.00     0.133 C 
BRANCH   5   6
HETATM    6  C   UNL     1      42.716 -17.744   4.894  1.00  0.00     0.126 C 
BRANCH   6   7
HETATM    7  N   UNL     1      42.993 -17.893   6.320  1.00  0.00    -0.352 N 
HETATM    8  C   UNL     1      43.288 -16.887   7.204  1.00  0.00     0.214 C 
HETATM    9  C   UNL     1      43.539 -17.377   8.606  1.00  0.00     0.117 C 
HETATM   10  O   UNL     1      43.325 -15.694   6.922  1.00  0.00    -0.274 OA
HETATM   11  H   UNL     1      43.007 -18.843   6.665  1.00  0.00     0.163 HD
ENDBRANCH   6   7
BRANCH   6  12
HETATM   12  C   UNL     1      43.337 -18.866   4.073  1.00  0.00    -0.035 A 
HETATM   13  C   UNL     1      43.017 -19.068   2.723  1.00  0.00     0.009 A 
HETATM   14  C   UNL     1      43.619 -20.095   1.992  1.00  0.00     0.001 A 
HETATM   15  C   UNL     1      44.560 -20.926   2.596  1.00  0.00     0.000 A 
HETATM   16  C   UNL     1      44.899 -20.732   3.932  1.00  0.00     0.001 A 
HETATM   17  C   UNL     1      44.293 -19.711   4.666  1.00  0.00     0.009 A 
ENDBRANCH   6  12
ENDBRANCH   5   6
ENDBRANCH   1   5
BRANCH   2  18
HETATM   18  C   UNL     1      39.890 -15.525   1.577  1.00  0.00     0.035 A 
HETATM   19  C   UNL     1      40.738 -15.187   0.519  1.00  0.00     0.042 A 
HETATM   20  C   UNL     1      40.337 -14.271  -0.469  1.00  0.00    -0.021 A 
HETATM   21  C   UNL     1      39.059 -13.707  -0.394  1.00  0.00     0.012 A 
HETATM   22  C   UNL     1      38.208 -14.032   0.663  1.00  0.00     0.003 A 
HETATM   23  C   UNL     1      38.626 -14.928   1.647  1.00  0.00     0.029 A 
BRANCH  20  24
HETATM   24  C   UNL     1      41.230 -13.909  -1.558  1.00  0.00     0.010 A 
HETATM   25  C   UNL     1      42.189 -12.876  -1.670  1.00  0.00     0.152 A 
HETATM   26  N   UNL     1      42.833 -12.890  -2.841  1.00  0.00    -0.187 NA
HETATM   27  N   UNL     1      42.286 -13.933  -3.486  1.00  0.00    -0.289 N 
HETATM   28  H   UNL     1      42.620 -14.152  -4.418  1.00  0.00     0.188 HD
HETATM   29  C   UNL     1      41.327 -14.578  -2.762  1.00  0.00     0.123 A 
ENDBRANCH  20  24
ENDBRANCH   2  18
TORSDOF 6
ENDMDL
MODEL 3
REMARK VINA RESULT:      -8.3      2.012      2.999
REMARK  6 active torsions:
REMARK  status: ('A' for Active; 'I' for Inactive)
REMARK       I    between atoms: C_2  and  N_3 
REMARK    1  A    between atoms: N_3  and  C_4 
REMARK    2  A    between atoms: C_4  and  C_5 
REMARK    3  A    between atoms: C_4  and  C_11 
REMARK    4  A    between atoms: C_11  and  C_12 
REMARK       I    between atoms: C_12  and  N_13 
REMARK    5  A    between atoms: N_13  and  C_14 
REMARK    6  A    between atoms: C_16  and  C_17 
ROOT
HETATM    1  C   UNL     1      42.284 -17.106   0.825  1.00  0.00     0.224 C 
HETATM    2  N   UNL     1      42.311 -15.896   0.146  1.00  0.00    -0.327 N 
HETATM    3  O   UNL     1      41.286 -17.780   1.058  1.00  0.00    -0.273 OA
HETATM    4  H   UNL     1      43.210 -15.433   0.078  1.00  0.00     0.169 HD
ENDROOT
BRANCH   1   5
HETATM    5  C   UNL     1      43.669 -17.515   1.299  1.00  0.00     0.133 C 
BRANCH   5   6
HETATM    6  C   UNL     1      43.651 -17.992   2.760  1.00  0.00     0.126 C 
BRANCH   6   7
HETATM    7  N   UNL     1      42.505 -17.581   3.566  1.00  0.00    -0.352 N 
HETATM    8  C   UNL     1      42.546 -17.022   4.818  1.00  0.00     0.214 C 
HETATM    9  C   UNL     1      41.182 -16.728   5.386  1.00  0.00     0.117 C 
HETATM   10  O   UNL     1      43.572 -16.751   5.431  1.00  0.00    -0.274 OA
HETATM   11  H   UNL     1      41.597 -17.775   3.165  1.00  0.00     0.163 HD
ENDBRANCH   6   7
BRANCH   6  12
HETATM   12  C   UNL     1      43.914 -19.488   2.866  1.00  0.00    -0.035 A 
HETATM   13  C   UNL     1      43.584 -20.379   1.834  1.00  0.00     0.009 A 
HETATM   14  C   UNL     1      43.857 -21.744   1.955  1.00  0.00     0.001 A 
HETATM   15  C   UNL     1      44.476 -22.236   3.101  1.00  0.00     0.000 A 
HETATM   16  C   UNL     1      44.822 -21.364   4.131  1.00  0.00     0.001 A 
HETATM   17  C   UNL     1      44.543 -20.001   4.015  1.00  0.00     0.009 A 
ENDBRANCH   6  12
ENDBRANCH   5   6
ENDBRANCH   1   5
BRANCH   2  18
HETATM   18  C   UNL     1      41.212 -15.188  -0.384  1.00  0.00     0.035 A 
HETATM   19  C   UNL     1      40.404 -14.327   0.364  1.00  0.00     0.042 A 
HETATM   20  C   UNL     1      39.329 -13.642  -0.229  1.00  0.00    -0.021 A 
HETATM   21  C   UNL     1      39.083 -13.816  -1.595  1.00  0.00     0.012 A 
HETATM   22  C   UNL     1      39.880 -14.679  -2.349  1.00  0.00     0.003 A 
HETATM   23  C   UNL     1      40.932 -15.367  -1.744  1.00  0.00     0.029 A 
BRANCH  20  24
HETATM   24  C   UNL     1      38.480 -12.762   0.557  1.00  0.00     0.010 A 
HETATM   25  C   UNL     1      37.307 -12.051   0.214  1.00  0.00     0.152 A 
HETATM   26  N   UNL     1      36.800 -11.359   1.239  1.00  0.00    -0.187 NA
HETATM   27  N   UNL     1      37.649 -11.624   2.245  1.00  0.00    -0.289 N 
HETATM   28  H   UNL     1      37.469 -11.204   3.150  1.00  0.00     0.188 HD
HETATM   29  C   UNL     1      38.667 -12.460   1.891  1.00  0.00     0.123 A 
ENDBRANCH  20  24
ENDBRANCH   2  18
TORSDOF 6
ENDMDL
MODEL 4
REMARK VINA RESULT:      -8.2      1.549      1.968
REMARK  6 active torsions:
REMARK  status: ('A' for Active; 'I' for Inactive)
REMARK       I    between atoms: C_2  and  N_3 
REMARK    1  A    between atoms: N_3  and  C_4 
REMARK    2  A    between atoms: C_4  and  C_5 
REMARK    3  A    between atoms: C_4  and  C_11 
REMARK    4  A    between atoms: C_11  and  C_12 
REMARK       I    between atoms: C_12  and  N_13 
REMARK    5  A    between atoms: N_13  and  C_14 
REMARK    6  A    between atoms: C_16  and  C_17 
ROOT
HETATM    1  C   UNL     1      42.968 -16.077   1.945  1.00  0.00     0.224 C 
HETATM    2  N   UNL     1      41.893 -16.390   1.125  1.00  0.00    -0.327 N 
HETATM    3  O   UNL     1      43.142 -15.015   2.532  1.00  0.00    -0.273 OA
HETATM    4  H   UNL     1      41.917 -17.293   0.667  1.00  0.00     0.169 HD
ENDROOT
BRANCH   1   5
HETATM    5  C   UNL     1      43.967 -17.221   2.020  1.00  0.00     0.133 C 
BRANCH   5   6
HETATM    6  C   UNL     1      43.858 -17.982   3.350  1.00  0.00     0.126 C 
BRANCH   6   7
HETATM    7  N   UNL     1      42.708 -17.664   4.192  1.00  0.00    -0.352 N 
HETATM    8  C   UNL     1      42.743 -17.178   5.474  1.00  0.00     0.214 C 
HETATM    9  C   UNL     1      41.377 -16.972   6.074  1.00  0.00     0.117 C 
HETATM   10  O   UNL     1      43.767 -16.903   6.091  1.00  0.00    -0.274 OA
HETATM   11  H   UNL     1      41.803 -17.870   3.790  1.00  0.00     0.163 HD
ENDBRANCH   6   7
BRANCH   6  12
HETATM   12  C   UNL     1      44.023 -19.483   3.155  1.00  0.00    -0.035 A 
HETATM   13  C   UNL     1      43.628 -20.130   1.974  1.00  0.00     0.009 A 
HETATM   14  C   UNL     1      43.811 -21.505   1.818  1.00  0.00     0.001 A 
HETATM   15  C   UNL     1      44.404 -22.253   2.833  1.00  0.00     0.000 A 
HETATM   16  C   UNL     1      44.813 -21.625   4.007  1.00  0.00     0.001 A 
HETATM   17  C   UNL     1      44.624 -20.252   4.168  1.00  0.00     0.009 A 
ENDBRANCH   6  12
ENDBRANCH   5   6
ENDBRANCH   1   5
BRANCH   2  18
HETATM   18  C   UNL     1      40.808 -15.554   0.780  1.00  0.00     0.035 A 
HETATM   19  C   UNL     1      40.707 -14.868  -0.433  1.00  0.00     0.042 A 
HETATM   20  C   UNL     1      39.593 -14.059  -0.719  1.00  0.00    -0.021 A 
HETATM   21  C   UNL     1      38.565 -13.961   0.225  1.00  0.00     0.012 A 
HETATM   22  C   UNL     1      38.660 -14.636   1.442  1.00  0.00     0.003 A 
HETATM   23  C   UNL     1      39.780 -15.421   1.721  1.00  0.00     0.029 A 
BRANCH  20  24
HETATM   24  C   UNL     1      39.501 -13.333  -1.975  1.00  0.00     0.010 A 
HETATM   25  C   UNL     1      40.472 -12.607  -2.703  1.00  0.00     0.152 A 
HETATM   26  N   UNL     1      39.993 -12.096  -3.840  1.00  0.00    -0.187 NA
HETATM   27  N   UNL     1      38.710 -12.492  -3.846  1.00  0.00    -0.289 N 
HETATM   28  H   UNL     1      38.125 -12.221  -4.629  1.00  0.00     0.188 HD
HETATM   29  C   UNL     1      38.367 -13.237  -2.756  1.00  0.00     0.123 A 
ENDBRANCH  20  24
ENDBRANCH   2  18
TORSDOF 6
ENDMDL
MODEL 5
REMARK VINA RESULT:      -8.1      2.751      8.687
REMARK  6 active torsions:
REMARK  status: ('A' for Active; 'I' for Inactive)
REMARK       I    between atoms: C_2  and  N_3 
REMARK    1  A    between atoms: N_3  and  C_4 
REMARK    2  A    between atoms: C_4  and  C_5 
REMARK    3  A    between atoms: C_4  and  C_11 
REMARK    4  A    between atoms: C_11  and  C_12 
REMARK       I    between atoms: C_12  and  N_13 
REMARK    5  A    between atoms: N_13  and  C_14 
REMARK    6  A    between atoms: C_16  and  C_17 
ROOT
HETATM    1  C   UNL     1      42.577 -16.998   1.370  1.00  0.00     0.224 C 
HETATM    2  N   UNL     1      42.490 -18.255   1.952  1.00  0.00    -0.327 N 
HETATM    3  O   UNL     1      43.343 -16.101   1.704  1.00  0.00    -0.273 OA
HETATM    4  H   UNL     1      41.768 -18.872   1.597  1.00  0.00     0.169 HD
ENDROOT
BRANCH   1   5
HETATM    5  C   UNL     1      41.561 -16.827   0.252  1.00  0.00     0.133 C 
BRANCH   5   6
HETATM    6  C   UNL     1      40.866 -15.458   0.322  1.00  0.00     0.126 C 
BRANCH   6   7
HETATM    7  N   UNL     1      40.879 -14.786   1.618  1.00  0.00    -0.352 N 
HETATM    8  C   UNL     1      39.784 -14.434   2.366  1.00  0.00     0.214 C 
HETATM    9  C   UNL     1      40.138 -13.735   3.653  1.00  0.00     0.117 C 
HETATM   10  O   UNL     1      38.620 -14.672   2.060  1.00  0.00    -0.274 OA
HETATM   11  H   UNL     1      41.791 -14.523   1.965  1.00  0.00     0.163 HD
ENDBRANCH   6   7
BRANCH   6  12
HETATM   12  C   UNL     1      41.323 -14.537  -0.801  1.00  0.00    -0.035 A 
HETATM   13  C   UNL     1      41.946 -13.306  -0.550  1.00  0.00     0.009 A 
HETATM   14  C   UNL     1      42.371 -12.493  -1.604  1.00  0.00     0.001 A 
HETATM   15  C   UNL     1      42.191 -12.904  -2.922  1.00  0.00     0.000 A 
HETATM   16  C   UNL     1      41.585 -14.129  -3.190  1.00  0.00     0.001 A 
HETATM   17  C   UNL     1      41.153 -14.939  -2.138  1.00  0.00     0.009 A 
ENDBRANCH   6  12
ENDBRANCH   5   6
ENDBRANCH   1   5
BRANCH   2  18
HETATM   18  C   UNL     1      43.234 -18.745   3.047  1.00  0.00     0.035 A 
HETATM   19  C   UNL     1      43.133 -18.241   4.346  1.00  0.00     0.042 A 
HETATM   20  C   UNL     1      43.895 -18.781   5.396  1.00  0.00    -0.021 A 
HETATM   21  C   UNL     1      44.754 -19.853   5.130  1.00  0.00     0.012 A 
HETATM   22  C   UNL     1      44.868 -20.359   3.834  1.00  0.00     0.003 A 
HETATM   23  C   UNL     1      44.119 -19.801   2.798  1.00  0.00     0.029 A 
BRANCH  20  24
HETATM   24  C   UNL     1      43.800 -18.242   6.743  1.00  0.00     0.010 A 
HETATM   25  C   UNL     1      43.478 -16.944   7.204  1.00  0.00     0.152 A 
HETATM   26  N   UNL     1      43.473 -16.853   8.537  1.00  0.00    -0.187 NA
HETATM   27  N   UNL     1      43.794 -18.095   8.936  1.00  0.00    -0.289 N 
HETATM   28  H   UNL     1      43.853 -18.281   9.932  1.00  0.00     0.188 HD
HETATM   29  C   UNL     1      43.995 -18.963   7.903  1.00  0.00     0.123 A 
ENDBRANCH  20  24
ENDBRANCH   2  18
TORSDOF 6
ENDMDL
MODEL 6
REMARK VINA RESULT:      -7.9      2.651      3.724
REMARK  6 active torsions:
REMARK  status: ('A' for Active; 'I' for Inactive)
REMARK       I    between atoms: C_2  and  N_3 
REMARK    1  A    between atoms: N_3  and  C_4 
REMARK    2  A    between atoms: C_4  and  C_5 
REMARK    3  A    between atoms: C_4  and  C_11 
REMARK    4  A    between atoms: C_11  and  C_12 
REMARK       I    between atoms: C_12  and  N_13 
REMARK    5  A    between atoms: N_13  and  C_14 
REMARK    6  A    between atoms: C_16  and  C_17 
ROOT
HETATM    1  C   UNL     1      40.836 -16.311   0.754  1.00  0.00     0.224 C 
HETATM    2  N   UNL     1      41.316 -16.251  -0.546  1.00  0.00    -0.327 N 
HETATM    3  O   UNL     1      40.222 -15.425   1.338  1.00  0.00    -0.273 OA
HETATM    4  H   UNL     1      41.853 -17.047  -0.871  1.00  0.00     0.169 HD
ENDROOT
BRANCH   1   5
HETATM    5  C   UNL     1      41.191 -17.630   1.423  1.00  0.00     0.133 C 
BRANCH   5   6
HETATM    6  C   UNL     1      42.056 -17.416   2.675  1.00  0.00     0.126 C 
BRANCH   6   7
HETATM    7  N   UNL     1      41.358 -16.987   3.883  1.00  0.00    -0.352 N 
HETATM    8  C   UNL     1      41.500 -15.782   4.525  1.00  0.00     0.214 C 
HETATM    9  C   UNL     1      40.647 -15.658   5.760  1.00  0.00     0.117 C 
HETATM   10  O   UNL     1      42.220 -14.866   4.143  1.00  0.00    -0.274 OA
HETATM   11  H   UNL     1      40.746 -17.674   4.302  1.00  0.00     0.163 HD
ENDBRANCH   6   7
BRANCH   6  12
HETATM   12  C   UNL     1      42.970 -18.605   2.937  1.00  0.00    -0.035 A 
HETATM   13  C   UNL     1      43.174 -19.614   1.984  1.00  0.00     0.009 A 
HETATM   14  C   UNL     1      44.034 -20.682   2.248  1.00  0.00     0.001 A 
HETATM   15  C   UNL     1      44.714 -20.751   3.461  1.00  0.00     0.000 A 
HETATM   16  C   UNL     1      44.533 -19.752   4.414  1.00  0.00     0.001 A 
HETATM   17  C   UNL     1      43.668 -18.687   4.155  1.00  0.00     0.009 A 
ENDBRANCH   6  12
ENDBRANCH   5   6
ENDBRANCH   1   5
BRANCH   2  18
HETATM   18  C   UNL     1      41.223 -15.165  -1.443  1.00  0.00     0.035 A 
HETATM   19  C   UNL     1      41.833 -13.925  -1.235  1.00  0.00     0.042 A 
HETATM   20  C   UNL     1      41.709 -12.888  -2.174  1.00  0.00    -0.021 A 
HETATM   21  C   UNL     1      40.976 -13.115  -3.344  1.00  0.00     0.012 A 
HETATM   22  C   UNL     1      40.357 -14.346  -3.559  1.00  0.00     0.003 A 
HETATM   23  C   UNL     1      40.472 -15.362  -2.609  1.00  0.00     0.029 A 
BRANCH  20  24
HETATM   24  C   UNL     1      42.331 -11.594  -1.944  1.00  0.00     0.010 A 
HETATM   25  C   UNL     1      42.824 -10.997  -0.760  1.00  0.00     0.152 A 
HETATM   26  N   UNL     1      43.351  -9.787  -0.970  1.00  0.00    -0.187 NA
HETATM   27  N   UNL     1      43.196  -9.603  -2.291  1.00  0.00    -0.289 N 
HETATM   28  H   UNL     1      43.529  -8.736  -2.699  1.00  0.00     0.188 HD
HETATM   29  C   UNL     1      42.596 -10.654  -2.920  1.00  0.00     0.123 A 
ENDBRANCH  20  24
ENDBRANCH   2  18
TORSDOF 6
ENDMDL
MODEL 7
REMARK VINA RESULT:      -7.7      2.853      3.773
REMARK  6 active torsions:
REMARK  status: ('A' for Active; 'I' for Inactive)
REMARK       I    between atoms: C_2  and  N_3 
REMARK    1  A    between atoms: N_3  and  C_4 
REMARK    2  A    between atoms: C_4  and  C_5 
REMARK    3  A    between atoms: C_4  and  C_11 
REMARK    4  A    between atoms: C_11  and  C_12 
REMARK       I    between atoms: C_12  and  N_13 
REMARK    5  A    between atoms: N_13  and  C_14 
REMARK    6  A    between atoms: C_16  and  C_17 
ROOT
HETATM    1  C   UNL     1      41.101 -16.136   3.634  1.00  0.00     0.224 C 
HETATM    2  N   UNL     1      40.234 -16.251   2.556  1.00  0.00    -0.327 N 
HETATM    3  O   UNL     1      41.707 -15.124   3.966  1.00  0.00    -0.273 OA
HETATM    4  H   UNL     1      39.848 -17.172   2.379  1.00  0.00     0.169 HD
ENDROOT
BRANCH   1   5
HETATM    5  C   UNL     1      41.256 -17.456   4.373  1.00  0.00     0.133 C 
BRANCH   5   6
HETATM    6  C   UNL     1      42.710 -17.697   4.805  1.00  0.00     0.126 C 
BRANCH   6   7
HETATM    7  N   UNL     1      42.951 -17.826   6.240  1.00  0.00    -0.352 N 
HETATM    8  C   UNL     1      43.273 -16.814   7.109  1.00  0.00     0.214 C 
HETATM    9  C   UNL     1      43.475 -17.284   8.526  1.00  0.00     0.117 C 
HETATM   10  O   UNL     1      43.369 -15.631   6.802  1.00  0.00    -0.274 OA
HETATM   11  H   UNL     1      42.916 -18.768   6.605  1.00  0.00     0.163 HD
ENDBRANCH   6   7
BRANCH   6  12
HETATM   12  C   UNL     1      43.351 -18.829   4.016  1.00  0.00    -0.035 A 
HETATM   13  C   UNL     1      43.040 -19.070   2.670  1.00  0.00     0.009 A 
HETATM   14  C   UNL     1      43.660 -20.106   1.967  1.00  0.00     0.001 A 
HETATM   15  C   UNL     1      44.611 -20.907   2.595  1.00  0.00     0.000 A 
HETATM   16  C   UNL     1      44.942 -20.674   3.928  1.00  0.00     0.001 A 
HETATM   17  C   UNL     1      44.317 -19.644   4.633  1.00  0.00     0.009 A 
ENDBRANCH   6  12
ENDBRANCH   5   6
ENDBRANCH   1   5
BRANCH   2  18
HETATM   18  C   UNL     1      39.896 -15.252   1.619  1.00  0.00     0.035 A 
HETATM   19  C   UNL     1      38.965 -14.238   1.861  1.00  0.00     0.042 A 
HETATM   20  C   UNL     1      38.682 -13.264   0.888  1.00  0.00    -0.021 A 
HETATM   21  C   UNL     1      39.361 -13.309  -0.334  1.00  0.00     0.012 A 
HETATM   22  C   UNL     1      40.287 -14.321  -0.589  1.00  0.00     0.003 A 
HETATM   23  C   UNL     1      40.545 -15.292   0.379  1.00  0.00     0.029 A 
BRANCH  20  24
HETATM   24  C   UNL     1      37.700 -12.222   1.138  1.00  0.00     0.010 A 
HETATM   25  C   UNL     1      36.453 -11.953   0.527  1.00  0.00     0.152 A 
HETATM   26  N   UNL     1      35.828 -10.901   1.063  1.00  0.00    -0.187 NA
HETATM   27  N   UNL     1      36.674 -10.490   2.022  1.00  0.00    -0.289 N 
HETATM   28  H   UNL     1      36.412  -9.687   2.584  1.00  0.00     0.188 HD
HETATM   29  C   UNL     1      37.805 -11.248   2.110  1.00  0.00     0.123 A 
ENDBRANCH  20  24
ENDBRANCH   2  18
TORSDOF 6
ENDMDL
MODEL 8
REMARK VINA RESULT:      -7.7      4.010      6.541
REMARK  6 active torsions:
REMARK  status: ('A' for Active; 'I' for Inactive)
REMARK       I    between atoms: C_2  and  N_3 
REMARK    1  A    between atoms: N_3  and  C_4 
REMARK    2  A    between atoms: C_4  and  C_5 
REMARK    3  A    between atoms: C_4  and  C_11 
REMARK    4  A    between atoms: C_11  and  C_12 
REMARK       I    between atoms: C_12  and  N_13 
REMARK    5  A    between atoms: N_13  and  C_14 
REMARK    6  A    between atoms: C_16  and  C_17 
ROOT
HETATM    1  C   UNL     1      42.818 -15.545   4.044  1.00  0.00     0.224 C 
HETATM    2  N   UNL     1      41.549 -15.392   4.584  1.00  0.00    -0.327 N 
HETATM    3  O   UNL     1      43.486 -14.666   3.511  1.00  0.00    -0.273 OA
HETATM    4  H   UNL     1      41.104 -16.229   4.943  1.00  0.00     0.169 HD
ENDROOT
BRANCH   1   5
HETATM    5  C   UNL     1      43.306 -16.981   4.155  1.00  0.00     0.133 C 
BRANCH   5   6
HETATM    6  C   UNL     1      42.666 -17.882   3.087  1.00  0.00     0.126 C 
BRANCH   6   7
HETATM    7  N   UNL     1      42.454 -17.284   1.772  1.00  0.00    -0.352 N 
HETATM    8  C   UNL     1      41.258 -16.856   1.253  1.00  0.00     0.214 C 
HETATM    9  C   UNL     1      41.377 -16.302  -0.143  1.00  0.00     0.117 C 
HETATM   10  O   UNL     1      40.186 -16.883   1.847  1.00  0.00    -0.274 OA
HETATM   11  H   UNL     1      43.272 -17.227   1.181  1.00  0.00     0.163 HD
ENDBRANCH   6   7
BRANCH   6  12
HETATM   12  C   UNL     1      43.368 -19.229   2.994  1.00  0.00    -0.035 A 
HETATM   13  C   UNL     1      44.229 -19.694   4.000  1.00  0.00     0.009 A 
HETATM   14  C   UNL     1      44.842 -20.944   3.893  1.00  0.00     0.001 A 
HETATM   15  C   UNL     1      44.595 -21.754   2.787  1.00  0.00     0.000 A 
HETATM   16  C   UNL     1      43.734 -21.314   1.785  1.00  0.00     0.001 A 
HETATM   17  C   UNL     1      43.126 -20.061   1.887  1.00  0.00     0.009 A 
ENDBRANCH   6  12
ENDBRANCH   5   6
ENDBRANCH   1   5
BRANCH   2  18
HETATM   18  C   UNL     1      40.764 -14.219   4.607  1.00  0.00     0.035 A 
HETATM   19  C   UNL     1      40.588 -13.421   5.741  1.00  0.00     0.042 A 
HETATM   20  C   UNL     1      39.801 -12.257   5.694  1.00  0.00    -0.021 A 
HETATM   21  C   UNL     1      39.204 -11.889   4.483  1.00  0.00     0.012 A 
HETATM   22  C   UNL     1      39.368 -12.683   3.348  1.00  0.00     0.003 A 
HETATM   23  C   UNL     1      40.136 -13.846   3.413  1.00  0.00     0.029 A 
BRANCH  20  24
HETATM   24  C   UNL     1      39.606 -11.440   6.881  1.00  0.00     0.010 A 
HETATM   25  C   UNL     1      39.279 -11.795   8.210  1.00  0.00     0.152 A 
HETATM   26  N   UNL     1      39.211 -10.740   9.027  1.00  0.00    -0.187 NA
HETATM   27  N   UNL     1      39.493  -9.703   8.222  1.00  0.00    -0.289 N 
HETATM   28  H   UNL     1      39.505  -8.771   8.623  1.00  0.00     0.188 HD
HETATM   29  C   UNL     1      39.741 -10.068   6.932  1.00  0.00     0.123 A 
ENDBRANCH  20  24
ENDBRANCH   2  18
TORSDOF 6
ENDMDL
MODEL 9
REMARK VINA RESULT:      -7.7      3.795      5.810
REMARK  6 active torsions:
REMARK  status: ('A' for Active; 'I' for Inactive)
REMARK       I    between atoms: C_2  and  N_3 
REMARK    1  A    between atoms: N_3  and  C_4 
REMARK    2  A    between atoms: C_4  and  C_5 
REMARK    3  A    between atoms: C_4  and  C_11 
REMARK    4  A    between atoms: C_11  and  C_12 
REMARK       I    between atoms: C_12  and  N_13 
REMARK    5  A    between atoms: N_13  and  C_14 
REMARK    6  A    between atoms: C_16  and  C_17 
ROOT
HETATM    1  C   UNL     1      41.772 -16.056   3.003  1.00  0.00     0.224 C 
HETATM    2  N   UNL     1      40.476 -15.710   3.360  1.00  0.00    -0.327 N 
HETATM    3  O   UNL     1      42.684 -15.276   2.756  1.00  0.00    -0.273 OA
HETATM    4  H   UNL     1      39.819 -16.472   3.481  1.00  0.00     0.169 HD
ENDROOT
BRANCH   1   5
HETATM    5  C   UNL     1      41.945 -17.564   2.912  1.00  0.00     0.133 C 
BRANCH   5   6
HETATM    6  C   UNL     1      43.059 -18.064   3.844  1.00  0.00     0.126 C 
BRANCH   6   7
HETATM    7  N   UNL     1      42.781 -18.017   5.276  1.00  0.00    -0.352 N 
HETATM    8  C   UNL     1      43.231 -17.075   6.166  1.00  0.00     0.214 C 
HETATM    9  C   UNL     1      42.778 -17.323   7.581  1.00  0.00     0.117 C 
HETATM   10  O   UNL     1      43.913 -16.100   5.868  1.00  0.00    -0.274 OA
HETATM   11  H   UNL     1      42.237 -18.787   5.641  1.00  0.00     0.163 HD
ENDBRANCH   6   7
BRANCH   6  12
HETATM   12  C   UNL     1      43.587 -19.425   3.410  1.00  0.00    -0.035 A 
HETATM   13  C   UNL     1      44.396 -20.211   4.242  1.00  0.00     0.009 A 
HETATM   14  C   UNL     1      44.848 -21.464   3.822  1.00  0.00     0.001 A 
HETATM   15  C   UNL     1      44.486 -21.956   2.570  1.00  0.00     0.000 A 
HETATM   16  C   UNL     1      43.673 -21.194   1.735  1.00  0.00     0.001 A 
HETATM   17  C   UNL     1      43.227 -19.938   2.151  1.00  0.00     0.009 A 
ENDBRANCH   6  12
ENDBRANCH   5   6
ENDBRANCH   1   5
BRANCH   2  18
HETATM   18  C   UNL     1      39.942 -14.410   3.486  1.00  0.00     0.035 A 
HETATM   19  C   UNL     1      39.940 -13.679   4.678  1.00  0.00     0.042 A 
HETATM   20  C   UNL     1      39.400 -12.382   4.733  1.00  0.00    -0.021 A 
HETATM   21  C   UNL     1      38.875 -11.815   3.567  1.00  0.00     0.012 A 
HETATM   22  C   UNL     1      38.866 -12.539   2.375  1.00  0.00     0.003 A 
HETATM   23  C   UNL     1      39.388 -13.832   2.338  1.00  0.00     0.029 A 
BRANCH  20  24
HETATM   24  C   UNL     1      39.385 -11.633   5.979  1.00  0.00     0.010 A 
HETATM   25  C   UNL     1      39.303 -10.243   6.227  1.00  0.00     0.152 A 
HETATM   26  N   UNL     1      39.293  -9.949   7.530  1.00  0.00    -0.187 NA
HETATM   27  N   UNL     1      39.371 -11.150   8.124  1.00  0.00    -0.289 N 
HETATM   28  H   UNL     1      39.378 -11.188   9.137  1.00  0.00     0.188 HD
HETATM   29  C   UNL     1      39.424 -12.190   7.241  1.00  0.00     0.123 A 
ENDBRANCH  20  24
ENDBRANCH   2  18
TORSDOF 6
ENDMDL
MODEL 10
REMARK VINA RESULT:      -7.6      2.649      8.513
REMARK  6 active torsions:
REMARK  status: ('A' for Active; 'I' for Inactive)
REMARK       I    between atoms: C_2  and  N_3 
REMARK    1  A    between atoms: N_3  and  C_4 
REMARK    2  A    between atoms: C_4  and  C_5 
REMARK    3  A    between atoms: C_4  and  C_11 
REMARK    4  A    between atoms: C_11  and  C_12 
REMARK       I    between atoms: C_12  and  N_13 
REMARK    5  A    between atoms: N_13  and  C_14 
REMARK    6  A    between atoms: C_16  and  C_17 
ROOT
HETATM    1  C   UNL     1      41.861 -15.580   1.914  1.00  0.00     0.224 C 
HETATM    2  N   UNL     1      43.082 -15.846   2.517  1.00  0.00    -0.327 N 
HETATM    3  O   UNL     1      40.830 -16.229   2.055  1.00  0.00    -0.273 OA
HETATM    4  H   UNL     1      43.857 -15.247   2.259  1.00  0.00     0.169 HD
ENDROOT
BRANCH   1   5
HETATM    5  C   UNL     1      41.941 -14.371   0.996  1.00  0.00     0.133 C 
BRANCH   5   6
HETATM    6  C   UNL     1      41.107 -14.571  -0.280  1.00  0.00     0.126 C 
BRANCH   6   7
HETATM    7  N   UNL     1      39.657 -14.609  -0.112  1.00  0.00    -0.352 N 
HETATM    8  C   UNL     1      38.886 -13.680   0.541  1.00  0.00     0.214 C 
HETATM    9  C   UNL     1      37.419 -14.022   0.552  1.00  0.00     0.117 C 
HETATM   10  O   UNL     1      39.313 -12.650   1.052  1.00  0.00    -0.274 OA
HETATM   11  H   UNL     1      39.195 -15.429  -0.481  1.00  0.00     0.163 HD
ENDBRANCH   6   7
BRANCH   6  12
HETATM   12  C   UNL     1      41.528 -13.611  -1.383  1.00  0.00    -0.035 A 
HETATM   13  C   UNL     1      41.100 -13.764  -2.710  1.00  0.00     0.009 A 
HETATM   14  C   UNL     1      41.488 -12.854  -3.695  1.00  0.00     0.001 A 
HETATM   15  C   UNL     1      42.299 -11.770  -3.368  1.00  0.00     0.000 A 
HETATM   16  C   UNL     1      42.723 -11.595  -2.053  1.00  0.00     0.001 A 
HETATM   17  C   UNL     1      42.342 -12.508  -1.068  1.00  0.00     0.009 A 
ENDBRANCH   6  12
ENDBRANCH   5   6
ENDBRANCH   1   5
BRANCH   2  18
HETATM   18  C   UNL     1      43.393 -16.916   3.383  1.00  0.00     0.035 A 
HETATM   19  C   UNL     1      43.669 -18.216   2.950  1.00  0.00     0.042 A 
HETATM   20  C   UNL     1      43.983 -19.235   3.865  1.00  0.00    -0.021 A 
HETATM   21  C   UNL     1      44.036 -18.930   5.230  1.00  0.00     0.012 A 
HETATM   22  C   UNL     1      43.755 -17.638   5.673  1.00  0.00     0.003 A 
HETATM   23  C   UNL     1      43.427 -16.639   4.755  1.00  0.00     0.029 A 
BRANCH  20  24
HETATM   24  C   UNL     1      44.251 -20.590   3.411  1.00  0.00     0.010 A 
HETATM   25  C   UNL     1      44.167 -21.173   2.125  1.00  0.00     0.152 A 
HETATM   26  N   UNL     1      44.524 -22.460   2.114  1.00  0.00    -0.187 NA
HETATM   27  N   UNL     1      44.838 -22.709   3.396  1.00  0.00    -0.289 N 
HETATM   28  H   UNL     1      45.148 -23.642   3.645  1.00  0.00     0.188 HD
HETATM   29  C   UNL     1      44.696 -21.623   4.210  1.00  0.00     0.123 A 
ENDBRANCH  20  24
ENDBRANCH   2  18
TORSDOF 6
ENDMDL
