MODEL 1
REMARK VINA RESULT:      -9.3      0.000      0.000
REMARK  9 active torsions:
REMARK  status: ('A' for Active; 'I' for Inactive)
REMARK    1  A    between atoms: O_2  and  C_3 
REMARK    2  A    between atoms: C_6  and  N_7 
REMARK    3  A    between atoms: N_10  and  C_12 
REMARK    4  A    between atoms: C_12  and  C_13 
REMARK    5  A    between atoms: C_13  and  C_14 
REMARK    6  A    between atoms: C_14  and  N_15 
REMARK       I    between atoms: N_15  and  C_16 
REMARK    7  A    between atoms: C_16  and  C_17 
REMARK    8  A    between atoms: C_17  and  C_18 
REMARK    9  A    between atoms: C_18  and  C_19 
ROOT
HETATM    1  N   UNL     1      41.191 -11.868   6.473  1.00  0.00    -0.361 N 
HETATM    2  C   UNL     1      39.938 -11.575   6.973  1.00  0.00     0.217 C 
HETATM    3  O   UNL     1      38.909 -11.752   6.325  1.00  0.00    -0.274 OA
HETATM    4  H   UNL     1      41.981 -11.479   6.984  1.00  0.00     0.162 HD
ENDROOT
BRANCH   1   5
HETATM    5  C   UNL     1      41.369 -12.201   5.076  1.00  0.00     0.124 C 
BRANCH   5   6
HETATM    6  C   UNL     1      42.499 -13.209   4.835  1.00  0.00     0.047 C 
BRANCH   6   7
HETATM    7  C   UNL     1      43.180 -13.565   6.151  1.00  0.00     0.236 C 
BRANCH   7   8
HETATM    8  N   UNL     1      42.749 -14.937   6.628  1.00  0.00    -0.068 N 
HETATM    9  C   UNL     1      41.829 -15.652   5.618  1.00  0.00     0.254 C 
HETATM   10  C   UNL     1      41.443 -17.060   6.125  1.00  0.00     0.150 C 
HETATM   11  N   UNL     1      42.635 -17.856   6.474  1.00  0.00    -0.378 N 
HETATM   12  C   UNL     1      43.507 -17.201   7.470  1.00  0.00     0.150 C 
HETATM   13  C   UNL     1      43.963 -15.818   6.959  1.00  0.00     0.254 C 
HETATM   14  H   UNL     1      42.213 -14.829   7.498  1.00  0.00     0.280 HD
BRANCH  11  15
HETATM   15  C   UNL     1      43.261 -18.666   5.521  1.00  0.00     0.030 A 
HETATM   16  C   UNL     1      44.221 -19.640   5.839  1.00  0.00     0.032 A 
HETATM   17  C   UNL     1      44.817 -20.449   4.856  1.00  0.00     0.039 A 
HETATM   18  C   UNL     1      44.483 -20.292   3.516  1.00  0.00     0.068 A 
HETATM   19  C   UNL     1      43.567 -19.306   3.172  1.00  0.00     0.039 A 
HETATM   20  C   UNL     1      42.974 -18.504   4.155  1.00  0.00     0.032 A 
BRANCH  18  21
HETATM   21  O   UNL     1      44.978 -21.010   2.467  1.00  0.00    -0.356 OA
HETATM   22  C   UNL     1      44.064 -21.834   1.754  1.00  0.00     0.210 C 
ENDBRANCH  18  21
ENDBRANCH  11  15
ENDBRANCH   7   8
ENDBRANCH   6   7
ENDBRANCH   5   6
ENDBRANCH   1   5
BRANCH   2  23
HETATM   23  C   UNL     1      39.929 -11.020   8.380  1.00  0.00     0.105 C 
BRANCH  23  24
HETATM   24  C   UNL     1      40.010  -9.495   8.439  1.00  0.00     0.046 C 
BRANCH  24  25
HETATM   25  C   UNL     1      41.239  -8.939   9.157  1.00  0.00     0.203 A 
HETATM   26  N   UNL     1      40.875  -8.499  10.528  1.00  0.00    -0.257 NA
HETATM   27  C   UNL     1      41.570  -9.277  11.307  1.00  0.00     0.147 A 
HETATM   28  N   UNL     1      42.407 -10.184  10.721  1.00  0.00    -0.239 N 
HETATM   29  C   UNL     1      41.501  -9.233  12.772  1.00  0.00     0.037 A 
HETATM   30  C   UNL     1      43.215 -11.084  11.427  1.00  0.00     0.187 A 
HETATM   31  C   UNL     1      42.283 -10.021   9.359  1.00  0.00     0.257 A 
HETATM   32  S   UNL     1      44.264 -12.220  10.791  1.00  0.00    -0.040 SA
HETATM   33  N   UNL     1      43.128 -11.018  12.801  1.00  0.00    -0.332 N 
HETATM   34  C   UNL     1      42.298 -10.126  13.485  1.00  0.00     0.048 A 
HETATM   35  H   UNL     1      43.705 -11.669  13.324  1.00  0.00     0.168 HD
HETATM   36  C   UNL     1      42.265 -10.134  14.879  1.00  0.00     0.030 A 
HETATM   37  C   UNL     1      41.426  -9.243  15.553  1.00  0.00     0.002 A 
HETATM   38  C   UNL     1      40.626  -8.350  14.837  1.00  0.00     0.001 A 
HETATM   39  C   UNL     1      40.660  -8.342  13.442  1.00  0.00     0.017 A 
HETATM   40  O   UNL     1      42.862 -10.576   8.438  1.00  0.00    -0.270 OA
ENDBRANCH  24  25
ENDBRANCH  23  24
ENDBRANCH   2  23
TORSDOF 9
ENDMDL
MODEL 2
REMARK VINA RESULT:      -9.2      2.731      9.382
REMARK  9 active torsions:
REMARK  status: ('A' for Active; 'I' for Inactive)
REMARK    1  A    between atoms: O_2  and  C_3 
REMARK    2  A    between atoms: C_6  and  N_7 
REMARK    3  A    between atoms: N_10  and  C_12 
REMARK    4  A    between atoms: C_12  and  C_13 
REMARK    5  A    between atoms: C_13  and  C_14 
REMARK    6  A    between atoms: C_14  and  N_15 
REMARK       I    between atoms: N_15  and  C_16 
REMARK    7  A    between atoms: C_16  and  C_17 
REMARK    8  A    between atoms: C_17  and  C_18 
REMARK    9  A    between atoms: C_18  and  C_19 
ROOT
HETATM    1  N   UNL     1      43.695 -12.185   9.762  1.00  0.00    -0.361 N 
HETATM    2  C   UNL     1      44.758 -12.583   8.976  1.00  0.00     0.217 C 
HETATM    3  O   UNL     1      45.894 -12.720   9.422  1.00  0.00    -0.274 OA
HETATM    4  H   UNL     1      42.859 -11.880   9.266  1.00  0.00     0.162 HD
ENDROOT
BRANCH   1   5
HETATM    5  C   UNL     1      43.911 -11.704  11.109  1.00  0.00     0.124 C 
BRANCH   5   6
HETATM    6  C   UNL     1      42.611 -11.344  11.838  1.00  0.00     0.047 C 
BRANCH   6   7
HETATM    7  C   UNL     1      42.282  -9.870  11.636  1.00  0.00     0.236 C 
BRANCH   7   8
HETATM    8  N   UNL     1      41.093  -9.704  10.712  1.00  0.00    -0.068 N 
HETATM    9  C   UNL     1      41.457  -8.974   9.403  1.00  0.00     0.254 C 
HETATM   10  C   UNL     1      40.226  -8.859   8.475  1.00  0.00     0.150 C 
HETATM   11  N   UNL     1      39.601 -10.175   8.239  1.00  0.00    -0.378 N 
HETATM   12  C   UNL     1      39.211 -10.871   9.483  1.00  0.00     0.150 C 
HETATM   13  C   UNL     1      40.437 -11.058  10.401  1.00  0.00     0.254 C 
HETATM   14  H   UNL     1      40.384  -9.133  11.187  1.00  0.00     0.280 HD
BRANCH  11  15
HETATM   15  C   UNL     1      40.000 -10.976   7.164  1.00  0.00     0.030 A 
HETATM   16  C   UNL     1      40.983 -10.598   6.236  1.00  0.00     0.032 A 
HETATM   17  C   UNL     1      41.371 -11.436   5.177  1.00  0.00     0.039 A 
HETATM   18  C   UNL     1      40.768 -12.676   5.003  1.00  0.00     0.068 A 
HETATM   19  C   UNL     1      39.762 -13.055   5.883  1.00  0.00     0.039 A 
HETATM   20  C   UNL     1      39.381 -12.216   6.938  1.00  0.00     0.032 A 
BRANCH  18  21
HETATM   21  O   UNL     1      41.052 -13.587   4.026  1.00  0.00    -0.356 OA
HETATM   22  C   UNL     1      40.231 -14.746   3.961  1.00  0.00     0.210 C 
ENDBRANCH  18  21
ENDBRANCH  11  15
ENDBRANCH   7   8
ENDBRANCH   6   7
ENDBRANCH   5   6
ENDBRANCH   1   5
BRANCH   2  23
HETATM   23  C   UNL     1      44.416 -12.835   7.525  1.00  0.00     0.105 C 
BRANCH  23  24
HETATM   24  C   UNL     1      44.707 -14.263   7.064  1.00  0.00     0.046 C 
BRANCH  24  25
HETATM   25  C   UNL     1      43.476 -15.085   6.687  1.00  0.00     0.203 A 
HETATM   26  N   UNL     1      43.430 -15.294   5.217  1.00  0.00    -0.257 NA
HETATM   27  C   UNL     1      43.538 -16.583   5.075  1.00  0.00     0.147 A 
HETATM   28  N   UNL     1      43.615 -17.346   6.206  1.00  0.00    -0.239 N 
HETATM   29  C   UNL     1      43.581 -17.258   3.773  1.00  0.00     0.037 A 
HETATM   30  C   UNL     1      43.733 -18.741   6.211  1.00  0.00     0.187 A 
HETATM   31  C   UNL     1      43.554 -16.481   7.277  1.00  0.00     0.257 A 
HETATM   32  S   UNL     1      43.831 -19.745   7.545  1.00  0.00    -0.040 SA
HETATM   33  N   UNL     1      43.770 -19.345   4.973  1.00  0.00    -0.332 N 
HETATM   34  C   UNL     1      43.701 -18.645   3.765  1.00  0.00     0.048 A 
HETATM   35  H   UNL     1      43.861 -20.356   4.964  1.00  0.00     0.168 HD
HETATM   36  C   UNL     1      43.757 -19.337   2.556  1.00  0.00     0.030 A 
HETATM   37  C   UNL     1      43.694 -18.628   1.354  1.00  0.00     0.002 A 
HETATM   38  C   UNL     1      43.576 -17.236   1.362  1.00  0.00     0.001 A 
HETATM   39  C   UNL     1      43.519 -16.545   2.574  1.00  0.00     0.017 A 
HETATM   40  O   UNL     1      43.545 -16.704   8.477  1.00  0.00    -0.270 OA
ENDBRANCH  24  25
ENDBRANCH  23  24
ENDBRANCH   2  23
TORSDOF 9
ENDMDL
MODEL 3
REMARK VINA RESULT:      -9.2      5.510      9.847
REMARK  9 active torsions:
REMARK  status: ('A' for Active; 'I' for Inactive)
REMARK    1  A    between atoms: O_2  and  C_3 
REMARK    2  A    between atoms: C_6  and  N_7 
REMARK    3  A    between atoms: N_10  and  C_12 
REMARK    4  A    between atoms: C_12  and  C_13 
REMARK    5  A    between atoms: C_13  and  C_14 
REMARK    6  A    between atoms: C_14  and  N_15 
REMARK       I    between atoms: N_15  and  C_16 
REMARK    7  A    between atoms: C_16  and  C_17 
REMARK    8  A    between atoms: C_17  and  C_18 
REMARK    9  A    between atoms: C_18  and  C_19 
ROOT
HETATM    1  N   UNL     1      42.812 -14.490   6.270  1.00  0.00    -0.361 N 
HETATM    2  C   UNL     1      44.088 -14.897   6.604  1.00  0.00     0.217 C 
HETATM    3  O   UNL     1      45.035 -14.117   6.670  1.00  0.00    -0.274 OA
HETATM    4  H   UNL     1      42.156 -15.228   6.018  1.00  0.00     0.162 HD
ENDROOT
BRANCH   1   5
HETATM    5  C   UNL     1      42.569 -13.153   5.773  1.00  0.00     0.124 C 
BRANCH   5   6
HETATM    6  C   UNL     1      42.318 -13.106   4.261  1.00  0.00     0.047 C 
BRANCH   6   7
HETATM    7  C   UNL     1      40.876 -12.704   3.977  1.00  0.00     0.236 C 
BRANCH   7   8
HETATM    8  N   UNL     1      40.779 -11.926   2.681  1.00  0.00    -0.068 N 
HETATM    9  C   UNL     1      42.012 -12.125   1.777  1.00  0.00     0.254 C 
HETATM   10  C   UNL     1      41.857 -11.345   0.452  1.00  0.00     0.150 C 
HETATM   11  N   UNL     1      40.592 -11.682  -0.229  1.00  0.00    -0.378 N 
HETATM   12  C   UNL     1      39.396 -11.459   0.611  1.00  0.00     0.150 C 
HETATM   13  C   UNL     1      39.495 -12.280   1.914  1.00  0.00     0.254 C 
HETATM   14  H   UNL     1      40.726 -10.924   2.901  1.00  0.00     0.280 HD
BRANCH  11  15
HETATM   15  C   UNL     1      40.531 -12.730  -1.152  1.00  0.00     0.030 A 
HETATM   16  C   UNL     1      41.644 -13.207  -1.862  1.00  0.00     0.032 A 
HETATM   17  C   UNL     1      41.550 -14.275  -2.770  1.00  0.00     0.039 A 
HETATM   18  C   UNL     1      40.326 -14.889  -3.011  1.00  0.00     0.068 A 
HETATM   19  C   UNL     1      39.201 -14.407  -2.352  1.00  0.00     0.039 A 
HETATM   20  C   UNL     1      39.302 -13.343  -1.447  1.00  0.00     0.032 A 
BRANCH  18  21
HETATM   21  O   UNL     1      40.095 -15.934  -3.857  1.00  0.00    -0.356 OA
HETATM   22  C   UNL     1      38.760 -16.117  -4.314  1.00  0.00     0.210 C 
ENDBRANCH  18  21
ENDBRANCH  11  15
ENDBRANCH   7   8
ENDBRANCH   6   7
ENDBRANCH   5   6
ENDBRANCH   1   5
BRANCH   2  23
HETATM   23  C   UNL     1      44.231 -16.377   6.880  1.00  0.00     0.105 C 
BRANCH  23  24
HETATM   24  C   UNL     1      42.992 -17.006   7.516  1.00  0.00     0.046 C 
BRANCH  24  25
HETATM   25  C   UNL     1      42.210 -17.956   6.609  1.00  0.00     0.203 A 
HETATM   26  N   UNL     1      41.540 -17.193   5.525  1.00  0.00    -0.257 NA
HETATM   27  C   UNL     1      42.093 -17.638   4.434  1.00  0.00     0.147 A 
HETATM   28  N   UNL     1      43.028 -18.628   4.550  1.00  0.00    -0.239 N 
HETATM   29  C   UNL     1      41.769 -17.136   3.094  1.00  0.00     0.037 A 
HETATM   30  C   UNL     1      43.705 -19.205   3.469  1.00  0.00     0.187 A 
HETATM   31  C   UNL     1      43.145 -18.912   5.893  1.00  0.00     0.257 A 
HETATM   32  S   UNL     1      44.857 -20.416   3.523  1.00  0.00    -0.040 SA
HETATM   33  N   UNL     1      43.378 -18.713   2.224  1.00  0.00    -0.332 N 
HETATM   34  C   UNL     1      42.438 -17.701   2.011  1.00  0.00     0.048 A 
HETATM   35  H   UNL     1      43.866 -19.120   1.432  1.00  0.00     0.168 HD
HETATM   36  C   UNL     1      42.175 -17.256   0.716  1.00  0.00     0.030 A 
HETATM   37  C   UNL     1      41.240 -16.238   0.515  1.00  0.00     0.002 A 
HETATM   38  C   UNL     1      40.570 -15.671   1.602  1.00  0.00     0.001 A 
HETATM   39  C   UNL     1      40.833 -16.119   2.897  1.00  0.00     0.017 A 
HETATM   40  O   UNL     1      43.822 -19.748   6.470  1.00  0.00    -0.270 OA
ENDBRANCH  24  25
ENDBRANCH  23  24
ENDBRANCH   2  23
TORSDOF 9
ENDMDL
MODEL 4
REMARK VINA RESULT:      -9.1      2.230      3.269
REMARK  9 active torsions:
REMARK  status: ('A' for Active; 'I' for Inactive)
REMARK    1  A    between atoms: O_2  and  C_3 
REMARK    2  A    between atoms: C_6  and  N_7 
REMARK    3  A    between atoms: N_10  and  C_12 
REMARK    4  A    between atoms: C_12  and  C_13 
REMARK    5  A    between atoms: C_13  and  C_14 
REMARK    6  A    between atoms: C_14  and  N_15 
REMARK       I    between atoms: N_15  and  C_16 
REMARK    7  A    between atoms: C_16  and  C_17 
REMARK    8  A    between atoms: C_17  and  C_18 
REMARK    9  A    between atoms: C_18  and  C_19 
ROOT
HETATM    1  N   UNL     1      40.156 -12.037   3.960  1.00  0.00    -0.361 N 
HETATM    2  C   UNL     1      39.324 -11.074   4.495  1.00  0.00     0.217 C 
HETATM    3  O   UNL     1      38.100 -11.169   4.466  1.00  0.00    -0.274 OA
HETATM    4  H   UNL     1      41.129 -11.766   3.827  1.00  0.00     0.162 HD
ENDROOT
BRANCH   1   5
HETATM    5  C   UNL     1      39.621 -13.108   3.148  1.00  0.00     0.124 C 
BRANCH   5   6
HETATM    6  C   UNL     1      40.039 -14.501   3.632  1.00  0.00     0.047 C 
BRANCH   6   7
HETATM    7  C   UNL     1      39.851 -14.615   5.140  1.00  0.00     0.236 C 
BRANCH   7   8
HETATM    8  N   UNL     1      41.106 -15.149   5.801  1.00  0.00    -0.068 N 
HETATM    9  C   UNL     1      40.924 -16.578   6.350  1.00  0.00     0.254 C 
HETATM   10  C   UNL     1      42.235 -17.098   6.982  1.00  0.00     0.150 C 
HETATM   11  N   UNL     1      43.369 -16.987   6.045  1.00  0.00    -0.378 N 
HETATM   12  C   UNL     1      43.581 -15.614   5.540  1.00  0.00     0.150 C 
HETATM   13  C   UNL     1      42.306 -15.095   4.843  1.00  0.00     0.254 C 
HETATM   14  H   UNL     1      41.337 -14.547   6.602  1.00  0.00     0.280 HD
BRANCH  11  15
HETATM   15  C   UNL     1      43.688 -18.037   5.177  1.00  0.00     0.030 A 
HETATM   16  C   UNL     1      43.227 -18.118   3.854  1.00  0.00     0.032 A 
HETATM   17  C   UNL     1      43.582 -19.179   3.004  1.00  0.00     0.039 A 
HETATM   18  C   UNL     1      44.397 -20.207   3.463  1.00  0.00     0.068 A 
HETATM   19  C   UNL     1      44.831 -20.172   4.782  1.00  0.00     0.039 A 
HETATM   20  C   UNL     1      44.475 -19.110   5.624  1.00  0.00     0.032 A 
BRANCH  18  21
HETATM   21  O   UNL     1      44.821 -21.289   2.746  1.00  0.00    -0.356 OA
HETATM   22  C   UNL     1      43.994 -21.722   1.673  1.00  0.00     0.210 C 
ENDBRANCH  18  21
ENDBRANCH  11  15
ENDBRANCH   7   8
ENDBRANCH   6   7
ENDBRANCH   5   6
ENDBRANCH   1   5
BRANCH   2  23
HETATM   23  C   UNL     1      40.036  -9.894   5.118  1.00  0.00     0.105 C 
BRANCH  23  24
HETATM   24  C   UNL     1      39.569  -9.575   6.538  1.00  0.00     0.046 C 
BRANCH  24  25
HETATM   25  C   UNL     1      39.731 -10.714   7.544  1.00  0.00     0.203 A 
HETATM   26  N   UNL     1      41.170 -11.017   7.746  1.00  0.00    -0.257 NA
HETATM   27  C   UNL     1      41.381 -10.740   9.000  1.00  0.00     0.147 A 
HETATM   28  N   UNL     1      40.318 -10.322   9.749  1.00  0.00    -0.239 N 
HETATM   29  C   UNL     1      42.692 -10.852   9.649  1.00  0.00     0.037 A 
HETATM   30  C   UNL     1      40.390  -9.990  11.108  1.00  0.00     0.187 A 
HETATM   31  C   UNL     1      39.223 -10.303   8.913  1.00  0.00     0.257 A 
HETATM   32  S   UNL     1      39.142  -9.473  12.093  1.00  0.00    -0.040 SA
HETATM   33  N   UNL     1      41.635 -10.105  11.688  1.00  0.00    -0.332 N 
HETATM   34  C   UNL     1      42.778 -10.521  11.000  1.00  0.00     0.048 A 
HETATM   35  H   UNL     1      41.702  -9.862  12.672  1.00  0.00     0.168 HD
HETATM   36  C   UNL     1      44.001 -10.600  11.664  1.00  0.00     0.030 A 
HETATM   37  C   UNL     1      45.138 -11.010  10.965  1.00  0.00     0.002 A 
HETATM   38  C   UNL     1      45.053 -11.340   9.610  1.00  0.00     0.001 A 
HETATM   39  C   UNL     1      43.827 -11.261   8.946  1.00  0.00     0.017 A 
HETATM   40  O   UNL     1      38.054 -10.039   9.144  1.00  0.00    -0.270 OA
ENDBRANCH  24  25
ENDBRANCH  23  24
ENDBRANCH   2  23
TORSDOF 9
ENDMDL
MODEL 5
REMARK VINA RESULT:      -9.0      6.452     11.167
REMARK  9 active torsions:
REMARK  status: ('A' for Active; 'I' for Inactive)
REMARK    1  A    between atoms: O_2  and  C_3 
REMARK    2  A    between atoms: C_6  and  N_7 
REMARK    3  A    between atoms: N_10  and  C_12 
REMARK    4  A    between atoms: C_12  and  C_13 
REMARK    5  A    between atoms: C_13  and  C_14 
REMARK    6  A    between atoms: C_14  and  N_15 
REMARK       I    between atoms: N_15  and  C_16 
REMARK    7  A    between atoms: C_16  and  C_17 
REMARK    8  A    between atoms: C_17  and  C_18 
REMARK    9  A    between atoms: C_18  and  C_19 
ROOT
HETATM    1  N   UNL     1      40.330 -15.632   4.101  1.00  0.00    -0.361 N 
HETATM    2  C   UNL     1      40.579 -15.614   5.459  1.00  0.00     0.217 C 
HETATM    3  O   UNL     1      40.230 -14.684   6.182  1.00  0.00    -0.274 OA
HETATM    4  H   UNL     1      40.850 -16.319   3.557  1.00  0.00     0.162 HD
ENDROOT
BRANCH   1   5
HETATM    5  C   UNL     1      39.831 -14.454   3.425  1.00  0.00     0.124 C 
BRANCH   5   6
HETATM    6  C   UNL     1      40.084 -14.472   1.913  1.00  0.00     0.047 C 
BRANCH   6   7
HETATM    7  C   UNL     1      38.779 -14.260   1.156  1.00  0.00     0.236 C 
BRANCH   7   8
HETATM    8  N   UNL     1      38.947 -14.594  -0.313  1.00  0.00    -0.068 N 
HETATM    9  C   UNL     1      38.149 -13.646  -1.231  1.00  0.00     0.254 C 
HETATM   10  C   UNL     1      38.377 -13.998  -2.718  1.00  0.00     0.150 C 
HETATM   11  N   UNL     1      39.813 -14.039  -3.051  1.00  0.00    -0.378 N 
HETATM   12  C   UNL     1      40.586 -14.972  -2.205  1.00  0.00     0.150 C 
HETATM   13  C   UNL     1      40.429 -14.602  -0.716  1.00  0.00     0.254 C 
HETATM   14  H   UNL     1      38.589 -15.543  -0.477  1.00  0.00     0.280 HD
BRANCH  11  15
HETATM   15  C   UNL     1      40.478 -12.893  -3.500  1.00  0.00     0.030 A 
HETATM   16  C   UNL     1      41.873 -12.737  -3.455  1.00  0.00     0.032 A 
HETATM   17  C   UNL     1      42.510 -11.578  -3.930  1.00  0.00     0.039 A 
HETATM   18  C   UNL     1      41.763 -10.526  -4.449  1.00  0.00     0.068 A 
HETATM   19  C   UNL     1      40.379 -10.639  -4.465  1.00  0.00     0.039 A 
HETATM   20  C   UNL     1      39.750 -11.798  -3.991  1.00  0.00     0.032 A 
BRANCH  18  21
HETATM   21  O   UNL     1      42.251  -9.353  -4.948  1.00  0.00    -0.356 OA
HETATM   22  C   UNL     1      41.953  -9.051  -6.305  1.00  0.00     0.210 C 
ENDBRANCH  18  21
ENDBRANCH  11  15
ENDBRANCH   7   8
ENDBRANCH   6   7
ENDBRANCH   5   6
ENDBRANCH   1   5
BRANCH   2  23
HETATM   23  C   UNL     1      41.314 -16.826   5.986  1.00  0.00     0.105 C 
BRANCH  23  24
HETATM   24  C   UNL     1      42.625 -16.488   6.696  1.00  0.00     0.046 C 
BRANCH  24  25
HETATM   25  C   UNL     1      43.891 -16.784   5.891  1.00  0.00     0.203 A 
HETATM   26  N   UNL     1      44.231 -18.226   5.985  1.00  0.00    -0.257 NA
HETATM   27  C   UNL     1      44.128 -18.657   4.762  1.00  0.00     0.147 A 
HETATM   28  N   UNL     1      43.805 -17.753   3.791  1.00  0.00    -0.239 N 
HETATM   29  C   UNL     1      44.338 -20.056   4.372  1.00  0.00     0.037 A 
HETATM   30  C   UNL     1      43.660 -18.068   2.434  1.00  0.00     0.187 A 
HETATM   31  C   UNL     1      43.664 -16.532   4.413  1.00  0.00     0.257 A 
HETATM   32  S   UNL     1      43.270 -17.025   1.187  1.00  0.00    -0.040 SA
HETATM   33  N   UNL     1      43.864 -19.389   2.100  1.00  0.00    -0.332 N 
HETATM   34  C   UNL     1      44.193 -20.383   3.026  1.00  0.00     0.048 A 
HETATM   35  H   UNL     1      43.756 -19.632   1.120  1.00  0.00     0.168 HD
HETATM   36  C   UNL     1      44.372 -21.699   2.601  1.00  0.00     0.030 A 
HETATM   37  C   UNL     1      44.694 -22.686   3.536  1.00  0.00     0.002 A 
HETATM   38  C   UNL     1      44.837 -22.358   4.886  1.00  0.00     0.001 A 
HETATM   39  C   UNL     1      44.659 -21.040   5.309  1.00  0.00     0.017 A 
HETATM   40  O   UNL     1      43.423 -15.428   3.949  1.00  0.00    -0.270 OA
ENDBRANCH  24  25
ENDBRANCH  23  24
ENDBRANCH   2  23
TORSDOF 9
ENDMDL
MODEL 6
REMARK VINA RESULT:      -9.0      6.779     11.044
REMARK  9 active torsions:
REMARK  status: ('A' for Active; 'I' for Inactive)
REMARK    1  A    between atoms: O_2  and  C_3 
REMARK    2  A    between atoms: C_6  and  N_7 
REMARK    3  A    between atoms: N_10  and  C_12 
REMARK    4  A    between atoms: C_12  and  C_13 
REMARK    5  A    between atoms: C_13  and  C_14 
REMARK    6  A    between atoms: C_14  and  N_15 
REMARK       I    between atoms: N_15  and  C_16 
REMARK    7  A    between atoms: C_16  and  C_17 
REMARK    8  A    between atoms: C_17  and  C_18 
REMARK    9  A    between atoms: C_18  and  C_19 
ROOT
HETATM    1  N   UNL     1      40.895 -13.024   3.016  1.00  0.00    -0.361 N 
HETATM    2  C   UNL     1      42.186 -12.943   2.533  1.00  0.00     0.217 C 
HETATM    3  O   UNL     1      42.471 -12.326   1.510  1.00  0.00    -0.274 OA
HETATM    4  H   UNL     1      40.725 -13.735   3.726  1.00  0.00     0.162 HD
ENDROOT
BRANCH   1   5
HETATM    5  C   UNL     1      39.778 -12.562   2.221  1.00  0.00     0.124 C 
BRANCH   5   6
HETATM    6  C   UNL     1      38.885 -13.700   1.715  1.00  0.00     0.047 C 
BRANCH   6   7
HETATM    7  C   UNL     1      39.738 -14.875   1.249  1.00  0.00     0.236 C 
BRANCH   7   8
HETATM    8  N   UNL     1      39.666 -15.030  -0.256  1.00  0.00    -0.068 N 
HETATM    9  C   UNL     1      38.694 -14.026  -0.909  1.00  0.00     0.254 C 
HETATM   10  C   UNL     1      38.678 -14.194  -2.445  1.00  0.00     0.150 C 
HETATM   11  N   UNL     1      40.038 -14.122  -3.012  1.00  0.00    -0.378 N 
HETATM   12  C   UNL     1      40.972 -15.104  -2.424  1.00  0.00     0.150 C 
HETATM   13  C   UNL     1      41.058 -14.915  -0.895  1.00  0.00     0.254 C 
HETATM   14  H   UNL     1      39.316 -15.971  -0.473  1.00  0.00     0.280 HD
BRANCH  11  15
HETATM   15  C   UNL     1      40.580 -12.899  -3.422  1.00  0.00     0.030 A 
HETATM   16  C   UNL     1      41.959 -12.653  -3.510  1.00  0.00     0.032 A 
HETATM   17  C   UNL     1      42.470 -11.417  -3.942  1.00  0.00     0.039 A 
HETATM   18  C   UNL     1      41.611 -10.379  -4.281  1.00  0.00     0.068 A 
HETATM   19  C   UNL     1      40.242 -10.584  -4.161  1.00  0.00     0.039 A 
HETATM   20  C   UNL     1      39.738 -11.819  -3.731  1.00  0.00     0.032 A 
BRANCH  18  21
HETATM   21  O   UNL     1      41.970  -9.137  -4.719  1.00  0.00    -0.356 OA
HETATM   22  C   UNL     1      42.401  -8.202  -3.738  1.00  0.00     0.210 C 
ENDBRANCH  18  21
ENDBRANCH  11  15
ENDBRANCH   7   8
ENDBRANCH   6   7
ENDBRANCH   5   6
ENDBRANCH   1   5
BRANCH   2  23
HETATM   23  C   UNL     1      43.221 -13.672   3.361  1.00  0.00     0.105 C 
BRANCH  23  24
HETATM   24  C   UNL     1      43.520 -15.086   2.864  1.00  0.00     0.046 C 
BRANCH  24  25
HETATM   25  C   UNL     1      42.687 -16.190   3.514  1.00  0.00     0.203 A 
HETATM   26  N   UNL     1      42.812 -17.450   2.738  1.00  0.00    -0.257 NA
HETATM   27  C   UNL     1      43.379 -18.278   3.565  1.00  0.00     0.147 A 
HETATM   28  N   UNL     1      43.651 -17.834   4.829  1.00  0.00    -0.239 N 
HETATM   29  C   UNL     1      43.742 -19.657   3.216  1.00  0.00     0.037 A 
HETATM   30  C   UNL     1      44.255 -18.609   5.826  1.00  0.00     0.187 A 
HETATM   31  C   UNL     1      43.219 -16.528   4.894  1.00  0.00     0.257 A 
HETATM   32  S   UNL     1      44.619 -18.145   7.390  1.00  0.00    -0.040 SA
HETATM   33  N   UNL     1      44.584 -19.899   5.467  1.00  0.00    -0.332 N 
HETATM   34  C   UNL     1      44.347 -20.437   4.199  1.00  0.00     0.048 A 
HETATM   35  H   UNL     1      45.028 -20.470   6.180  1.00  0.00     0.168 HD
HETATM   36  C   UNL     1      44.721 -21.750   3.919  1.00  0.00     0.030 A 
HETATM   37  C   UNL     1      44.487 -22.276   2.646  1.00  0.00     0.002 A 
HETATM   38  C   UNL     1      43.882 -21.493   1.660  1.00  0.00     0.001 A 
HETATM   39  C   UNL     1      43.508 -20.178   1.943  1.00  0.00     0.017 A 
HETATM   40  O   UNL     1      43.213 -15.740   5.827  1.00  0.00    -0.270 OA
ENDBRANCH  24  25
ENDBRANCH  23  24
ENDBRANCH   2  23
TORSDOF 9
ENDMDL
MODEL 7
REMARK VINA RESULT:      -8.9      1.725      2.525
REMARK  9 active torsions:
REMARK  status: ('A' for Active; 'I' for Inactive)
REMARK    1  A    between atoms: O_2  and  C_3 
REMARK    2  A    between atoms: C_6  and  N_7 
REMARK    3  A    between atoms: N_10  and  C_12 
REMARK    4  A    between atoms: C_12  and  C_13 
REMARK    5  A    between atoms: C_13  and  C_14 
REMARK    6  A    between atoms: C_14  and  N_15 
REMARK       I    between atoms: N_15  and  C_16 
REMARK    7  A    between atoms: C_16  and  C_17 
REMARK    8  A    between atoms: C_17  and  C_18 
REMARK    9  A    between atoms: C_18  and  C_19 
ROOT
HETATM    1  N   UNL     1      40.898 -12.599   6.660  1.00  0.00    -0.361 N 
HETATM    2  C   UNL     1      39.649 -12.079   6.932  1.00  0.00     0.217 C 
HETATM    3  O   UNL     1      38.699 -12.204   6.162  1.00  0.00    -0.274 OA
HETATM    4  H   UNL     1      41.665 -12.253   7.235  1.00  0.00     0.162 HD
ENDROOT
BRANCH   1   5
HETATM    5  C   UNL     1      41.206 -13.138   5.352  1.00  0.00     0.124 C 
BRANCH   5   6
HETATM    6  C   UNL     1      41.200 -14.670   5.313  1.00  0.00     0.047 C 
BRANCH   6   7
HETATM    7  C   UNL     1      40.408 -15.166   4.109  1.00  0.00     0.236 C 
BRANCH   7   8
HETATM    8  N   UNL     1      41.337 -15.630   3.006  1.00  0.00    -0.068 N 
HETATM    9  C   UNL     1      42.798 -15.762   3.480  1.00  0.00     0.254 C 
HETATM   10  C   UNL     1      43.705 -16.273   2.337  1.00  0.00     0.150 C 
HETATM   11  N   UNL     1      43.182 -17.520   1.748  1.00  0.00    -0.378 N 
HETATM   12  C   UNL     1      41.795 -17.400   1.253  1.00  0.00     0.150 C 
HETATM   13  C   UNL     1      40.855 -16.954   2.393  1.00  0.00     0.254 C 
HETATM   14  H   UNL     1      41.327 -14.933   2.252  1.00  0.00     0.280 HD
BRANCH  11  15
HETATM   15  C   UNL     1      43.569 -18.767   2.249  1.00  0.00     0.030 A 
HETATM   16  C   UNL     1      43.483 -19.960   1.514  1.00  0.00     0.032 A 
HETATM   17  C   UNL     1      43.897 -21.195   2.043  1.00  0.00     0.039 A 
HETATM   18  C   UNL     1      44.394 -21.274   3.339  1.00  0.00     0.068 A 
HETATM   19  C   UNL     1      44.450 -20.114   4.101  1.00  0.00     0.039 A 
HETATM   20  C   UNL     1      44.037 -18.887   3.568  1.00  0.00     0.032 A 
BRANCH  18  21
HETATM   21  O   UNL     1      44.835 -22.401   3.971  1.00  0.00    -0.356 OA
HETATM   22  C   UNL     1      45.086 -22.306   5.368  1.00  0.00     0.210 C 
ENDBRANCH  18  21
ENDBRANCH  11  15
ENDBRANCH   7   8
ENDBRANCH   6   7
ENDBRANCH   5   6
ENDBRANCH   1   5
BRANCH   2  23
HETATM   23  C   UNL     1      39.540 -11.343   8.249  1.00  0.00     0.105 C 
BRANCH  23  24
HETATM   24  C   UNL     1      39.352  -9.834   8.095  1.00  0.00     0.046 C 
BRANCH  24  25
HETATM   25  C   UNL     1      40.491  -8.980   8.652  1.00  0.00     0.203 A 
HETATM   26  N   UNL     1      40.269  -8.709  10.095  1.00  0.00    -0.257 NA
HETATM   27  C   UNL     1      41.275  -9.286  10.685  1.00  0.00     0.147 A 
HETATM   28  N   UNL     1      42.210  -9.900   9.901  1.00  0.00    -0.239 N 
HETATM   29  C   UNL     1      41.457  -9.315  12.141  1.00  0.00     0.037 A 
HETATM   30  C   UNL     1      43.343 -10.560  10.392  1.00  0.00     0.187 A 
HETATM   31  C   UNL     1      41.808  -9.731   8.594  1.00  0.00     0.257 A 
HETATM   32  S   UNL     1      44.531 -11.332   9.504  1.00  0.00    -0.040 SA
HETATM   33  N   UNL     1      43.485 -10.569  11.762  1.00  0.00    -0.332 N 
HETATM   34  C   UNL     1      42.579  -9.971  12.642  1.00  0.00     0.048 A 
HETATM   35  H   UNL     1      44.301 -11.049  12.131  1.00  0.00     0.168 HD
HETATM   36  C   UNL     1      42.796 -10.037  14.017  1.00  0.00     0.030 A 
HETATM   37  C   UNL     1      41.880  -9.443  14.888  1.00  0.00     0.002 A 
HETATM   38  C   UNL     1      40.753  -8.786  14.385  1.00  0.00     0.001 A 
HETATM   39  C   UNL     1      40.538  -8.720  13.008  1.00  0.00     0.017 A 
HETATM   40  O   UNL     1      42.344 -10.067   7.550  1.00  0.00    -0.270 OA
ENDBRANCH  24  25
ENDBRANCH  23  24
ENDBRANCH   2  23
TORSDOF 9
ENDMDL
MODEL 8
REMARK VINA RESULT:      -8.9      5.573      8.140
REMARK  9 active torsions:
REMARK  status: ('A' for Active; 'I' for Inactive)
REMARK    1  A    between atoms: O_2  and  C_3 
REMARK    2  A    between atoms: C_6  and  N_7 
REMARK    3  A    between atoms: N_10  and  C_12 
REMARK    4  A    between atoms: C_12  and  C_13 
REMARK    5  A    between atoms: C_13  and  C_14 
REMARK    6  A    between atoms: C_14  and  N_15 
REMARK       I    between atoms: N_15  and  C_16 
REMARK    7  A    between atoms: C_16  and  C_17 
REMARK    8  A    between atoms: C_17  and  C_18 
REMARK    9  A    between atoms: C_18  and  C_19 
ROOT
HETATM    1  N   UNL     1      40.579 -13.471   4.964  1.00  0.00    -0.361 N 
HETATM    2  C   UNL     1      40.060 -12.217   5.214  1.00  0.00     0.217 C 
HETATM    3  O   UNL     1      39.119 -12.031   5.982  1.00  0.00    -0.274 OA
HETATM    4  H   UNL     1      41.192 -13.551   4.154  1.00  0.00     0.162 HD
ENDROOT
BRANCH   1   5
HETATM    5  C   UNL     1      39.899 -14.659   5.435  1.00  0.00     0.124 C 
BRANCH   5   6
HETATM    6  C   UNL     1      40.857 -15.802   5.791  1.00  0.00     0.047 C 
BRANCH   6   7
HETATM    7  C   UNL     1      42.227 -15.247   6.162  1.00  0.00     0.236 C 
BRANCH   7   8
HETATM    8  N   UNL     1      43.102 -16.328   6.764  1.00  0.00    -0.068 N 
HETATM    9  C   UNL     1      42.344 -17.655   6.973  1.00  0.00     0.254 C 
HETATM   10  C   UNL     1      43.280 -18.739   7.553  1.00  0.00     0.150 C 
HETATM   11  N   UNL     1      44.495 -18.901   6.732  1.00  0.00    -0.378 N 
HETATM   12  C   UNL     1      45.255 -17.645   6.555  1.00  0.00     0.150 C 
HETATM   13  C   UNL     1      44.360 -16.563   5.914  1.00  0.00     0.254 C 
HETATM   14  H   UNL     1      43.422 -16.016   7.689  1.00  0.00     0.280 HD
BRANCH  11  15
HETATM   15  C   UNL     1      44.532 -19.817   5.676  1.00  0.00     0.030 A 
HETATM   16  C   UNL     1      44.591 -21.208   5.856  1.00  0.00     0.032 A 
HETATM   17  C   UNL     1      44.609 -22.101   4.771  1.00  0.00     0.039 A 
HETATM   18  C   UNL     1      44.589 -21.624   3.466  1.00  0.00     0.068 A 
HETATM   19  C   UNL     1      44.573 -20.249   3.261  1.00  0.00     0.039 A 
HETATM   20  C   UNL     1      44.554 -19.364   4.347  1.00  0.00     0.032 A 
BRANCH  18  21
HETATM   21  O   UNL     1      44.596 -22.375   2.326  1.00  0.00    -0.356 OA
HETATM   22  C   UNL     1      43.712 -21.983   1.283  1.00  0.00     0.210 C 
ENDBRANCH  18  21
ENDBRANCH  11  15
ENDBRANCH   7   8
ENDBRANCH   6   7
ENDBRANCH   5   6
ENDBRANCH   1   5
BRANCH   2  23
HETATM   23  C   UNL     1      40.739 -11.089   4.470  1.00  0.00     0.105 C 
BRANCH  23  24
HETATM   24  C   UNL     1      40.116 -10.790   3.106  1.00  0.00     0.046 C 
BRANCH  24  25
HETATM   25  C   UNL     1      40.958 -11.215   1.903  1.00  0.00     0.203 A 
HETATM   26  N   UNL     1      41.820 -12.369   2.264  1.00  0.00    -0.257 NA
HETATM   27  C   UNL     1      41.400 -13.332   1.496  1.00  0.00     0.147 A 
HETATM   28  N   UNL     1      40.399 -13.052   0.609  1.00  0.00    -0.239 N 
HETATM   29  C   UNL     1      41.941 -14.696   1.531  1.00  0.00     0.037 A 
HETATM   30  C   UNL     1      39.848 -13.983  -0.280  1.00  0.00     0.187 A 
HETATM   31  C   UNL     1      40.076 -11.724   0.778  1.00  0.00     0.257 A 
HETATM   32  S   UNL     1      38.627 -13.723  -1.393  1.00  0.00    -0.040 SA
HETATM   33  N   UNL     1      40.377 -15.254  -0.222  1.00  0.00    -0.332 N 
HETATM   34  C   UNL     1      41.398 -15.632   0.654  1.00  0.00     0.048 A 
HETATM   35  H   UNL     1      39.981 -15.940  -0.858  1.00  0.00     0.168 HD
HETATM   36  C   UNL     1      41.868 -16.944   0.651  1.00  0.00     0.030 A 
HETATM   37  C   UNL     1      42.884 -17.313   1.536  1.00  0.00     0.002 A 
HETATM   38  C   UNL     1      43.427 -16.375   2.417  1.00  0.00     0.001 A 
HETATM   39  C   UNL     1      42.956 -15.061   2.417  1.00  0.00     0.017 A 
HETATM   40  O   UNL     1      39.274 -11.021   0.183  1.00  0.00    -0.270 OA
ENDBRANCH  24  25
ENDBRANCH  23  24
ENDBRANCH   2  23
TORSDOF 9
ENDMDL
MODEL 9
REMARK VINA RESULT:      -8.8      2.962      9.461
REMARK  9 active torsions:
REMARK  status: ('A' for Active; 'I' for Inactive)
REMARK    1  A    between atoms: O_2  and  C_3 
REMARK    2  A    between atoms: C_6  and  N_7 
REMARK    3  A    between atoms: N_10  and  C_12 
REMARK    4  A    between atoms: C_12  and  C_13 
REMARK    5  A    between atoms: C_13  and  C_14 
REMARK    6  A    between atoms: C_14  and  N_15 
REMARK       I    between atoms: N_15  and  C_16 
REMARK    7  A    between atoms: C_16  and  C_17 
REMARK    8  A    between atoms: C_17  and  C_18 
REMARK    9  A    between atoms: C_18  and  C_19 
ROOT
HETATM    1  N   UNL     1      39.298 -10.051   8.148  1.00  0.00    -0.361 N 
HETATM    2  C   UNL     1      39.471 -11.365   7.763  1.00  0.00     0.217 C 
HETATM    3  O   UNL     1      38.867 -12.294   8.294  1.00  0.00    -0.274 OA
HETATM    4  H   UNL     1      39.998  -9.389   7.817  1.00  0.00     0.162 HD
ENDROOT
BRANCH   1   5
HETATM    5  C   UNL     1      38.551  -9.724   9.344  1.00  0.00     0.124 C 
BRANCH   5   6
HETATM    6  C   UNL     1      39.070  -8.468  10.055  1.00  0.00     0.047 C 
BRANCH   6   7
HETATM    7  C   UNL     1      38.685  -8.499  11.530  1.00  0.00     0.236 C 
BRANCH   7   8
HETATM    8  N   UNL     1      39.903  -8.736  12.400  1.00  0.00    -0.068 N 
HETATM    9  C   UNL     1      40.126 -10.230  12.711  1.00  0.00     0.254 C 
HETATM   10  C   UNL     1      41.396 -10.431  13.568  1.00  0.00     0.150 C 
HETATM   11  N   UNL     1      42.574  -9.796  12.948  1.00  0.00    -0.378 N 
HETATM   12  C   UNL     1      42.391  -8.354  12.679  1.00  0.00     0.150 C 
HETATM   13  C   UNL     1      41.165  -8.130  11.768  1.00  0.00     0.254 C 
HETATM   14  H   UNL     1      39.762  -8.260  13.299  1.00  0.00     0.280 HD
BRANCH  11  15
HETATM   15  C   UNL     1      43.388 -10.506  12.060  1.00  0.00     0.030 A 
HETATM   16  C   UNL     1      44.149  -9.899  11.049  1.00  0.00     0.032 A 
HETATM   17  C   UNL     1      44.971 -10.644  10.184  1.00  0.00     0.039 A 
HETATM   18  C   UNL     1      45.038 -12.027  10.294  1.00  0.00     0.068 A 
HETATM   19  C   UNL     1      44.261 -12.656  11.260  1.00  0.00     0.039 A 
HETATM   20  C   UNL     1      43.446 -11.909  12.120  1.00  0.00     0.032 A 
BRANCH  18  21
HETATM   21  O   UNL     1      45.795 -12.866   9.529  1.00  0.00    -0.356 OA
HETATM   22  C   UNL     1      45.487 -12.936   8.142  1.00  0.00     0.210 C 
ENDBRANCH  18  21
ENDBRANCH  11  15
ENDBRANCH   7   8
ENDBRANCH   6   7
ENDBRANCH   5   6
ENDBRANCH   1   5
BRANCH   2  23
HETATM   23  C   UNL     1      40.461 -11.572   6.639  1.00  0.00     0.105 C 
BRANCH  23  24
HETATM   24  C   UNL     1      40.514 -13.010   6.123  1.00  0.00     0.046 C 
BRANCH  24  25
HETATM   25  C   UNL     1      41.650 -13.305   5.144  1.00  0.00     0.203 A 
HETATM   26  N   UNL     1      42.641 -14.216   5.771  1.00  0.00    -0.257 NA
HETATM   27  C   UNL     1      42.594 -15.290   5.038  1.00  0.00     0.147 A 
HETATM   28  N   UNL     1      41.756 -15.291   3.959  1.00  0.00    -0.239 N 
HETATM   29  C   UNL     1      43.387 -16.495   5.308  1.00  0.00     0.037 A 
HETATM   30  C   UNL     1      41.599 -16.371   3.081  1.00  0.00     0.187 A 
HETATM   31  C   UNL     1      41.137 -14.060   3.932  1.00  0.00     0.257 A 
HETATM   32  S   UNL     1      40.601 -16.452   1.742  1.00  0.00    -0.040 SA
HETATM   33  N   UNL     1      42.358 -17.487   3.361  1.00  0.00    -0.332 N 
HETATM   34  C   UNL     1      43.237 -17.577   4.443  1.00  0.00     0.048 A 
HETATM   35  H   UNL     1      42.249 -18.278   2.734  1.00  0.00     0.168 HD
HETATM   36  C   UNL     1      43.959 -18.750   4.657  1.00  0.00     0.030 A 
HETATM   37  C   UNL     1      44.830 -18.833   5.746  1.00  0.00     0.002 A 
HETATM   38  C   UNL     1      44.978 -17.749   6.614  1.00  0.00     0.001 A 
HETATM   39  C   UNL     1      44.255 -16.574   6.398  1.00  0.00     0.017 A 
HETATM   40  O   UNL     1      40.344 -13.589   3.133  1.00  0.00    -0.270 OA
ENDBRANCH  24  25
ENDBRANCH  23  24
ENDBRANCH   2  23
TORSDOF 9
ENDMDL
MODEL 10
REMARK VINA RESULT:      -8.6      2.831     10.754
REMARK  9 active torsions:
REMARK  status: ('A' for Active; 'I' for Inactive)
REMARK    1  A    between atoms: O_2  and  C_3 
REMARK    2  A    between atoms: C_6  and  N_7 
REMARK    3  A    between atoms: N_10  and  C_12 
REMARK    4  A    between atoms: C_12  and  C_13 
REMARK    5  A    between atoms: C_13  and  C_14 
REMARK    6  A    between atoms: C_14  and  N_15 
REMARK       I    between atoms: N_15  and  C_16 
REMARK    7  A    between atoms: C_16  and  C_17 
REMARK    8  A    between atoms: C_17  and  C_18 
REMARK    9  A    between atoms: C_18  and  C_19 
ROOT
HETATM    1  N   UNL     1      43.044 -14.421   5.977  1.00  0.00    -0.361 N 
HETATM    2  C   UNL     1      44.147 -14.630   6.781  1.00  0.00     0.217 C 
HETATM    3  O   UNL     1      44.829 -13.708   7.220  1.00  0.00    -0.274 OA
HETATM    4  H   UNL     1      42.687 -15.236   5.481  1.00  0.00     0.162 HD
ENDROOT
BRANCH   1   5
HETATM    5  C   UNL     1      42.762 -13.108   5.438  1.00  0.00     0.124 C 
BRANCH   5   6
HETATM    6  C   UNL     1      41.483 -12.483   6.007  1.00  0.00     0.047 C 
BRANCH   6   7
HETATM    7  C   UNL     1      41.375 -11.022   5.588  1.00  0.00     0.236 C 
BRANCH   7   8
HETATM    8  N   UNL     1      40.539 -10.237   6.578  1.00  0.00    -0.068 N 
HETATM    9  C   UNL     1      39.806 -11.146   7.586  1.00  0.00     0.254 C 
HETATM   10  C   UNL     1      38.996 -10.305   8.598  1.00  0.00     0.150 C 
HETATM   11  N   UNL     1      39.840  -9.289   9.256  1.00  0.00    -0.378 N 
HETATM   12  C   UNL     1      40.519  -8.385   8.304  1.00  0.00     0.150 C 
HETATM   13  C   UNL     1      41.389  -9.196   7.321  1.00  0.00     0.254 C 
HETATM   14  H   UNL     1      39.818  -9.719   6.061  1.00  0.00     0.280 HD
BRANCH  11  15
HETATM   15  C   UNL     1      40.515  -9.578  10.446  1.00  0.00     0.030 A 
HETATM   16  C   UNL     1      41.503  -8.748  11.000  1.00  0.00     0.032 A 
HETATM   17  C   UNL     1      42.149  -9.061  12.208  1.00  0.00     0.039 A 
HETATM   18  C   UNL     1      41.839 -10.232  12.890  1.00  0.00     0.068 A 
HETATM   19  C   UNL     1      40.895 -11.090  12.340  1.00  0.00     0.039 A 
HETATM   20  C   UNL     1      40.252 -10.772  11.137  1.00  0.00     0.032 A 
BRANCH  18  21
HETATM   21  O   UNL     1      42.382 -10.652  14.069  1.00  0.00    -0.356 OA
HETATM   22  C   UNL     1      42.351  -9.741  15.161  1.00  0.00     0.210 C 
ENDBRANCH  18  21
ENDBRANCH  11  15
ENDBRANCH   7   8
ENDBRANCH   6   7
ENDBRANCH   5   6
ENDBRANCH   1   5
BRANCH   2  23
HETATM   23  C   UNL     1      44.450 -16.082   7.077  1.00  0.00     0.105 C 
BRANCH  23  24
HETATM   24  C   UNL     1      43.391 -16.767   7.940  1.00  0.00     0.046 C 
BRANCH  24  25
HETATM   25  C   UNL     1      42.569 -17.840   7.226  1.00  0.00     0.203 A 
HETATM   26  N   UNL     1      41.837 -17.245   6.079  1.00  0.00    -0.257 NA
HETATM   27  C   UNL     1      42.334 -17.847   5.038  1.00  0.00     0.147 A 
HETATM   28  N   UNL     1      43.281 -18.809   5.248  1.00  0.00    -0.239 N 
HETATM   29  C   UNL     1      41.936 -17.548   3.658  1.00  0.00     0.037 A 
HETATM   30  C   UNL     1      43.903 -19.541   4.229  1.00  0.00     0.187 A 
HETATM   31  C   UNL     1      43.471 -18.892   6.610  1.00  0.00     0.257 A 
HETATM   32  S   UNL     1      45.065 -20.732   4.400  1.00  0.00    -0.040 SA
HETATM   33  N   UNL     1      43.507 -19.237   2.945  1.00  0.00    -0.332 N 
HETATM   34  C   UNL     1      42.550 -18.267   2.635  1.00  0.00     0.048 A 
HETATM   35  H   UNL     1      43.956 -19.757   2.196  1.00  0.00     0.168 HD
HETATM   36  C   UNL     1      42.216 -18.017   1.305  1.00  0.00     0.030 A 
HETATM   37  C   UNL     1      41.264 -17.040   1.006  1.00  0.00     0.002 A 
HETATM   38  C   UNL     1      40.649 -16.318   2.032  1.00  0.00     0.001 A 
HETATM   39  C   UNL     1      40.984 -16.570   3.363  1.00  0.00     0.017 A 
HETATM   40  O   UNL     1      44.183 -19.635   7.267  1.00  0.00    -0.270 OA
ENDBRANCH  24  25
ENDBRANCH  23  24
ENDBRANCH   2  23
TORSDOF 9
ENDMDL
