MODEL 1
REMARK VINA RESULT:      -9.4      0.000      0.000
REMARK  7 active torsions:
REMARK  status: ('A' for Active; 'I' for Inactive)
REMARK       I    between atoms: N_2  and  C_3 
REMARK    1  A    between atoms: N_2  and  C_22 
REMARK    2  A    between atoms: C_3  and  C_4 
REMARK    3  A    between atoms: C_4  and  N_5 
REMARK    4  A    between atoms: N_5  and  C_6 
REMARK    5  A    between atoms: C_7  and  O_8 
REMARK    6  A    between atoms: C_22  and  C_23 
REMARK       I    between atoms: C_23  and  N_24 
REMARK    7  A    between atoms: N_24  and  C_25 
ROOT
HETATM    1  C   UNL     1      42.321 -13.693   4.668  1.00  0.00     0.195 C 
ENDROOT
BRANCH   1   2
HETATM    2  C   UNL     1      40.881 -13.512   5.190  1.00  0.00     0.233 C 
HETATM    3  N   UNL     1      40.622 -12.421   6.021  1.00  0.00    -0.347 N 
HETATM    4  C   UNL     1      39.331 -12.362   6.686  1.00  0.00     0.153 C 
HETATM    5  O   UNL     1      40.048 -14.406   5.005  1.00  0.00    -0.272 OA
BRANCH   3   6
HETATM    6  C   UNL     1      41.364 -11.156   5.926  1.00  0.00     0.228 C 
BRANCH   6   7
HETATM    7  C   UNL     1      41.889 -10.542   7.233  1.00  0.00     0.240 C 
HETATM    8  N   UNL     1      42.319 -11.461   8.172  1.00  0.00    -0.324 N 
HETATM    9  H   UNL     1      42.722 -12.300   7.758  1.00  0.00     0.169 HD
HETATM   10  O   UNL     1      41.895  -9.321   7.369  1.00  0.00    -0.271 OA
BRANCH   8  11
HETATM   11  C   UNL     1      42.794 -11.114   9.463  1.00  0.00     0.056 A 
HETATM   12  C   UNL     1      41.989 -10.828  10.579  1.00  0.00     0.060 A 
HETATM   13 CL   UNL     1      40.286 -11.145  10.632  1.00  0.00    -0.082 Cl
HETATM   14  C   UNL     1      42.576 -10.408  11.780  1.00  0.00     0.026 A 
HETATM   15  C   UNL     1      43.963 -10.304  11.893  1.00  0.00     0.002 A 
HETATM   16  C   UNL     1      44.769 -10.657  10.816  1.00  0.00     0.002 A 
HETATM   17  C   UNL     1      44.187 -11.076   9.618  1.00  0.00     0.031 A 
ENDBRANCH   8  11
ENDBRANCH   6   7
ENDBRANCH   3   6
ENDBRANCH   1   2
BRANCH   1  18
HETATM   18  N   UNL     1      43.037 -14.462   5.699  1.00  0.00    -0.282 NA
HETATM   19  H   UNL     1      42.468 -14.460   6.550  1.00  0.00     0.128 HD
BRANCH  18  20
HETATM   20  C   UNL     1      43.463 -15.778   5.424  1.00  0.00     0.045 A 
HETATM   21  C   UNL     1      43.942 -16.705   6.375  1.00  0.00     0.090 A 
HETATM   22  C   UNL     1      44.269 -18.034   6.031  1.00  0.00     0.053 A 
HETATM   23  C   UNL     1      44.029 -18.478   4.720  1.00  0.00     0.014 A 
HETATM   24  C   UNL     1      43.500 -17.572   3.813  1.00  0.00     0.089 A 
HETATM   25  C   UNL     1      44.179 -19.703   4.007  1.00  0.00     0.011 A 
HETATM   26  O   UNL     1      43.308 -18.159   2.601  1.00  0.00    -0.309 OA
HETATM   27  C   UNL     1      43.204 -16.245   4.117  1.00  0.00     0.064 A 
HETATM   28  C   UNL     1      43.720 -19.451   2.718  1.00  0.00     0.087 A 
HETATM   29  C   UNL     1      43.688 -20.400   1.699  1.00  0.00     0.038 A 
HETATM   30  C   UNL     1      44.153 -21.679   2.022  1.00  0.00     0.003 A 
HETATM   31  C   UNL     1      44.623 -21.974   3.304  1.00  0.00     0.001 A 
HETATM   32  C   UNL     1      44.641 -20.998   4.311  1.00  0.00     0.015 A 
BRANCH  21  33
HETATM   33  O   UNL     1      44.157 -16.312   7.676  1.00  0.00    -0.354 OA
HETATM   34  C   UNL     1      43.493 -17.181   8.599  1.00  0.00     0.210 C 
ENDBRANCH  21  33
ENDBRANCH  18  20
ENDBRANCH   1  18
TORSDOF 7
ENDMDL
MODEL 2
REMARK VINA RESULT:      -9.3      1.376      2.650
REMARK  7 active torsions:
REMARK  status: ('A' for Active; 'I' for Inactive)
REMARK       I    between atoms: N_2  and  C_3 
REMARK    1  A    between atoms: N_2  and  C_22 
REMARK    2  A    between atoms: C_3  and  C_4 
REMARK    3  A    between atoms: C_4  and  N_5 
REMARK    4  A    between atoms: N_5  and  C_6 
REMARK    5  A    between atoms: C_7  and  O_8 
REMARK    6  A    between atoms: C_22  and  C_23 
REMARK       I    between atoms: C_23  and  N_24 
REMARK    7  A    between atoms: N_24  and  C_25 
ROOT
HETATM    1  C   UNL     1      42.601 -13.766   4.923  1.00  0.00     0.195 C 
ENDROOT
BRANCH   1   2
HETATM    2  C   UNL     1      41.109 -13.620   5.285  1.00  0.00     0.233 C 
HETATM    3  N   UNL     1      40.726 -12.500   6.025  1.00  0.00    -0.347 N 
HETATM    4  C   UNL     1      39.372 -12.461   6.550  1.00  0.00     0.153 C 
HETATM    5  O   UNL     1      40.332 -14.555   5.064  1.00  0.00    -0.272 OA
BRANCH   3   6
HETATM    6  C   UNL     1      41.427 -11.212   5.938  1.00  0.00     0.228 C 
BRANCH   6   7
HETATM    7  C   UNL     1      41.915 -10.580   7.251  1.00  0.00     0.240 C 
HETATM    8  N   UNL     1      42.408 -11.479   8.178  1.00  0.00    -0.324 N 
HETATM    9  H   UNL     1      42.864 -12.285   7.754  1.00  0.00     0.169 HD
HETATM   10  O   UNL     1      41.841  -9.362   7.402  1.00  0.00    -0.271 OA
BRANCH   8  11
HETATM   11  C   UNL     1      42.862 -11.116   9.472  1.00  0.00     0.056 A 
HETATM   12  C   UNL     1      42.039 -10.810  10.570  1.00  0.00     0.060 A 
HETATM   13 CL   UNL     1      40.334 -11.117  10.598  1.00  0.00    -0.082 Cl
HETATM   14  C   UNL     1      42.609 -10.376  11.775  1.00  0.00     0.026 A 
HETATM   15  C   UNL     1      43.994 -10.279  11.910  1.00  0.00     0.002 A 
HETATM   16  C   UNL     1      44.816 -10.652  10.853  1.00  0.00     0.002 A 
HETATM   17  C   UNL     1      44.252 -11.085   9.651  1.00  0.00     0.031 A 
ENDBRANCH   8  11
ENDBRANCH   6   7
ENDBRANCH   3   6
ENDBRANCH   1   2
BRANCH   1  18
HETATM   18  N   UNL     1      42.641 -14.156   3.503  1.00  0.00    -0.282 NA
HETATM   19  H   UNL     1      43.376 -13.612   3.043  1.00  0.00     0.128 HD
BRANCH  18  20
HETATM   20  C   UNL     1      42.775 -15.516   3.152  1.00  0.00     0.045 A 
HETATM   21  C   UNL     1      42.578 -16.057   1.863  1.00  0.00     0.090 A 
HETATM   22  C   UNL     1      42.816 -17.418   1.575  1.00  0.00     0.053 A 
HETATM   23  C   UNL     1      43.348 -18.245   2.578  1.00  0.00     0.014 A 
HETATM   24  C   UNL     1      43.594 -17.682   3.823  1.00  0.00     0.089 A 
HETATM   25  C   UNL     1      43.750 -19.608   2.680  1.00  0.00     0.011 A 
HETATM   26  O   UNL     1      44.124 -18.603   4.672  1.00  0.00    -0.309 OA
HETATM   27  C   UNL     1      43.332 -16.352   4.143  1.00  0.00     0.064 A 
HETATM   28  C   UNL     1      44.219 -19.771   3.979  1.00  0.00     0.087 A 
HETATM   29  C   UNL     1      44.718 -20.969   4.488  1.00  0.00     0.038 A 
HETATM   30  C   UNL     1      44.736 -22.059   3.612  1.00  0.00     0.003 A 
HETATM   31  C   UNL     1      44.274 -21.939   2.299  1.00  0.00     0.001 A 
HETATM   32  C   UNL     1      43.778 -20.719   1.815  1.00  0.00     0.015 A 
BRANCH  21  33
HETATM   33  O   UNL     1      42.090 -15.267   0.849  1.00  0.00    -0.354 OA
HETATM   34  C   UNL     1      41.404 -16.047  -0.136  1.00  0.00     0.210 C 
ENDBRANCH  21  33
ENDBRANCH  18  20
ENDBRANCH   1  18
TORSDOF 7
ENDMDL
MODEL 3
REMARK VINA RESULT:      -9.2      2.278      3.707
REMARK  7 active torsions:
REMARK  status: ('A' for Active; 'I' for Inactive)
REMARK       I    between atoms: N_2  and  C_3 
REMARK    1  A    between atoms: N_2  and  C_22 
REMARK    2  A    between atoms: C_3  and  C_4 
REMARK    3  A    between atoms: C_4  and  N_5 
REMARK    4  A    between atoms: N_5  and  C_6 
REMARK    5  A    between atoms: C_7  and  O_8 
REMARK    6  A    between atoms: C_22  and  C_23 
REMARK       I    between atoms: C_23  and  N_24 
REMARK    7  A    between atoms: N_24  and  C_25 
ROOT
HETATM    1  C   UNL     1      43.862 -14.256   7.113  1.00  0.00     0.195 C 
ENDROOT
BRANCH   1   2
HETATM    2  C   UNL     1      45.228 -13.544   7.203  1.00  0.00     0.233 C 
HETATM    3  N   UNL     1      45.407 -12.609   8.224  1.00  0.00    -0.347 N 
HETATM    4  C   UNL     1      46.603 -11.785   8.189  1.00  0.00     0.153 C 
HETATM    5  O   UNL     1      46.053 -13.688   6.295  1.00  0.00    -0.272 OA
BRANCH   3   6
HETATM    6  C   UNL     1      44.719 -12.703   9.519  1.00  0.00     0.228 C 
BRANCH   6   7
HETATM    7  C   UNL     1      43.694 -11.610   9.858  1.00  0.00     0.240 C 
HETATM    8  N   UNL     1      42.978 -11.828  11.021  1.00  0.00    -0.324 N 
HETATM    9  H   UNL     1      43.512 -12.321  11.734  1.00  0.00     0.169 HD
HETATM   10  O   UNL     1      43.568 -10.644   9.108  1.00  0.00    -0.271 OA
BRANCH   8  11
HETATM   11  C   UNL     1      41.951 -10.971  11.492  1.00  0.00     0.056 A 
HETATM   12  C   UNL     1      42.072 -10.056  12.551  1.00  0.00     0.060 A 
HETATM   13 CL   UNL     1      43.590  -9.616  13.262  1.00  0.00    -0.082 Cl
HETATM   14  C   UNL     1      40.954  -9.328  12.983  1.00  0.00     0.026 A 
HETATM   15  C   UNL     1      39.723  -9.475  12.344  1.00  0.00     0.002 A 
HETATM   16  C   UNL     1      39.614 -10.322  11.248  1.00  0.00     0.002 A 
HETATM   17  C   UNL     1      40.725 -11.049  10.815  1.00  0.00     0.031 A 
ENDBRANCH   8  11
ENDBRANCH   6   7
ENDBRANCH   3   6
ENDBRANCH   1   2
BRANCH   1  18
HETATM   18  N   UNL     1      43.472 -14.214   5.693  1.00  0.00    -0.282 NA
HETATM   19  H   UNL     1      44.082 -13.545   5.215  1.00  0.00     0.128 HD
BRANCH  18  20
HETATM   20  C   UNL     1      43.412 -15.410   4.947  1.00  0.00     0.045 A 
HETATM   21  C   UNL     1      43.067 -15.511   3.581  1.00  0.00     0.090 A 
HETATM   22  C   UNL     1      43.113 -16.738   2.884  1.00  0.00     0.053 A 
HETATM   23  C   UNL     1      43.600 -17.879   3.542  1.00  0.00     0.014 A 
HETATM   24  C   UNL     1      43.993 -17.748   4.866  1.00  0.00     0.089 A 
HETATM   25  C   UNL     1      43.832 -19.242   3.198  1.00  0.00     0.011 A 
HETATM   26  O   UNL     1      44.456 -18.932   5.351  1.00  0.00    -0.309 OA
HETATM   27  C   UNL     1      43.921 -16.559   5.588  1.00  0.00     0.064 A 
HETATM   28  C   UNL     1      44.359 -19.838   4.340  1.00  0.00     0.087 A 
HETATM   29  C   UNL     1      44.735 -21.177   4.422  1.00  0.00     0.038 A 
HETATM   30  C   UNL     1      44.560 -21.947   3.267  1.00  0.00     0.003 A 
HETATM   31  C   UNL     1      44.034 -21.387   2.099  1.00  0.00     0.001 A 
HETATM   32  C   UNL     1      43.666 -20.035   2.046  1.00  0.00     0.015 A 
BRANCH  21  33
HETATM   33  O   UNL     1      42.618 -14.406   2.898  1.00  0.00    -0.354 OA
HETATM   34  C   UNL     1      41.189 -14.380   2.831  1.00  0.00     0.210 C 
ENDBRANCH  21  33
ENDBRANCH  18  20
ENDBRANCH   1  18
TORSDOF 7
ENDMDL
MODEL 4
REMARK VINA RESULT:      -9.0      1.808      2.928
REMARK  7 active torsions:
REMARK  status: ('A' for Active; 'I' for Inactive)
REMARK       I    between atoms: N_2  and  C_3 
REMARK    1  A    between atoms: N_2  and  C_22 
REMARK    2  A    between atoms: C_3  and  C_4 
REMARK    3  A    between atoms: C_4  and  N_5 
REMARK    4  A    between atoms: N_5  and  C_6 
REMARK    5  A    between atoms: C_7  and  O_8 
REMARK    6  A    between atoms: C_22  and  C_23 
REMARK       I    between atoms: C_23  and  N_24 
REMARK    7  A    between atoms: N_24  and  C_25 
ROOT
HETATM    1  C   UNL     1      41.987 -13.116   6.051  1.00  0.00     0.195 C 
ENDROOT
BRANCH   1   2
HETATM    2  C   UNL     1      41.546 -12.018   5.061  1.00  0.00     0.233 C 
HETATM    3  N   UNL     1      40.453 -11.225   5.413  1.00  0.00    -0.347 N 
HETATM    4  C   UNL     1      39.900 -10.340   4.402  1.00  0.00     0.153 C 
HETATM    5  O   UNL     1      42.049 -11.976   3.933  1.00  0.00    -0.272 OA
BRANCH   3   6
HETATM    6  C   UNL     1      40.113 -10.913   6.808  1.00  0.00     0.228 C 
BRANCH   6   7
HETATM    7  C   UNL     1      41.246 -10.416   7.719  1.00  0.00     0.240 C 
HETATM    8  N   UNL     1      41.304 -11.029   8.957  1.00  0.00    -0.324 N 
HETATM    9  H   UNL     1      41.000 -12.001   8.940  1.00  0.00     0.169 HD
HETATM   10  O   UNL     1      42.005  -9.536   7.317  1.00  0.00    -0.271 OA
BRANCH   8  11
HETATM   11  C   UNL     1      42.238 -10.686   9.968  1.00  0.00     0.056 A 
HETATM   12  C   UNL     1      43.560 -11.157  10.052  1.00  0.00     0.060 A 
HETATM   13 CL   UNL     1      44.355 -12.001   8.764  1.00  0.00    -0.082 Cl
HETATM   14  C   UNL     1      44.360 -10.816  11.152  1.00  0.00     0.026 A 
HETATM   15  C   UNL     1      43.867  -9.979  12.153  1.00  0.00     0.002 A 
HETATM   16  C   UNL     1      42.587  -9.450  12.040  1.00  0.00     0.002 A 
HETATM   17  C   UNL     1      41.788  -9.787  10.945  1.00  0.00     0.031 A 
ENDBRANCH   8  11
ENDBRANCH   6   7
ENDBRANCH   3   6
ENDBRANCH   1   2
BRANCH   1  18
HETATM   18  N   UNL     1      41.001 -14.202   5.924  1.00  0.00    -0.282 NA
HETATM   19  H   UNL     1      40.117 -13.795   5.607  1.00  0.00     0.128 HD
BRANCH  18  20
HETATM   20  C   UNL     1      41.302 -15.335   5.139  1.00  0.00     0.045 A 
HETATM   21  C   UNL     1      40.811 -15.591   3.840  1.00  0.00     0.090 A 
HETATM   22  C   UNL     1      41.229 -16.709   3.086  1.00  0.00     0.053 A 
HETATM   23  C   UNL     1      42.230 -17.546   3.604  1.00  0.00     0.014 A 
HETATM   24  C   UNL     1      42.746 -17.245   4.856  1.00  0.00     0.089 A 
HETATM   25  C   UNL     1      42.928 -18.707   3.163  1.00  0.00     0.011 A 
HETATM   26  O   UNL     1      43.715 -18.134   5.205  1.00  0.00    -0.309 OA
HETATM   27  C   UNL     1      42.324 -16.171   5.637  1.00  0.00     0.064 A 
HETATM   28  C   UNL     1      43.826 -19.021   4.179  1.00  0.00     0.087 A 
HETATM   29  C   UNL     1      44.712 -20.095   4.137  1.00  0.00     0.038 A 
HETATM   30  C   UNL     1      44.674 -20.891   2.987  1.00  0.00     0.003 A 
HETATM   31  C   UNL     1      43.788 -20.611   1.944  1.00  0.00     0.001 A 
HETATM   32  C   UNL     1      42.908 -19.521   2.014  1.00  0.00     0.015 A 
BRANCH  21  33
HETATM   33  O   UNL     1      39.855 -14.771   3.289  1.00  0.00    -0.354 OA
HETATM   34  C   UNL     1      39.400 -15.275   2.028  1.00  0.00     0.210 C 
ENDBRANCH  21  33
ENDBRANCH  18  20
ENDBRANCH   1  18
TORSDOF 7
ENDMDL
MODEL 5
REMARK VINA RESULT:      -8.7      4.135      6.736
REMARK  7 active torsions:
REMARK  status: ('A' for Active; 'I' for Inactive)
REMARK       I    between atoms: N_2  and  C_3 
REMARK    1  A    between atoms: N_2  and  C_22 
REMARK    2  A    between atoms: C_3  and  C_4 
REMARK    3  A    between atoms: C_4  and  N_5 
REMARK    4  A    between atoms: N_5  and  C_6 
REMARK    5  A    between atoms: C_7  and  O_8 
REMARK    6  A    between atoms: C_22  and  C_23 
REMARK       I    between atoms: C_23  and  N_24 
REMARK    7  A    between atoms: N_24  and  C_25 
ROOT
HETATM    1  C   UNL     1      42.275 -13.765   4.120  1.00  0.00     0.195 C 
ENDROOT
BRANCH   1   2
HETATM    2  C   UNL     1      40.769 -13.429   4.168  1.00  0.00     0.233 C 
HETATM    3  N   UNL     1      40.353 -12.224   3.600  1.00  0.00    -0.347 N 
HETATM    4  C   UNL     1      38.982 -11.801   3.828  1.00  0.00     0.153 C 
HETATM    5  O   UNL     1      40.008 -14.134   4.838  1.00  0.00    -0.272 OA
BRANCH   3   6
HETATM    6  C   UNL     1      41.048 -11.597   2.468  1.00  0.00     0.228 C 
BRANCH   6   7
HETATM    7  C   UNL     1      40.753 -12.145   1.063  1.00  0.00     0.240 C 
HETATM    8  N   UNL     1      41.672 -13.066   0.596  1.00  0.00    -0.324 N 
HETATM    9  H   UNL     1      42.079 -13.638   1.334  1.00  0.00     0.169 HD
HETATM   10  O   UNL     1      39.760 -11.750   0.455  1.00  0.00    -0.271 OA
BRANCH   8  11
HETATM   11  C   UNL     1      41.617 -13.658  -0.692  1.00  0.00     0.056 A 
HETATM   12  C   UNL     1      42.047 -13.055  -1.887  1.00  0.00     0.060 A 
HETATM   13 CL   UNL     1      42.988 -11.601  -1.935  1.00  0.00    -0.082 Cl
HETATM   14  C   UNL     1      41.857 -13.709  -3.112  1.00  0.00     0.026 A 
HETATM   15  C   UNL     1      41.275 -14.976  -3.157  1.00  0.00     0.002 A 
HETATM   16  C   UNL     1      40.916 -15.610  -1.973  1.00  0.00     0.002 A 
HETATM   17  C   UNL     1      41.104 -14.962  -0.750  1.00  0.00     0.031 A 
ENDBRANCH   8  11
ENDBRANCH   6   7
ENDBRANCH   3   6
ENDBRANCH   1   2
BRANCH   1  18
HETATM   18  N   UNL     1      42.536 -14.639   5.276  1.00  0.00    -0.282 NA
HETATM   19  H   UNL     1      41.670 -14.721   5.815  1.00  0.00     0.128 HD
BRANCH  18  20
HETATM   20  C   UNL     1      43.085 -15.923   5.075  1.00  0.00     0.045 A 
HETATM   21  C   UNL     1      43.704 -16.718   6.064  1.00  0.00     0.090 A 
HETATM   22  C   UNL     1      44.153 -18.030   5.800  1.00  0.00     0.053 A 
HETATM   23  C   UNL     1      43.900 -18.598   4.541  1.00  0.00     0.014 A 
HETATM   24  C   UNL     1      43.236 -17.825   3.600  1.00  0.00     0.089 A 
HETATM   25  C   UNL     1      44.145 -19.853   3.913  1.00  0.00     0.011 A 
HETATM   26  O   UNL     1      43.051 -18.522   2.447  1.00  0.00    -0.309 OA
HETATM   27  C   UNL     1      42.816 -16.515   3.822  1.00  0.00     0.064 A 
HETATM   28  C   UNL     1      43.602 -19.752   2.636  1.00  0.00     0.087 A 
HETATM   29  C   UNL     1      43.623 -20.777   1.692  1.00  0.00     0.038 A 
HETATM   30  C   UNL     1      44.235 -21.972   2.082  1.00  0.00     0.003 A 
HETATM   31  C   UNL     1      44.793 -22.116   3.356  1.00  0.00     0.001 A 
HETATM   32  C   UNL     1      44.756 -21.066   4.285  1.00  0.00     0.015 A 
BRANCH  21  33
HETATM   33  O   UNL     1      43.936 -16.204   7.318  1.00  0.00    -0.354 OA
HETATM   34  C   UNL     1      43.404 -17.056   8.338  1.00  0.00     0.210 C 
ENDBRANCH  21  33
ENDBRANCH  18  20
ENDBRANCH   1  18
TORSDOF 7
ENDMDL
MODEL 6
REMARK VINA RESULT:      -8.5      4.984      7.825
REMARK  7 active torsions:
REMARK  status: ('A' for Active; 'I' for Inactive)
REMARK       I    between atoms: N_2  and  C_3 
REMARK    1  A    between atoms: N_2  and  C_22 
REMARK    2  A    between atoms: C_3  and  C_4 
REMARK    3  A    between atoms: C_4  and  N_5 
REMARK    4  A    between atoms: N_5  and  C_6 
REMARK    5  A    between atoms: C_7  and  O_8 
REMARK    6  A    between atoms: C_22  and  C_23 
REMARK       I    between atoms: C_23  and  N_24 
REMARK    7  A    between atoms: N_24  and  C_25 
ROOT
HETATM    1  C   UNL     1      42.847 -13.656   2.991  1.00  0.00     0.195 C 
ENDROOT
BRANCH   1   2
HETATM    2  C   UNL     1      41.814 -12.524   2.817  1.00  0.00     0.233 C 
HETATM    3  N   UNL     1      41.746 -11.891   1.575  1.00  0.00    -0.347 N 
HETATM    4  C   UNL     1      40.933 -10.691   1.466  1.00  0.00     0.153 C 
HETATM    5  O   UNL     1      41.202 -12.099   3.803  1.00  0.00    -0.272 OA
BRANCH   3   6
HETATM    6  C   UNL     1      42.070 -12.574   0.316  1.00  0.00     0.228 C 
BRANCH   6   7
HETATM    7  C   UNL     1      40.996 -13.488  -0.292  1.00  0.00     0.240 C 
HETATM    8  N   UNL     1      40.843 -13.371  -1.662  1.00  0.00    -0.324 N 
HETATM    9  H   UNL     1      41.711 -13.147  -2.145  1.00  0.00     0.169 HD
HETATM   10  O   UNL     1      40.355 -14.240   0.439  1.00  0.00    -0.271 OA
BRANCH   8  11
HETATM   11  C   UNL     1      39.877 -14.084  -2.416  1.00  0.00     0.056 A 
HETATM   12  C   UNL     1      38.504 -13.788  -2.471  1.00  0.00     0.060 A 
HETATM   13 CL   UNL     1      37.820 -12.319  -1.857  1.00  0.00    -0.082 Cl
HETATM   14  C   UNL     1      37.632 -14.624  -3.184  1.00  0.00     0.026 A 
HETATM   15  C   UNL     1      38.121 -15.734  -3.873  1.00  0.00     0.002 A 
HETATM   16  C   UNL     1      39.487 -15.990  -3.885  1.00  0.00     0.002 A 
HETATM   17  C   UNL     1      40.358 -15.159  -3.177  1.00  0.00     0.031 A 
ENDBRANCH   8  11
ENDBRANCH   6   7
ENDBRANCH   3   6
ENDBRANCH   1   2
BRANCH   1  18
HETATM   18  N   UNL     1      42.075 -14.910   3.041  1.00  0.00    -0.282 NA
HETATM   19  H   UNL     1      41.671 -15.072   2.115  1.00  0.00     0.128 HD
BRANCH  18  20
HETATM   20  C   UNL     1      42.690 -16.094   3.498  1.00  0.00     0.045 A 
HETATM   21  C   UNL     1      42.995 -16.399   4.843  1.00  0.00     0.090 A 
HETATM   22  C   UNL     1      43.533 -17.645   5.228  1.00  0.00     0.053 A 
HETATM   23  C   UNL     1      43.691 -18.649   4.259  1.00  0.00     0.014 A 
HETATM   24  C   UNL     1      43.328 -18.355   2.952  1.00  0.00     0.089 A 
HETATM   25  C   UNL     1      44.145 -19.999   4.243  1.00  0.00     0.011 A 
HETATM   26  O   UNL     1      43.521 -19.432   2.144  1.00  0.00    -0.309 OA
HETATM   27  C   UNL     1      42.830 -17.120   2.540  1.00  0.00     0.064 A 
HETATM   28  C   UNL     1      44.016 -20.429   2.926  1.00  0.00     0.087 A 
HETATM   29  C   UNL     1      44.349 -21.708   2.483  1.00  0.00     0.038 A 
HETATM   30  C   UNL     1      44.840 -22.594   3.447  1.00  0.00     0.003 A 
HETATM   31  C   UNL     1      44.985 -22.203   4.781  1.00  0.00     0.001 A 
HETATM   32  C   UNL     1      44.641 -20.909   5.197  1.00  0.00     0.015 A 
BRANCH  21  33
HETATM   33  O   UNL     1      42.821 -15.449   5.823  1.00  0.00    -0.354 OA
HETATM   34  C   UNL     1      44.074 -15.042   6.382  1.00  0.00     0.210 C 
ENDBRANCH  21  33
ENDBRANCH  18  20
ENDBRANCH   1  18
TORSDOF 7
ENDMDL
MODEL 7
REMARK VINA RESULT:      -8.5      5.021      8.834
REMARK  7 active torsions:
REMARK  status: ('A' for Active; 'I' for Inactive)
REMARK       I    between atoms: N_2  and  C_3 
REMARK    1  A    between atoms: N_2  and  C_22 
REMARK    2  A    between atoms: C_3  and  C_4 
REMARK    3  A    between atoms: C_4  and  N_5 
REMARK    4  A    between atoms: N_5  and  C_6 
REMARK    5  A    between atoms: C_7  and  O_8 
REMARK    6  A    between atoms: C_22  and  C_23 
REMARK       I    between atoms: C_23  and  N_24 
REMARK    7  A    between atoms: N_24  and  C_25 
ROOT
HETATM    1  C   UNL     1      43.187 -14.240   3.266  1.00  0.00     0.195 C 
ENDROOT
BRANCH   1   2
HETATM    2  C   UNL     1      42.229 -14.215   4.475  1.00  0.00     0.233 C 
HETATM    3  N   UNL     1      42.096 -15.386   5.224  1.00  0.00    -0.347 N 
HETATM    4  C   UNL     1      41.045 -15.437   6.226  1.00  0.00     0.153 C 
HETATM    5  O   UNL     1      41.493 -13.239   4.651  1.00  0.00    -0.272 OA
BRANCH   3   6
HETATM    6  C   UNL     1      43.181 -16.366   5.367  1.00  0.00     0.228 C 
BRANCH   6   7
HETATM    7  C   UNL     1      43.016 -17.716   4.654  1.00  0.00     0.240 C 
HETATM    8  N   UNL     1      44.192 -18.418   4.463  1.00  0.00    -0.324 N 
HETATM    9  H   UNL     1      44.875 -18.268   5.204  1.00  0.00     0.169 HD
HETATM   10  O   UNL     1      41.896 -18.084   4.303  1.00  0.00    -0.271 OA
BRANCH   8  11
HETATM   11  C   UNL     1      44.273 -19.660   3.784  1.00  0.00     0.056 A 
HETATM   12  C   UNL     1      43.955 -19.873   2.431  1.00  0.00     0.060 A 
HETATM   13 CL   UNL     1      43.694 -18.588   1.300  1.00  0.00    -0.082 Cl
HETATM   14  C   UNL     1      43.990 -21.169   1.897  1.00  0.00     0.026 A 
HETATM   15  C   UNL     1      44.375 -22.252   2.688  1.00  0.00     0.002 A 
HETATM   16  C   UNL     1      44.763 -22.038   4.005  1.00  0.00     0.002 A 
HETATM   17  C   UNL     1      44.730 -20.749   4.541  1.00  0.00     0.031 A 
ENDBRANCH   8  11
ENDBRANCH   6   7
ENDBRANCH   3   6
ENDBRANCH   1   2
BRANCH   1  18
HETATM   18  N   UNL     1      42.761 -13.140   2.384  1.00  0.00    -0.282 NA
HETATM   19  H   UNL     1      43.592 -12.764   1.920  1.00  0.00     0.128 HD
BRANCH  18  20
HETATM   20  C   UNL     1      41.749 -13.360   1.427  1.00  0.00     0.045 A 
HETATM   21  C   UNL     1      40.605 -12.554   1.237  1.00  0.00     0.090 A 
HETATM   22  C   UNL     1      39.681 -12.794   0.198  1.00  0.00     0.053 A 
HETATM   23  C   UNL     1      39.948 -13.812  -0.732  1.00  0.00     0.014 A 
HETATM   24  C   UNL     1      41.109 -14.554  -0.568  1.00  0.00     0.089 A 
HETATM   25  C   UNL     1      39.315 -14.328  -1.899  1.00  0.00     0.011 A 
HETATM   26  O   UNL     1      41.232 -15.481  -1.556  1.00  0.00    -0.309 OA
HETATM   27  C   UNL     1      42.017 -14.363   0.471  1.00  0.00     0.064 A 
HETATM   28  C   UNL     1      40.145 -15.344  -2.364  1.00  0.00     0.087 A 
HETATM   29  C   UNL     1      39.888 -16.106  -3.502  1.00  0.00     0.038 A 
HETATM   30  C   UNL     1      38.715 -15.808  -4.201  1.00  0.00     0.003 A 
HETATM   31  C   UNL     1      37.854 -14.795  -3.770  1.00  0.00     0.001 A 
HETATM   32  C   UNL     1      38.140 -14.044  -2.620  1.00  0.00     0.015 A 
BRANCH  21  33
HETATM   33  O   UNL     1      40.331 -11.528   2.111  1.00  0.00    -0.354 OA
HETATM   34  C   UNL     1      39.036 -11.680   2.703  1.00  0.00     0.210 C 
ENDBRANCH  21  33
ENDBRANCH  18  20
ENDBRANCH   1  18
TORSDOF 7
ENDMDL
MODEL 8
REMARK VINA RESULT:      -8.5      6.125      8.806
REMARK  7 active torsions:
REMARK  status: ('A' for Active; 'I' for Inactive)
REMARK       I    between atoms: N_2  and  C_3 
REMARK    1  A    between atoms: N_2  and  C_22 
REMARK    2  A    between atoms: C_3  and  C_4 
REMARK    3  A    between atoms: C_4  and  N_5 
REMARK    4  A    between atoms: N_5  and  C_6 
REMARK    5  A    between atoms: C_7  and  O_8 
REMARK    6  A    between atoms: C_22  and  C_23 
REMARK       I    between atoms: C_23  and  N_24 
REMARK    7  A    between atoms: N_24  and  C_25 
ROOT
HETATM    1  C   UNL     1      41.623 -14.834   1.646  1.00  0.00     0.195 C 
ENDROOT
BRANCH   1   2
HETATM    2  C   UNL     1      41.931 -13.640   0.718  1.00  0.00     0.233 C 
HETATM    3  N   UNL     1      41.785 -13.831  -0.657  1.00  0.00    -0.347 N 
HETATM    4  C   UNL     1      42.274 -12.789  -1.544  1.00  0.00     0.153 C 
HETATM    5  O   UNL     1      42.448 -12.621   1.186  1.00  0.00    -0.272 OA
BRANCH   3   6
HETATM    6  C   UNL     1      40.814 -14.772  -1.231  1.00  0.00     0.228 C 
BRANCH   6   7
HETATM    7  C   UNL     1      39.436 -14.216  -1.626  1.00  0.00     0.240 C 
HETATM    8  N   UNL     1      39.178 -14.219  -2.984  1.00  0.00    -0.324 N 
HETATM    9  H   UNL     1      39.619 -14.996  -3.475  1.00  0.00     0.169 HD
HETATM   10  O   UNL     1      38.672 -13.812  -0.751  1.00  0.00    -0.271 OA
BRANCH   8  11
HETATM   11  C   UNL     1      37.992 -13.706  -3.567  1.00  0.00     0.056 A 
HETATM   12  C   UNL     1      37.644 -12.347  -3.650  1.00  0.00     0.060 A 
HETATM   13 CL   UNL     1      38.753 -11.058  -3.315  1.00  0.00    -0.082 Cl
HETATM   14  C   UNL     1      36.398 -11.970  -4.170  1.00  0.00     0.026 A 
HETATM   15  C   UNL     1      35.508 -12.934  -4.645  1.00  0.00     0.002 A 
HETATM   16  C   UNL     1      35.876 -14.274  -4.635  1.00  0.00     0.002 A 
HETATM   17  C   UNL     1      37.116 -14.653  -4.118  1.00  0.00     0.031 A 
ENDBRANCH   8  11
ENDBRANCH   6   7
ENDBRANCH   3   6
ENDBRANCH   1   2
BRANCH   1  18
HETATM   18  N   UNL     1      42.655 -14.813   2.696  1.00  0.00    -0.282 NA
HETATM   19  H   UNL     1      42.315 -14.232   3.466  1.00  0.00     0.128 HD
BRANCH  18  20
HETATM   20  C   UNL     1      43.158 -16.027   3.210  1.00  0.00     0.045 A 
HETATM   21  C   UNL     1      43.394 -16.308   4.574  1.00  0.00     0.090 A 
HETATM   22  C   UNL     1      43.818 -17.580   5.015  1.00  0.00     0.053 A 
HETATM   23  C   UNL     1      43.926 -18.625   4.084  1.00  0.00     0.014 A 
HETATM   24  C   UNL     1      43.631 -18.347   2.757  1.00  0.00     0.089 A 
HETATM   25  C   UNL     1      44.272 -20.007   4.126  1.00  0.00     0.011 A 
HETATM   26  O   UNL     1      43.764 -19.462   1.989  1.00  0.00    -0.309 OA
HETATM   27  C   UNL     1      43.247 -17.092   2.289  1.00  0.00     0.064 A 
HETATM   28  C   UNL     1      44.152 -20.469   2.819  1.00  0.00     0.087 A 
HETATM   29  C   UNL     1      44.395 -21.784   2.428  1.00  0.00     0.038 A 
HETATM   30  C   UNL     1      44.783 -22.673   3.435  1.00  0.00     0.003 A 
HETATM   31  C   UNL     1      44.915 -22.251   4.761  1.00  0.00     0.001 A 
HETATM   32  C   UNL     1      44.662 -20.920   5.125  1.00  0.00     0.015 A 
BRANCH  21  33
HETATM   33  O   UNL     1      43.264 -15.316   5.517  1.00  0.00    -0.354 OA
HETATM   34  C   UNL     1      43.911 -15.674   6.742  1.00  0.00     0.210 C 
ENDBRANCH  21  33
ENDBRANCH  18  20
ENDBRANCH   1  18
TORSDOF 7
ENDMDL
MODEL 9
REMARK VINA RESULT:      -8.3      6.173     10.077
REMARK  7 active torsions:
REMARK  status: ('A' for Active; 'I' for Inactive)
REMARK       I    between atoms: N_2  and  C_3 
REMARK    1  A    between atoms: N_2  and  C_22 
REMARK    2  A    between atoms: C_3  and  C_4 
REMARK    3  A    between atoms: C_4  and  N_5 
REMARK    4  A    between atoms: N_5  and  C_6 
REMARK    5  A    between atoms: C_7  and  O_8 
REMARK    6  A    between atoms: C_22  and  C_23 
REMARK       I    between atoms: C_23  and  N_24 
REMARK    7  A    between atoms: N_24  and  C_25 
ROOT
HETATM    1  C   UNL     1      41.128 -13.799   1.768  1.00  0.00     0.195 C 
ENDROOT
BRANCH   1   2
HETATM    2  C   UNL     1      42.248 -13.964   2.817  1.00  0.00     0.233 C 
HETATM    3  N   UNL     1      41.992 -14.783   3.918  1.00  0.00    -0.347 N 
HETATM    4  C   UNL     1      42.951 -14.775   5.010  1.00  0.00     0.153 C 
HETATM    5  O   UNL     1      43.257 -13.255   2.750  1.00  0.00    -0.272 OA
BRANCH   3   6
HETATM    6  C   UNL     1      41.085 -15.937   3.857  1.00  0.00     0.228 C 
BRANCH   6   7
HETATM    7  C   UNL     1      41.699 -17.333   4.037  1.00  0.00     0.240 C 
HETATM    8  N   UNL     1      42.670 -17.662   3.109  1.00  0.00    -0.324 N 
HETATM    9  H   UNL     1      43.213 -16.860   2.793  1.00  0.00     0.169 HD
HETATM   10  O   UNL     1      41.310 -18.054   4.954  1.00  0.00    -0.271 OA
BRANCH   8  11
HETATM   11  C   UNL     1      43.329 -18.917   3.062  1.00  0.00     0.056 A 
HETATM   12  C   UNL     1      44.315 -19.356   3.963  1.00  0.00     0.060 A 
HETATM   13 CL   UNL     1      44.672 -18.548   5.453  1.00  0.00    -0.082 Cl
HETATM   14  C   UNL     1      44.959 -20.585   3.757  1.00  0.00     0.026 A 
HETATM   15  C   UNL     1      44.603 -21.399   2.682  1.00  0.00     0.002 A 
HETATM   16  C   UNL     1      43.577 -21.006   1.830  1.00  0.00     0.002 A 
HETATM   17  C   UNL     1      42.934 -19.783   2.032  1.00  0.00     0.031 A 
ENDBRANCH   8  11
ENDBRANCH   6   7
ENDBRANCH   3   6
ENDBRANCH   1   2
BRANCH   1  18
HETATM   18  N   UNL     1      41.599 -14.490   0.556  1.00  0.00    -0.282 NA
HETATM   19  H   UNL     1      40.984 -15.290   0.386  1.00  0.00     0.128 HD
BRANCH  18  20
HETATM   20  C   UNL     1      41.768 -13.766  -0.643  1.00  0.00     0.045 A 
HETATM   21  C   UNL     1      41.491 -14.247  -1.942  1.00  0.00     0.090 A 
HETATM   22  C   UNL     1      41.607 -13.429  -3.086  1.00  0.00     0.053 A 
HETATM   23  C   UNL     1      41.922 -12.070  -2.924  1.00  0.00     0.014 A 
HETATM   24  C   UNL     1      42.131 -11.599  -1.636  1.00  0.00     0.089 A 
HETATM   25  C   UNL     1      42.090 -10.945  -3.783  1.00  0.00     0.011 A 
HETATM   26  O   UNL     1      42.405 -10.266  -1.648  1.00  0.00    -0.309 OA
HETATM   27  C   UNL     1      42.060 -12.394  -0.494  1.00  0.00     0.064 A 
HETATM   28  C   UNL     1      42.380  -9.870  -2.950  1.00  0.00     0.087 A 
HETATM   29  C   UNL     1      42.609  -8.571  -3.398  1.00  0.00     0.038 A 
HETATM   30  C   UNL     1      42.534  -8.365  -4.779  1.00  0.00     0.003 A 
HETATM   31  C   UNL     1      42.245  -9.418  -5.652  1.00  0.00     0.001 A 
HETATM   32  C   UNL     1      42.019 -10.716  -5.171  1.00  0.00     0.015 A 
BRANCH  21  33
HETATM   33  O   UNL     1      41.147 -15.565  -2.132  1.00  0.00    -0.354 OA
HETATM   34  C   UNL     1      40.267 -15.717  -3.249  1.00  0.00     0.210 C 
ENDBRANCH  21  33
ENDBRANCH  18  20
ENDBRANCH   1  18
TORSDOF 7
ENDMDL
MODEL 10
REMARK VINA RESULT:      -8.1      5.629      9.450
REMARK  7 active torsions:
REMARK  status: ('A' for Active; 'I' for Inactive)
REMARK       I    between atoms: N_2  and  C_3 
REMARK    1  A    between atoms: N_2  and  C_22 
REMARK    2  A    between atoms: C_3  and  C_4 
REMARK    3  A    between atoms: C_4  and  N_5 
REMARK    4  A    between atoms: N_5  and  C_6 
REMARK    5  A    between atoms: C_7  and  O_8 
REMARK    6  A    between atoms: C_22  and  C_23 
REMARK       I    between atoms: C_23  and  N_24 
REMARK    7  A    between atoms: N_24  and  C_25 
ROOT
HETATM    1  C   UNL     1      42.316 -14.781   2.623  1.00  0.00     0.195 C 
ENDROOT
BRANCH   1   2
HETATM    2  C   UNL     1      41.446 -14.398   3.839  1.00  0.00     0.233 C 
HETATM    3  N   UNL     1      41.451 -15.258   4.939  1.00  0.00    -0.347 N 
HETATM    4  C   UNL     1      40.480 -15.020   5.992  1.00  0.00     0.153 C 
HETATM    5  O   UNL     1      40.655 -13.453   3.750  1.00  0.00    -0.272 OA
BRANCH   3   6
HETATM    6  C   UNL     1      42.613 -16.083   5.297  1.00  0.00     0.228 C 
BRANCH   6   7
HETATM    7  C   UNL     1      42.634 -17.534   4.793  1.00  0.00     0.240 C 
HETATM    8  N   UNL     1      43.831 -17.934   4.229  1.00  0.00    -0.324 N 
HETATM    9  H   UNL     1      44.643 -17.487   4.650  1.00  0.00     0.169 HD
HETATM   10  O   UNL     1      41.628 -18.231   4.911  1.00  0.00    -0.271 OA
BRANCH   8  11
HETATM   11  C   UNL     1      44.050 -19.213   3.657  1.00  0.00     0.056 A 
HETATM   12  C   UNL     1      43.797 -19.564   2.320  1.00  0.00     0.060 A 
HETATM   13 CL   UNL     1      43.453 -18.405   1.079  1.00  0.00    -0.082 Cl
HETATM   14  C   UNL     1      43.970 -20.889   1.896  1.00  0.00     0.026 A 
HETATM   15  C   UNL     1      44.430 -21.863   2.783  1.00  0.00     0.002 A 
HETATM   16  C   UNL     1      44.754 -21.507   4.087  1.00  0.00     0.002 A 
HETATM   17  C   UNL     1      44.582 -20.188   4.513  1.00  0.00     0.031 A 
ENDBRANCH   8  11
ENDBRANCH   6   7
ENDBRANCH   3   6
ENDBRANCH   1   2
BRANCH   1  18
HETATM   18  N   UNL     1      41.405 -15.405   1.649  1.00  0.00    -0.282 NA
HETATM   19  H   UNL     1      40.591 -15.761   2.157  1.00  0.00     0.128 HD
BRANCH  18  20
HETATM   20  C   UNL     1      40.973 -14.673   0.523  1.00  0.00     0.045 A 
HETATM   21  C   UNL     1      39.661 -14.202   0.301  1.00  0.00     0.090 A 
HETATM   22  C   UNL     1      39.328 -13.401  -0.813  1.00  0.00     0.053 A 
HETATM   23  C   UNL     1      40.349 -12.985  -1.683  1.00  0.00     0.014 A 
HETATM   24  C   UNL     1      41.644 -13.405  -1.415  1.00  0.00     0.089 A 
HETATM   25  C   UNL     1      40.435 -12.175  -2.852  1.00  0.00     0.011 A 
HETATM   26  O   UNL     1      42.514 -12.903  -2.333  1.00  0.00    -0.309 OA
HETATM   27  C   UNL     1      41.992 -14.227  -0.345  1.00  0.00     0.064 A 
HETATM   28  C   UNL     1      41.781 -12.157  -3.204  1.00  0.00     0.087 A 
HETATM   29  C   UNL     1      42.295 -11.464  -4.298  1.00  0.00     0.038 A 
HETATM   30  C   UNL     1      41.375 -10.749  -5.073  1.00  0.00     0.003 A 
HETATM   31  C   UNL     1      40.015 -10.741  -4.754  1.00  0.00     0.001 A 
HETATM   32  C   UNL     1      39.526 -11.448  -3.645  1.00  0.00     0.015 A 
BRANCH  21  33
HETATM   33  O   UNL     1      38.643 -14.564   1.153  1.00  0.00    -0.354 OA
HETATM   34  C   UNL     1      37.389 -14.022   0.726  1.00  0.00     0.210 C 
ENDBRANCH  21  33
ENDBRANCH  18  20
ENDBRANCH   1  18
TORSDOF 7
ENDMDL
