MODEL 1
REMARK VINA RESULT:      -9.1      0.000      0.000
REMARK  4 active torsions:
REMARK  status: ('A' for Active; 'I' for Inactive)
REMARK    1  A    between atoms: O_2  and  C_3 
REMARK    2  A    between atoms: C_4  and  C_5 
REMARK    3  A    between atoms: C_9  and  N_10 
REMARK    4  A    between atoms: C_13  and  C_14 
ROOT
HETATM    1  C   UNL     1      43.012 -18.099   3.564  1.00  0.00     0.167 C 
HETATM    2  N   UNL     1      42.342 -17.370   2.489  1.00  0.00    -0.074 N 
HETATM    3  C   UNL     1      41.292 -16.514   2.691  1.00  0.00     0.736 A 
HETATM    4  N   UNL     1      41.016 -15.905   1.567  1.00  0.00     0.131 NA
HETATM    5  C   UNL     1      41.963 -16.388   0.715  1.00  0.00     0.753 A 
HETATM    6  N   UNL     1      42.810 -17.274   1.230  1.00  0.00     0.037 NA
HETATM    7  N   UNL     1      40.734 -16.349   3.908  1.00  0.00    -0.214 N 
HETATM    8  C   UNL     1      41.392 -16.866   5.102  1.00  0.00     0.135 C 
HETATM    9  C   UNL     1      42.090 -18.202   4.795  1.00  0.00     0.063 C 
HETATM   10  H   UNL     1      40.152 -15.527   4.039  1.00  0.00     0.178 HD
ENDROOT
BRANCH   1  11
HETATM   11  C   UNL     1      43.485 -19.477   3.118  1.00  0.00     0.001 A 
HETATM   12  C   UNL     1      44.424 -20.198   3.877  1.00  0.00     0.076 A 
HETATM   13  C   UNL     1      44.825 -21.476   3.472  1.00  0.00     0.037 A 
HETATM   14  C   UNL     1      44.322 -22.035   2.297  1.00  0.00     0.003 A 
HETATM   15  C   UNL     1      43.410 -21.324   1.525  1.00  0.00     0.001 A 
HETATM   16  C   UNL     1      42.993 -20.056   1.931  1.00  0.00     0.012 A 
BRANCH  12  17
HETATM   17  O   UNL     1      44.867 -19.622   5.040  1.00  0.00    -0.355 OA
HETATM   18  C   UNL     1      44.369 -20.230   6.231  1.00  0.00     0.210 C 
ENDBRANCH  12  17
ENDBRANCH   1  11
BRANCH   8  19
HETATM   19  C   UNL     1      42.307 -15.855   5.776  1.00  0.00    -0.035 A 
HETATM   20  C   UNL     1      43.255 -16.322   6.708  1.00  0.00     0.010 A 
HETATM   21  C   UNL     1      44.134 -15.443   7.346  1.00  0.00     0.019 A 
HETATM   22  C   UNL     1      44.081 -14.083   7.057  1.00  0.00     0.011 A 
HETATM   23 BR   UNL     1      45.271 -12.893   7.916  1.00  0.00    -0.051 Br
HETATM   24  C   UNL     1      43.156 -13.597   6.139  1.00  0.00     0.019 A 
HETATM   25  C   UNL     1      42.275 -14.477   5.503  1.00  0.00     0.010 A 
ENDBRANCH   8  19
BRANCH   5  26
HETATM   26  N   UNL     1      41.968 -15.955  -0.543  1.00  0.00    -0.229 N 
HETATM   27  H   UNL     1      41.211 -15.343  -0.811  1.00  0.00     0.174 HD
HETATM   28  H   UNL     1      42.241 -16.629  -1.246  1.00  0.00     0.174 HD
ENDBRANCH   5  26
TORSDOF 4
ENDMDL
MODEL 2
REMARK VINA RESULT:      -8.3      3.144      4.905
REMARK  4 active torsions:
REMARK  status: ('A' for Active; 'I' for Inactive)
REMARK    1  A    between atoms: O_2  and  C_3 
REMARK    2  A    between atoms: C_4  and  C_5 
REMARK    3  A    between atoms: C_9  and  N_10 
REMARK    4  A    between atoms: C_13  and  C_14 
ROOT
HETATM    1  C   UNL     1      42.662 -17.579   2.700  1.00  0.00     0.167 C 
HETATM    2  N   UNL     1      42.056 -17.125   3.949  1.00  0.00    -0.074 N 
HETATM    3  C   UNL     1      41.996 -15.810   4.330  1.00  0.00     0.736 A 
HETATM    4  N   UNL     1      41.264 -15.712   5.409  1.00  0.00     0.131 NA
HETATM    5  C   UNL     1      40.856 -16.994   5.622  1.00  0.00     0.753 A 
HETATM    6  N   UNL     1      41.296 -17.896   4.749  1.00  0.00     0.037 NA
HETATM    7  N   UNL     1      42.582 -14.834   3.608  1.00  0.00    -0.214 N 
HETATM    8  C   UNL     1      43.071 -15.100   2.261  1.00  0.00     0.135 C 
HETATM    9  C   UNL     1      43.651 -16.522   2.170  1.00  0.00     0.063 C 
HETATM   10  H   UNL     1      42.284 -13.881   3.795  1.00  0.00     0.178 HD
ENDROOT
BRANCH   1  11
HETATM   11  C   UNL     1      43.341 -18.936   2.849  1.00  0.00     0.001 A 
HETATM   12  C   UNL     1      44.263 -19.171   3.884  1.00  0.00     0.076 A 
HETATM   13  C   UNL     1      44.855 -20.432   4.027  1.00  0.00     0.037 A 
HETATM   14  C   UNL     1      44.561 -21.456   3.127  1.00  0.00     0.003 A 
HETATM   15  C   UNL     1      43.668 -21.230   2.085  1.00  0.00     0.001 A 
HETATM   16  C   UNL     1      43.062 -19.982   1.946  1.00  0.00     0.012 A 
BRANCH  12  17
HETATM   17  O   UNL     1      44.497 -18.145   4.763  1.00  0.00    -0.355 OA
HETATM   18  C   UNL     1      44.748 -18.557   6.104  1.00  0.00     0.210 C 
ENDBRANCH  12  17
ENDBRANCH   1  11
BRANCH   8  19
HETATM   19  C   UNL     1      42.049 -14.800   1.174  1.00  0.00    -0.035 A 
HETATM   20  C   UNL     1      41.294 -13.615   1.269  1.00  0.00     0.010 A 
HETATM   21  C   UNL     1      40.353 -13.278   0.292  1.00  0.00     0.019 A 
HETATM   22  C   UNL     1      40.157 -14.121  -0.797  1.00  0.00     0.011 A 
HETATM   23 BR   UNL     1      38.887 -13.666  -2.121  1.00  0.00    -0.051 Br
HETATM   24  C   UNL     1      40.891 -15.296  -0.915  1.00  0.00     0.019 A 
HETATM   25  C   UNL     1      41.831 -15.634   0.064  1.00  0.00     0.010 A 
ENDBRANCH   8  19
BRANCH   5  26
HETATM   26  N   UNL     1      40.071 -17.248   6.665  1.00  0.00    -0.229 N 
HETATM   27  H   UNL     1      39.271 -16.642   6.785  1.00  0.00     0.174 HD
HETATM   28  H   UNL     1      40.537 -17.513   7.523  1.00  0.00     0.174 HD
ENDBRANCH   5  26
TORSDOF 4
ENDMDL
MODEL 3
REMARK VINA RESULT:      -8.2      3.292      4.993
REMARK  4 active torsions:
REMARK  status: ('A' for Active; 'I' for Inactive)
REMARK    1  A    between atoms: O_2  and  C_3 
REMARK    2  A    between atoms: C_4  and  C_5 
REMARK    3  A    between atoms: C_9  and  N_10 
REMARK    4  A    between atoms: C_13  and  C_14 
ROOT
HETATM    1  C   UNL     1      42.975 -16.236   4.281  1.00  0.00     0.167 C 
HETATM    2  N   UNL     1      43.370 -16.289   5.687  1.00  0.00    -0.074 N 
HETATM    3  C   UNL     1      43.941 -15.240   6.356  1.00  0.00     0.736 A 
HETATM    4  N   UNL     1      44.034 -15.543   7.625  1.00  0.00     0.131 NA
HETATM    5  C   UNL     1      43.457 -16.775   7.690  1.00  0.00     0.753 A 
HETATM    6  N   UNL     1      43.018 -17.272   6.537  1.00  0.00     0.037 NA
HETATM    7  N   UNL     1      44.269 -14.091   5.729  1.00  0.00    -0.214 N 
HETATM    8  C   UNL     1      43.786 -13.819   4.381  1.00  0.00     0.135 C 
HETATM    9  C   UNL     1      43.743 -15.115   3.553  1.00  0.00     0.063 C 
HETATM   10  H   UNL     1      44.438 -13.280   6.316  1.00  0.00     0.178 HD
ENDROOT
BRANCH   1  11
HETATM   11  C   UNL     1      43.166 -17.574   3.577  1.00  0.00     0.001 A 
HETATM   12  C   UNL     1      42.332 -17.953   2.511  1.00  0.00     0.076 A 
HETATM   13  C   UNL     1      42.538 -19.172   1.854  1.00  0.00     0.037 A 
HETATM   14  C   UNL     1      43.552 -20.035   2.269  1.00  0.00     0.003 A 
HETATM   15  C   UNL     1      44.371 -19.682   3.337  1.00  0.00     0.001 A 
HETATM   16  C   UNL     1      44.181 -18.463   3.986  1.00  0.00     0.012 A 
BRANCH  12  17
HETATM   17  O   UNL     1      41.369 -17.060   2.118  1.00  0.00    -0.355 OA
HETATM   18  C   UNL     1      41.478 -16.627   0.763  1.00  0.00     0.210 C 
ENDBRANCH  12  17
ENDBRANCH   1  11
BRANCH   8  19
HETATM   19  C   UNL     1      42.475 -13.046   4.351  1.00  0.00    -0.035 A 
HETATM   20  C   UNL     1      41.839 -12.848   3.109  1.00  0.00     0.010 A 
HETATM   21  C   UNL     1      40.626 -12.162   3.021  1.00  0.00     0.019 A 
HETATM   22  C   UNL     1      40.026 -11.669   4.176  1.00  0.00     0.011 A 
HETATM   23 BR   UNL     1      38.382 -10.744   4.059  1.00  0.00    -0.051 Br
HETATM   24  C   UNL     1      40.631 -11.854   5.414  1.00  0.00     0.019 A 
HETATM   25  C   UNL     1      41.848 -12.538   5.501  1.00  0.00     0.010 A 
ENDBRANCH   8  19
BRANCH   5  26
HETATM   26  N   UNL     1      43.383 -17.382   8.871  1.00  0.00    -0.229 N 
HETATM   27  H   UNL     1      42.494 -17.332   9.348  1.00  0.00     0.174 HD
HETATM   28  H   UNL     1      44.193 -17.297   9.470  1.00  0.00     0.174 HD
ENDBRANCH   5  26
TORSDOF 4
ENDMDL
MODEL 4
REMARK VINA RESULT:      -8.1      3.783      6.964
REMARK  4 active torsions:
REMARK  status: ('A' for Active; 'I' for Inactive)
REMARK    1  A    between atoms: O_2  and  C_3 
REMARK    2  A    between atoms: C_4  and  C_5 
REMARK    3  A    between atoms: C_9  and  N_10 
REMARK    4  A    between atoms: C_13  and  C_14 
ROOT
HETATM    1  C   UNL     1      41.929 -15.098   5.303  1.00  0.00     0.167 C 
HETATM    2  N   UNL     1      42.995 -14.773   6.247  1.00  0.00    -0.074 N 
HETATM    3  C   UNL     1      43.482 -15.654   7.176  1.00  0.00     0.736 A 
HETATM    4  N   UNL     1      44.525 -15.124   7.761  1.00  0.00     0.131 NA
HETATM    5  C   UNL     1      44.666 -13.932   7.116  1.00  0.00     0.753 A 
HETATM    6  N   UNL     1      43.769 -13.674   6.170  1.00  0.00     0.037 NA
HETATM    7  N   UNL     1      42.940 -16.877   7.347  1.00  0.00    -0.214 N 
HETATM    8  C   UNL     1      41.995 -17.412   6.375  1.00  0.00     0.135 C 
HETATM    9  C   UNL     1      41.100 -16.290   5.822  1.00  0.00     0.063 C 
HETATM   10  H   UNL     1      43.499 -17.561   7.850  1.00  0.00     0.178 HD
ENDROOT
BRANCH   1  11
HETATM   11  C   UNL     1      41.036 -13.900   5.006  1.00  0.00     0.001 A 
HETATM   12  C   UNL     1      41.225 -13.128   3.846  1.00  0.00     0.076 A 
HETATM   13  C   UNL     1      40.377 -12.049   3.571  1.00  0.00     0.037 A 
HETATM   14  C   UNL     1      39.357 -11.709   4.459  1.00  0.00     0.003 A 
HETATM   15  C   UNL     1      39.172 -12.450   5.621  1.00  0.00     0.001 A 
HETATM   16  C   UNL     1      40.003 -13.536   5.894  1.00  0.00     0.012 A 
BRANCH  12  17
HETATM   17  O   UNL     1      42.221 -13.518   2.987  1.00  0.00    -0.355 OA
HETATM   18  C   UNL     1      42.090 -13.016   1.659  1.00  0.00     0.210 C 
ENDBRANCH  12  17
ENDBRANCH   1  11
BRANCH   8  19
HETATM   19  C   UNL     1      42.652 -18.245   5.284  1.00  0.00    -0.035 A 
HETATM   20  C   UNL     1      43.641 -19.179   5.654  1.00  0.00     0.010 A 
HETATM   21  C   UNL     1      44.266 -19.984   4.699  1.00  0.00     0.019 A 
HETATM   22  C   UNL     1      43.907 -19.871   3.359  1.00  0.00     0.011 A 
HETATM   23 BR   UNL     1      44.749 -20.961   2.066  1.00  0.00    -0.051 Br
HETATM   24  C   UNL     1      42.932 -18.959   2.969  1.00  0.00     0.019 A 
HETATM   25  C   UNL     1      42.308 -18.151   3.925  1.00  0.00     0.010 A 
ENDBRANCH   8  19
BRANCH   5  26
HETATM   26  N   UNL     1      45.663 -13.128   7.476  1.00  0.00    -0.229 N 
HETATM   27  H   UNL     1      45.804 -12.305   6.908  1.00  0.00     0.174 HD
HETATM   28  H   UNL     1      46.512 -13.580   7.789  1.00  0.00     0.174 HD
ENDBRANCH   5  26
TORSDOF 4
ENDMDL
MODEL 5
REMARK VINA RESULT:      -7.8      3.681      6.025
REMARK  4 active torsions:
REMARK  status: ('A' for Active; 'I' for Inactive)
REMARK    1  A    between atoms: O_2  and  C_3 
REMARK    2  A    between atoms: C_4  and  C_5 
REMARK    3  A    between atoms: C_9  and  N_10 
REMARK    4  A    between atoms: C_13  and  C_14 
ROOT
HETATM    1  C   UNL     1      42.255 -15.313   3.839  1.00  0.00     0.167 C 
HETATM    2  N   UNL     1      41.560 -14.367   4.709  1.00  0.00    -0.074 N 
HETATM    3  C   UNL     1      41.453 -13.027   4.443  1.00  0.00     0.736 A 
HETATM    4  N   UNL     1      40.649 -12.481   5.318  1.00  0.00     0.131 NA
HETATM    5  C   UNL     1      40.248 -13.543   6.071  1.00  0.00     0.753 A 
HETATM    6  N   UNL     1      40.760 -14.722   5.732  1.00  0.00     0.037 NA
HETATM    7  N   UNL     1      42.072 -12.462   3.386  1.00  0.00    -0.214 N 
HETATM    8  C   UNL     1      42.654 -13.290   2.337  1.00  0.00     0.135 C 
HETATM    9  C   UNL     1      43.260 -14.570   2.937  1.00  0.00     0.063 C 
HETATM   10  H   UNL     1      41.746 -11.543   3.101  1.00  0.00     0.178 HD
ENDROOT
BRANCH   1  11
HETATM   11  C   UNL     1      42.944 -16.421   4.628  1.00  0.00     0.001 A 
HETATM   12  C   UNL     1      42.834 -17.765   4.229  1.00  0.00     0.076 A 
HETATM   13  C   UNL     1      43.498 -18.769   4.945  1.00  0.00     0.037 A 
HETATM   14  C   UNL     1      44.249 -18.450   6.076  1.00  0.00     0.003 A 
HETATM   15  C   UNL     1      44.347 -17.127   6.494  1.00  0.00     0.001 A 
HETATM   16  C   UNL     1      43.702 -16.120   5.777  1.00  0.00     0.012 A 
BRANCH  12  17
HETATM   17  O   UNL     1      42.112 -18.027   3.093  1.00  0.00    -0.355 OA
HETATM   18  C   UNL     1      42.803 -18.801   2.115  1.00  0.00     0.210 C 
ENDBRANCH  12  17
ENDBRANCH   1  11
BRANCH   8  19
HETATM   19  C   UNL     1      41.701 -13.564   1.182  1.00  0.00    -0.035 A 
HETATM   20  C   UNL     1      40.723 -12.599   0.873  1.00  0.00     0.010 A 
HETATM   21  C   UNL     1      39.833 -12.787  -0.187  1.00  0.00     0.019 A 
HETATM   22  C   UNL     1      39.912 -13.943  -0.958  1.00  0.00     0.011 A 
HETATM   23 BR   UNL     1      38.710 -14.198  -2.394  1.00  0.00    -0.051 Br
HETATM   24  C   UNL     1      40.870 -14.910  -0.674  1.00  0.00     0.019 A 
HETATM   25  C   UNL     1      41.759 -14.723   0.389  1.00  0.00     0.010 A 
ENDBRANCH   8  19
BRANCH   5  26
HETATM   26  N   UNL     1      39.399 -13.328   7.073  1.00  0.00    -0.229 N 
HETATM   27  H   UNL     1      38.436 -13.163   6.818  1.00  0.00     0.174 HD
HETATM   28  H   UNL     1      39.742 -12.761   7.837  1.00  0.00     0.174 HD
ENDBRANCH   5  26
TORSDOF 4
ENDMDL
MODEL 6
REMARK VINA RESULT:      -7.6      3.870      6.832
REMARK  4 active torsions:
REMARK  status: ('A' for Active; 'I' for Inactive)
REMARK    1  A    between atoms: O_2  and  C_3 
REMARK    2  A    between atoms: C_4  and  C_5 
REMARK    3  A    between atoms: C_9  and  N_10 
REMARK    4  A    between atoms: C_13  and  C_14 
ROOT
HETATM    1  C   UNL     1      42.510 -14.991   4.358  1.00  0.00     0.167 C 
HETATM    2  N   UNL     1      43.345 -14.698   5.520  1.00  0.00    -0.074 N 
HETATM    3  C   UNL     1      43.422 -15.506   6.624  1.00  0.00     0.736 A 
HETATM    4  N   UNL     1      44.361 -15.059   7.416  1.00  0.00     0.131 NA
HETATM    5  C   UNL     1      44.867 -13.999   6.725  1.00  0.00     0.753 A 
HETATM    6  N   UNL     1      44.296 -13.744   5.552  1.00  0.00     0.037 NA
HETATM    7  N   UNL     1      42.647 -16.602   6.756  1.00  0.00    -0.214 N 
HETATM    8  C   UNL     1      41.896 -17.121   5.620  1.00  0.00     0.135 C 
HETATM    9  C   UNL     1      41.381 -15.966   4.744  1.00  0.00     0.063 C 
HETATM   10  H   UNL     1      42.932 -17.284   7.453  1.00  0.00     0.178 HD
ENDROOT
BRANCH   1  11
HETATM   11  C   UNL     1      41.945 -13.726   3.721  1.00  0.00     0.001 A 
HETATM   12  C   UNL     1      41.095 -12.872   4.445  1.00  0.00     0.076 A 
HETATM   13  C   UNL     1      40.609 -11.698   3.857  1.00  0.00     0.037 A 
HETATM   14  C   UNL     1      40.938 -11.380   2.539  1.00  0.00     0.003 A 
HETATM   15  C   UNL     1      41.761 -12.227   1.805  1.00  0.00     0.001 A 
HETATM   16  C   UNL     1      42.261 -13.390   2.389  1.00  0.00     0.012 A 
BRANCH  12  17
HETATM   17  O   UNL     1      40.824 -13.209   5.746  1.00  0.00    -0.355 OA
HETATM   18  C   UNL     1      39.519 -12.848   6.194  1.00  0.00     0.210 C 
ENDBRANCH  12  17
ENDBRANCH   1  11
BRANCH   8  19
HETATM   19  C   UNL     1      42.648 -18.182   4.829  1.00  0.00    -0.035 A 
HETATM   20  C   UNL     1      42.398 -18.294   3.447  1.00  0.00     0.010 A 
HETATM   21  C   UNL     1      43.070 -19.236   2.666  1.00  0.00     0.019 A 
HETATM   22  C   UNL     1      44.007 -20.079   3.256  1.00  0.00     0.011 A 
HETATM   23 BR   UNL     1      44.921 -21.354   2.201  1.00  0.00    -0.051 Br
HETATM   24  C   UNL     1      44.274 -19.987   4.618  1.00  0.00     0.019 A 
HETATM   25  C   UNL     1      43.598 -19.045   5.400  1.00  0.00     0.010 A 
ENDBRANCH   8  19
BRANCH   5  26
HETATM   26  N   UNL     1      45.868 -13.307   7.263  1.00  0.00    -0.229 N 
HETATM   27  H   UNL     1      45.764 -12.303   7.277  1.00  0.00     0.174 HD
HETATM   28  H   UNL     1      46.802 -13.637   7.057  1.00  0.00     0.174 HD
ENDBRANCH   5  26
TORSDOF 4
ENDMDL
MODEL 7
REMARK VINA RESULT:      -7.6      2.698      3.956
REMARK  4 active torsions:
REMARK  status: ('A' for Active; 'I' for Inactive)
REMARK    1  A    between atoms: O_2  and  C_3 
REMARK    2  A    between atoms: C_4  and  C_5 
REMARK    3  A    between atoms: C_9  and  N_10 
REMARK    4  A    between atoms: C_13  and  C_14 
ROOT
HETATM    1  C   UNL     1      42.115 -15.575   4.799  1.00  0.00     0.167 C 
HETATM    2  N   UNL     1      41.818 -15.840   3.394  1.00  0.00    -0.074 N 
HETATM    3  C   UNL     1      40.654 -15.462   2.778  1.00  0.00     0.736 A 
HETATM    4  N   UNL     1      40.751 -15.702   1.496  1.00  0.00     0.131 NA
HETATM    5  C   UNL     1      42.019 -16.182   1.369  1.00  0.00     0.753 A 
HETATM    6  N   UNL     1      42.722 -16.272   2.494  1.00  0.00     0.037 NA
HETATM    7  N   UNL     1      39.644 -14.887   3.463  1.00  0.00    -0.214 N 
HETATM    8  C   UNL     1      39.850 -14.401   4.821  1.00  0.00     0.135 C 
HETATM    9  C   UNL     1      40.811 -15.329   5.584  1.00  0.00     0.063 C 
HETATM   10  H   UNL     1      38.937 -14.402   2.917  1.00  0.00     0.178 HD
ENDROOT
BRANCH   1  11
HETATM   11  C   UNL     1      42.934 -16.692   5.436  1.00  0.00     0.001 A 
HETATM   12  C   UNL     1      44.138 -16.412   6.104  1.00  0.00     0.076 A 
HETATM   13  C   UNL     1      44.864 -17.444   6.711  1.00  0.00     0.037 A 
HETATM   14  C   UNL     1      44.415 -18.763   6.634  1.00  0.00     0.003 A 
HETATM   15  C   UNL     1      43.236 -19.056   5.957  1.00  0.00     0.001 A 
HETATM   16  C   UNL     1      42.500 -18.031   5.363  1.00  0.00     0.012 A 
BRANCH  12  17
HETATM   17  O   UNL     1      44.524 -15.098   6.182  1.00  0.00    -0.355 OA
HETATM   18  C   UNL     1      44.364 -14.508   7.470  1.00  0.00     0.210 C 
ENDBRANCH  12  17
ENDBRANCH   1  11
BRANCH   8  19
HETATM   19  C   UNL     1      40.257 -12.936   4.886  1.00  0.00    -0.035 A 
HETATM   20  C   UNL     1      40.776 -12.434   6.096  1.00  0.00     0.010 A 
HETATM   21  C   UNL     1      41.183 -11.103   6.211  1.00  0.00     0.019 A 
HETATM   22  C   UNL     1      41.081 -10.254   5.114  1.00  0.00     0.011 A 
HETATM   23 BR   UNL     1      41.633  -8.453   5.265  1.00  0.00    -0.051 Br
HETATM   24  C   UNL     1      40.574 -10.724   3.907  1.00  0.00     0.019 A 
HETATM   25  C   UNL     1      40.164 -12.057   3.794  1.00  0.00     0.010 A 
ENDBRANCH   8  19
BRANCH   5  26
HETATM   26  N   UNL     1      42.451 -16.527   0.159  1.00  0.00    -0.229 N 
HETATM   27  H   UNL     1      41.778 -16.970  -0.450  1.00  0.00     0.174 HD
HETATM   28  H   UNL     1      43.387 -16.908   0.109  1.00  0.00     0.174 HD
ENDBRANCH   5  26
TORSDOF 4
ENDMDL
MODEL 8
REMARK VINA RESULT:      -7.6      4.397      5.998
REMARK  4 active torsions:
REMARK  status: ('A' for Active; 'I' for Inactive)
REMARK    1  A    between atoms: O_2  and  C_3 
REMARK    2  A    between atoms: C_4  and  C_5 
REMARK    3  A    between atoms: C_9  and  N_10 
REMARK    4  A    between atoms: C_13  and  C_14 
ROOT
HETATM    1  C   UNL     1      40.588 -14.779   1.136  1.00  0.00     0.167 C 
HETATM    2  N   UNL     1      40.652 -14.583  -0.310  1.00  0.00    -0.074 N 
HETATM    3  C   UNL     1      39.565 -14.273  -1.084  1.00  0.00     0.736 A 
HETATM    4  N   UNL     1      39.967 -14.011  -2.300  1.00  0.00     0.131 NA
HETATM    5  C   UNL     1      41.321 -14.126  -2.207  1.00  0.00     0.753 A 
HETATM    6  N   UNL     1      41.795 -14.456  -1.010  1.00  0.00     0.037 NA
HETATM    7  N   UNL     1      38.320 -14.215  -0.567  1.00  0.00    -0.214 N 
HETATM    8  C   UNL     1      38.114 -14.214   0.876  1.00  0.00     0.135 C 
HETATM    9  C   UNL     1      39.148 -15.120   1.567  1.00  0.00     0.063 C 
HETATM   10  H   UNL     1      37.615 -13.734  -1.119  1.00  0.00     0.178 HD
ENDROOT
BRANCH   1  11
HETATM   11  C   UNL     1      41.568 -15.843   1.617  1.00  0.00     0.001 A 
HETATM   12  C   UNL     1      42.744 -15.484   2.300  1.00  0.00     0.076 A 
HETATM   13  C   UNL     1      43.619 -16.474   2.764  1.00  0.00     0.037 A 
HETATM   14  C   UNL     1      43.350 -17.822   2.526  1.00  0.00     0.003 A 
HETATM   15  C   UNL     1      42.202 -18.189   1.832  1.00  0.00     0.001 A 
HETATM   16  C   UNL     1      41.318 -17.210   1.382  1.00  0.00     0.012 A 
BRANCH  12  17
HETATM   17  O   UNL     1      42.951 -14.150   2.538  1.00  0.00    -0.355 OA
HETATM   18  C   UNL     1      43.584 -13.859   3.782  1.00  0.00     0.210 C 
ENDBRANCH  12  17
ENDBRANCH   1  11
BRANCH   8  19
HETATM   19  C   UNL     1      38.046 -12.818   1.478  1.00  0.00    -0.035 A 
HETATM   20  C   UNL     1      37.172 -11.877   0.898  1.00  0.00     0.010 A 
HETATM   21  C   UNL     1      37.053 -10.587   1.418  1.00  0.00     0.019 A 
HETATM   22  C   UNL     1      37.804 -10.219   2.531  1.00  0.00     0.011 A 
HETATM   23 BR   UNL     1      37.643  -8.473   3.238  1.00  0.00    -0.051 Br
HETATM   24  C   UNL     1      38.672 -11.130   3.123  1.00  0.00     0.019 A 
HETATM   25  C   UNL     1      38.792 -12.421   2.600  1.00  0.00     0.010 A 
ENDBRANCH   8  19
BRANCH   5  26
HETATM   26  N   UNL     1      42.054 -13.912  -3.297  1.00  0.00    -0.229 N 
HETATM   27  H   UNL     1      42.597 -14.694  -3.634  1.00  0.00     0.174 HD
HETATM   28  H   UNL     1      42.516 -13.014  -3.356  1.00  0.00     0.174 HD
ENDBRANCH   5  26
TORSDOF 4
ENDMDL
MODEL 9
REMARK VINA RESULT:      -7.5      2.941      5.479
REMARK  4 active torsions:
REMARK  status: ('A' for Active; 'I' for Inactive)
REMARK    1  A    between atoms: O_2  and  C_3 
REMARK    2  A    between atoms: C_4  and  C_5 
REMARK    3  A    between atoms: C_9  and  N_10 
REMARK    4  A    between atoms: C_13  and  C_14 
ROOT
HETATM    1  C   UNL     1      42.536 -16.421   3.947  1.00  0.00     0.167 C 
HETATM    2  N   UNL     1      42.808 -17.657   3.217  1.00  0.00    -0.074 N 
HETATM    3  C   UNL     1      42.051 -18.102   2.166  1.00  0.00     0.736 A 
HETATM    4  N   UNL     1      42.633 -19.143   1.631  1.00  0.00     0.131 NA
HETATM    5  C   UNL     1      43.775 -19.266   2.362  1.00  0.00     0.753 A 
HETATM    6  N   UNL     1      43.942 -18.374   3.334  1.00  0.00     0.037 NA
HETATM    7  N   UNL     1      40.926 -17.464   1.782  1.00  0.00    -0.214 N 
HETATM    8  C   UNL     1      40.617 -16.133   2.291  1.00  0.00     0.135 C 
HETATM    9  C   UNL     1      41.065 -16.001   3.756  1.00  0.00     0.063 C 
HETATM   10  H   UNL     1      40.566 -17.684   0.858  1.00  0.00     0.178 HD
ENDROOT
BRANCH   1  11
HETATM   11  C   UNL     1      42.884 -16.536   5.426  1.00  0.00     0.001 A 
HETATM   12  C   UNL     1      43.548 -15.493   6.095  1.00  0.00     0.076 A 
HETATM   13  C   UNL     1      43.834 -15.600   7.461  1.00  0.00     0.037 A 
HETATM   14  C   UNL     1      43.490 -16.754   8.166  1.00  0.00     0.003 A 
HETATM   15  C   UNL     1      42.852 -17.802   7.512  1.00  0.00     0.001 A 
HETATM   16  C   UNL     1      42.550 -17.696   6.154  1.00  0.00     0.012 A 
BRANCH  12  17
HETATM   17  O   UNL     1      43.839 -14.366   5.369  1.00  0.00    -0.355 OA
HETATM   18  C   UNL     1      42.942 -13.277   5.578  1.00  0.00     0.210 C 
ENDBRANCH  12  17
ENDBRANCH   1  11
BRANCH   8  19
HETATM   19  C   UNL     1      41.133 -15.010   1.404  1.00  0.00    -0.035 A 
HETATM   20  C   UNL     1      41.175 -15.217   0.011  1.00  0.00     0.010 A 
HETATM   21  C   UNL     1      41.622 -14.216  -0.855  1.00  0.00     0.019 A 
HETATM   22  C   UNL     1      42.030 -12.990  -0.340  1.00  0.00     0.011 A 
HETATM   23 BR   UNL     1      42.634 -11.633  -1.509  1.00  0.00    -0.051 Br
HETATM   24  C   UNL     1      41.997 -12.759   1.032  1.00  0.00     0.019 A 
HETATM   25  C   UNL     1      41.551 -13.762   1.898  1.00  0.00     0.010 A 
ENDBRANCH   8  19
BRANCH   5  26
HETATM   26  N   UNL     1      44.619 -20.251   2.065  1.00  0.00    -0.229 N 
HETATM   27  H   UNL     1      45.589 -20.098   2.300  1.00  0.00     0.174 HD
HETATM   28  H   UNL     1      44.463 -20.724   1.185  1.00  0.00     0.174 HD
ENDBRANCH   5  26
TORSDOF 4
ENDMDL
MODEL 10
REMARK VINA RESULT:      -7.5      5.495      8.431
REMARK  4 active torsions:
REMARK  status: ('A' for Active; 'I' for Inactive)
REMARK    1  A    between atoms: O_2  and  C_3 
REMARK    2  A    between atoms: C_4  and  C_5 
REMARK    3  A    between atoms: C_9  and  N_10 
REMARK    4  A    between atoms: C_13  and  C_14 
ROOT
HETATM    1  C   UNL     1      40.838 -14.903  -0.727  1.00  0.00     0.167 C 
HETATM    2  N   UNL     1      41.615 -13.667  -0.785  1.00  0.00    -0.074 N 
HETATM    3  C   UNL     1      42.013 -13.074  -1.954  1.00  0.00     0.736 A 
HETATM    4  N   UNL     1      42.551 -11.914  -1.682  1.00  0.00     0.131 NA
HETATM    5  C   UNL     1      42.413 -11.820  -0.330  1.00  0.00     0.753 A 
HETATM    6  N   UNL     1      41.832 -12.856   0.267  1.00  0.00     0.037 NA
HETATM    7  N   UNL     1      41.789 -13.648  -3.154  1.00  0.00    -0.214 N 
HETATM    8  C   UNL     1      40.882 -14.783  -3.275  1.00  0.00     0.135 C 
HETATM    9  C   UNL     1      40.994 -15.695  -2.041  1.00  0.00     0.063 C 
HETATM   10  H   UNL     1      41.868 -13.050  -3.971  1.00  0.00     0.178 HD
ENDROOT
BRANCH   1  11
HETATM   11  C   UNL     1      41.211 -15.762   0.475  1.00  0.00     0.001 A 
HETATM   12  C   UNL     1      40.388 -15.804   1.614  1.00  0.00     0.076 A 
HETATM   13  C   UNL     1      40.727 -16.622   2.699  1.00  0.00     0.037 A 
HETATM   14  C   UNL     1      41.898 -17.379   2.673  1.00  0.00     0.003 A 
HETATM   15  C   UNL     1      42.732 -17.330   1.562  1.00  0.00     0.001 A 
HETATM   16  C   UNL     1      42.393 -16.530   0.471  1.00  0.00     0.012 A 
BRANCH  12  17
HETATM   17  O   UNL     1      39.231 -15.067   1.582  1.00  0.00    -0.355 OA
HETATM   18  C   UNL     1      39.223 -13.936   2.449  1.00  0.00     0.210 C 
ENDBRANCH  12  17
ENDBRANCH   1  11
BRANCH   8  19
HETATM   19  C   UNL     1      39.449 -14.383  -3.596  1.00  0.00    -0.035 A 
HETATM   20  C   UNL     1      38.548 -15.385  -4.008  1.00  0.00     0.010 A 
HETATM   21  C   UNL     1      37.216 -15.081  -4.298  1.00  0.00     0.019 A 
HETATM   22  C   UNL     1      36.763 -13.771  -4.176  1.00  0.00     0.011 A 
HETATM   23 BR   UNL     1      34.961 -13.359  -4.565  1.00  0.00    -0.051 Br
HETATM   24  C   UNL     1      37.633 -12.765  -3.768  1.00  0.00     0.019 A 
HETATM   25  C   UNL     1      38.967 -13.069  -3.480  1.00  0.00     0.010 A 
ENDBRANCH   8  19
BRANCH   5  26
HETATM   26  N   UNL     1      42.864 -10.728   0.282  1.00  0.00    -0.229 N 
HETATM   27  H   UNL     1      42.882  -9.880  -0.266  1.00  0.00     0.174 HD
HETATM   28  H   UNL     1      43.657 -10.856   0.896  1.00  0.00     0.174 HD
ENDBRANCH   5  26
TORSDOF 4
ENDMDL
