MODEL 1
REMARK VINA RESULT:      -7.1      0.000      0.000
REMARK  6 active torsions:
REMARK  status: ('A' for Active; 'I' for Inactive)
REMARK    1  A    between atoms: N_2  and  C_4 
REMARK    2  A    between atoms: N_2  and  C_11 
REMARK    3  A    between atoms: C_4  and  C_5 
REMARK    4  A    between atoms: C_5  and  O_6 
REMARK    5  A    between atoms: C_11  and  C_12 
REMARK    6  A    between atoms: C_13  and  C_14 
ROOT
HETATM    1  C   UNL     1      44.621 -20.459   4.032  1.00  0.00     0.016 A 
HETATM    2  C   UNL     1      43.944 -20.139   2.810  1.00  0.00     0.096 A 
HETATM    3  N   UNL     1      43.803 -21.229   2.048  1.00  0.00    -0.174 NA
HETATM    4  N   UNL     1      44.288 -22.237   2.776  1.00  0.00    -0.288 N 
HETATM    5  H   UNL     1      44.241 -23.176   2.389  1.00  0.00     0.188 HD
HETATM    6  C   UNL     1      44.800 -21.830   3.976  1.00  0.00     0.120 A 
ENDROOT
BRANCH   1   7
HETATM    7  C   UNL     1      45.012 -19.512   5.111  1.00  0.00     0.277 C 
BRANCH   7   8
HETATM    8  N   UNL     1      43.922 -19.220   6.122  1.00  0.00    -0.068 N 
HETATM    9  C   UNL     1      43.635 -20.423   6.989  1.00  0.00     0.270 C 
HETATM   10  H   UNL     1      43.071 -19.033   5.585  1.00  0.00     0.279 HD
BRANCH   8  11
HETATM   11  C   UNL     1      44.261 -17.967   6.930  1.00  0.00     0.272 C 
BRANCH  11  12
HETATM   12  C   UNL     1      43.278 -16.795   6.704  1.00  0.00     0.082 C 
HETATM   13  C   UNL     1      43.457 -16.186   5.307  1.00  0.00     0.039 C 
HETATM   14  C   UNL     1      42.131 -15.485   5.047  1.00  0.00     0.003 C 
HETATM   15  C   UNL     1      41.095 -16.430   5.635  1.00  0.00     0.003 C 
HETATM   16  C   UNL     1      41.797 -17.198   6.762  1.00  0.00     0.039 C 
BRANCH  12  17
HETATM   17  O   UNL     1      43.534 -15.787   7.687  1.00  0.00    -0.388 OA
HETATM   18  H   UNL     1      44.211 -16.110   8.311  1.00  0.00     0.210 HD
ENDBRANCH  12  17
ENDBRANCH  11  12
ENDBRANCH   8  11
ENDBRANCH   7   8
ENDBRANCH   1   7
BRANCH   2  19
HETATM   19  C   UNL     1      43.452 -18.843   2.348  1.00  0.00    -0.003 A 
HETATM   20  C   UNL     1      42.087 -18.536   2.392  1.00  0.00     0.037 A 
HETATM   21  C   UNL     1      41.638 -17.285   1.965  1.00  0.00     0.035 A 
HETATM   22 CL   UNL     1      39.961 -16.916   2.055  1.00  0.00    -0.084 Cl
HETATM   23  C   UNL     1      42.534 -16.338   1.475  1.00  0.00     0.024 A 
HETATM   24  C   UNL     1      43.892 -16.646   1.405  1.00  0.00     0.003 A 
HETATM   25  C   UNL     1      44.349 -17.892   1.839  1.00  0.00     0.014 A 
ENDBRANCH   2  19
TORSDOF 6
ENDMDL
MODEL 2
REMARK VINA RESULT:      -6.9      2.733      4.648
REMARK  6 active torsions:
REMARK  status: ('A' for Active; 'I' for Inactive)
REMARK    1  A    between atoms: N_2  and  C_4 
REMARK    2  A    between atoms: N_2  and  C_11 
REMARK    3  A    between atoms: C_4  and  C_5 
REMARK    4  A    between atoms: C_5  and  O_6 
REMARK    5  A    between atoms: C_11  and  C_12 
REMARK    6  A    between atoms: C_13  and  C_14 
ROOT
HETATM    1  C   UNL     1      42.364 -16.124   1.771  1.00  0.00     0.016 A 
HETATM    2  C   UNL     1      42.239 -17.551   1.796  1.00  0.00     0.096 A 
HETATM    3  N   UNL     1      41.187 -17.947   1.071  1.00  0.00    -0.174 NA
HETATM    4  N   UNL     1      40.694 -16.834   0.523  1.00  0.00    -0.288 N 
HETATM    5  H   UNL     1      39.900 -16.919  -0.106  1.00  0.00     0.188 HD
HETATM    6  C   UNL     1      41.359 -15.707   0.915  1.00  0.00     0.120 A 
ENDROOT
BRANCH   1   7
HETATM    7  C   UNL     1      43.370 -15.303   2.496  1.00  0.00     0.277 C 
BRANCH   7   8
HETATM    8  N   UNL     1      42.802 -14.437   3.603  1.00  0.00    -0.068 N 
HETATM    9  C   UNL     1      42.475 -13.049   3.107  1.00  0.00     0.270 C 
HETATM   10  H   UNL     1      43.544 -14.335   4.300  1.00  0.00     0.279 HD
BRANCH   8  11
HETATM   11  C   UNL     1      41.614 -15.130   4.270  1.00  0.00     0.272 C 
BRANCH  11  12
HETATM   12  C   UNL     1      41.840 -15.456   5.764  1.00  0.00     0.082 C 
HETATM   13  C   UNL     1      41.539 -16.932   6.059  1.00  0.00     0.039 C 
HETATM   14  C   UNL     1      42.308 -17.207   7.343  1.00  0.00     0.003 C 
HETATM   15  C   UNL     1      43.606 -16.435   7.165  1.00  0.00     0.003 C 
HETATM   16  C   UNL     1      43.287 -15.256   6.237  1.00  0.00     0.039 C 
BRANCH  12  17
HETATM   17  O   UNL     1      40.967 -14.638   6.549  1.00  0.00    -0.388 OA
HETATM   18  H   UNL     1      41.003 -13.720   6.219  1.00  0.00     0.210 HD
ENDBRANCH  12  17
ENDBRANCH  11  12
ENDBRANCH   8  11
ENDBRANCH   7   8
ENDBRANCH   1   7
BRANCH   2  19
HETATM   19  C   UNL     1      43.069 -18.531   2.494  1.00  0.00    -0.003 A 
HETATM   20  C   UNL     1      43.403 -19.749   1.890  1.00  0.00     0.037 A 
HETATM   21  C   UNL     1      44.213 -20.664   2.565  1.00  0.00     0.035 A 
HETATM   22 CL   UNL     1      44.637 -22.142   1.794  1.00  0.00    -0.084 Cl
HETATM   23  C   UNL     1      44.682 -20.388   3.846  1.00  0.00     0.024 A 
HETATM   24  C   UNL     1      44.333 -19.188   4.464  1.00  0.00     0.003 A 
HETATM   25  C   UNL     1      43.530 -18.264   3.791  1.00  0.00     0.014 A 
ENDBRANCH   2  19
TORSDOF 6
ENDMDL
MODEL 3
REMARK VINA RESULT:      -6.8      2.177      3.693
REMARK  6 active torsions:
REMARK  status: ('A' for Active; 'I' for Inactive)
REMARK    1  A    between atoms: N_2  and  C_4 
REMARK    2  A    between atoms: N_2  and  C_11 
REMARK    3  A    between atoms: C_4  and  C_5 
REMARK    4  A    between atoms: C_5  and  O_6 
REMARK    5  A    between atoms: C_11  and  C_12 
REMARK    6  A    between atoms: C_13  and  C_14 
ROOT
HETATM    1  C   UNL     1      44.370 -18.089   6.915  1.00  0.00     0.016 A 
HETATM    2  C   UNL     1      43.967 -19.237   6.157  1.00  0.00     0.096 A 
HETATM    3  N   UNL     1      43.642 -20.249   6.969  1.00  0.00    -0.174 NA
HETATM    4  N   UNL     1      43.744 -19.759   8.206  1.00  0.00    -0.288 N 
HETATM    5  H   UNL     1      43.500 -20.366   8.985  1.00  0.00     0.188 HD
HETATM    6  C   UNL     1      44.186 -18.466   8.234  1.00  0.00     0.120 A 
ENDROOT
BRANCH   1   7
HETATM    7  C   UNL     1      44.856 -16.790   6.377  1.00  0.00     0.277 C 
BRANCH   7   8
HETATM    8  N   UNL     1      43.899 -15.629   6.566  1.00  0.00    -0.068 N 
HETATM    9  C   UNL     1      44.573 -14.463   7.250  1.00  0.00     0.270 C 
HETATM   10  H   UNL     1      43.166 -15.960   7.198  1.00  0.00     0.279 HD
BRANCH   8  11
HETATM   11  C   UNL     1      43.248 -15.248   5.238  1.00  0.00     0.272 C 
BRANCH  11  12
HETATM   12  C   UNL     1      41.727 -14.985   5.341  1.00  0.00     0.082 C 
HETATM   13  C   UNL     1      41.431 -13.482   5.417  1.00  0.00     0.039 C 
HETATM   14  C   UNL     1      39.982 -13.377   4.963  1.00  0.00     0.003 C 
HETATM   15  C   UNL     1      39.876 -14.395   3.837  1.00  0.00     0.003 C 
HETATM   16  C   UNL     1      40.922 -15.477   4.130  1.00  0.00     0.039 C 
BRANCH  12  17
HETATM   17  O   UNL     1      41.234 -15.617   6.527  1.00  0.00    -0.388 OA
HETATM   18  H   UNL     1      41.911 -16.229   6.872  1.00  0.00     0.210 HD
ENDBRANCH  12  17
ENDBRANCH  11  12
ENDBRANCH   8  11
ENDBRANCH   7   8
ENDBRANCH   1   7
BRANCH   2  19
HETATM   19  C   UNL     1      43.900 -19.399   4.706  1.00  0.00    -0.003 A 
HETATM   20  C   UNL     1      42.963 -18.688   3.947  1.00  0.00     0.037 A 
HETATM   21  C   UNL     1      42.928 -18.842   2.560  1.00  0.00     0.035 A 
HETATM   22 CL   UNL     1      41.790 -17.937   1.641  1.00  0.00    -0.084 Cl
HETATM   23  C   UNL     1      43.807 -19.711   1.918  1.00  0.00     0.024 A 
HETATM   24  C   UNL     1      44.726 -20.441   2.671  1.00  0.00     0.003 A 
HETATM   25  C   UNL     1      44.772 -20.286   4.059  1.00  0.00     0.014 A 
ENDBRANCH   2  19
TORSDOF 6
ENDMDL
MODEL 4
REMARK VINA RESULT:      -6.7      2.476      4.403
REMARK  6 active torsions:
REMARK  status: ('A' for Active; 'I' for Inactive)
REMARK    1  A    between atoms: N_2  and  C_4 
REMARK    2  A    between atoms: N_2  and  C_11 
REMARK    3  A    between atoms: C_4  and  C_5 
REMARK    4  A    between atoms: C_5  and  O_6 
REMARK    5  A    between atoms: C_11  and  C_12 
REMARK    6  A    between atoms: C_13  and  C_14 
ROOT
HETATM    1  C   UNL     1      42.448 -17.344   2.754  1.00  0.00     0.016 A 
HETATM    2  C   UNL     1      43.301 -18.256   2.050  1.00  0.00     0.096 A 
HETATM    3  N   UNL     1      43.743 -17.707   0.912  1.00  0.00    -0.174 NA
HETATM    4  N   UNL     1      43.270 -16.459   0.914  1.00  0.00    -0.288 N 
HETATM    5  H   UNL     1      43.526 -15.848   0.142  1.00  0.00     0.188 HD
HETATM    6  C   UNL     1      42.479 -16.188   1.995  1.00  0.00     0.120 A 
ENDROOT
BRANCH   1   7
HETATM    7  C   UNL     1      41.721 -17.604   4.026  1.00  0.00     0.277 C 
BRANCH   7   8
HETATM    8  N   UNL     1      41.786 -16.475   5.034  1.00  0.00    -0.068 N 
HETATM    9  C   UNL     1      40.711 -15.444   4.780  1.00  0.00     0.270 C 
HETATM   10  H   UNL     1      42.685 -16.007   4.887  1.00  0.00     0.279 HD
BRANCH   8  11
HETATM   11  C   UNL     1      41.763 -17.025   6.460  1.00  0.00     0.272 C 
BRANCH  11  12
HETATM   12  C   UNL     1      43.164 -17.154   7.102  1.00  0.00     0.082 C 
HETATM   13  C   UNL     1      43.422 -18.589   7.579  1.00  0.00     0.039 C 
HETATM   14  C   UNL     1      44.939 -18.678   7.651  1.00  0.00     0.003 C 
HETATM   15  C   UNL     1      45.410 -17.895   6.434  1.00  0.00     0.003 C 
HETATM   16  C   UNL     1      44.323 -16.853   6.141  1.00  0.00     0.039 C 
BRANCH  12  17
HETATM   17  O   UNL     1      43.236 -16.270   8.224  1.00  0.00    -0.388 OA
HETATM   18  H   UNL     1      43.851 -16.639   8.887  1.00  0.00     0.210 HD
ENDBRANCH  12  17
ENDBRANCH  11  12
ENDBRANCH   8  11
ENDBRANCH   7   8
ENDBRANCH   1   7
BRANCH   2  19
HETATM   19  C   UNL     1      43.686 -19.618   2.414  1.00  0.00    -0.003 A 
HETATM   20  C   UNL     1      44.123 -19.917   3.710  1.00  0.00     0.037 A 
HETATM   21  C   UNL     1      44.467 -21.228   4.045  1.00  0.00     0.035 A 
HETATM   22 CL   UNL     1      44.972 -21.582   5.651  1.00  0.00    -0.084 Cl
HETATM   23  C   UNL     1      44.399 -22.245   3.097  1.00  0.00     0.024 A 
HETATM   24  C   UNL     1      43.990 -21.949   1.797  1.00  0.00     0.003 A 
HETATM   25  C   UNL     1      43.636 -20.641   1.458  1.00  0.00     0.014 A 
ENDBRANCH   2  19
TORSDOF 6
ENDMDL
MODEL 5
REMARK VINA RESULT:      -6.7      3.250      5.425
REMARK  6 active torsions:
REMARK  status: ('A' for Active; 'I' for Inactive)
REMARK    1  A    between atoms: N_2  and  C_4 
REMARK    2  A    between atoms: N_2  and  C_11 
REMARK    3  A    between atoms: C_4  and  C_5 
REMARK    4  A    between atoms: C_5  and  O_6 
REMARK    5  A    between atoms: C_11  and  C_12 
REMARK    6  A    between atoms: C_13  and  C_14 
ROOT
HETATM    1  C   UNL     1      42.564 -17.065   5.921  1.00  0.00     0.016 A 
HETATM    2  C   UNL     1      43.816 -17.691   5.611  1.00  0.00     0.096 A 
HETATM    3  N   UNL     1      44.823 -17.073   6.239  1.00  0.00    -0.174 NA
HETATM    4  N   UNL     1      44.247 -16.138   6.997  1.00  0.00    -0.288 N 
HETATM    5  H   UNL     1      44.843 -15.570   7.595  1.00  0.00     0.188 HD
HETATM    6  C   UNL     1      42.891 -16.083   6.841  1.00  0.00     0.120 A 
ENDROOT
BRANCH   1   7
HETATM    7  C   UNL     1      41.227 -17.424   5.377  1.00  0.00     0.277 C 
BRANCH   7   8
HETATM    8  N   UNL     1      40.600 -16.367   4.491  1.00  0.00    -0.068 N 
HETATM    9  C   UNL     1      40.221 -15.137   5.280  1.00  0.00     0.270 C 
HETATM   10  H   UNL     1      39.729 -16.769   4.133  1.00  0.00     0.279 HD
BRANCH   8  11
HETATM   11  C   UNL     1      41.506 -16.058   3.300  1.00  0.00     0.272 C 
BRANCH  11  12
HETATM   12  C   UNL     1      40.768 -16.045   1.941  1.00  0.00     0.082 C 
HETATM   13  C   UNL     1      40.583 -14.611   1.427  1.00  0.00     0.039 C 
HETATM   14  C   UNL     1      40.378 -14.788  -0.070  1.00  0.00     0.003 C 
HETATM   15  C   UNL     1      41.346 -15.901  -0.443  1.00  0.00     0.003 C 
HETATM   16  C   UNL     1      41.518 -16.765   0.812  1.00  0.00     0.039 C 
BRANCH  12  17
HETATM   17  O   UNL     1      39.481 -16.646   2.114  1.00  0.00    -0.388 OA
HETATM   18  H   UNL     1      39.357 -17.343   1.442  1.00  0.00     0.210 HD
ENDBRANCH  12  17
ENDBRANCH  11  12
ENDBRANCH   8  11
ENDBRANCH   7   8
ENDBRANCH   1   7
BRANCH   2  19
HETATM   19  C   UNL     1      44.077 -18.830   4.733  1.00  0.00    -0.003 A 
HETATM   20  C   UNL     1      44.495 -20.059   5.257  1.00  0.00     0.037 A 
HETATM   21  C   UNL     1      44.721 -21.141   4.405  1.00  0.00     0.035 A 
HETATM   22 CL   UNL     1      45.205 -22.651   5.070  1.00  0.00    -0.084 Cl
HETATM   23  C   UNL     1      44.552 -21.009   3.029  1.00  0.00     0.024 A 
HETATM   24  C   UNL     1      44.160 -19.781   2.498  1.00  0.00     0.003 A 
HETATM   25  C   UNL     1      43.924 -18.696   3.345  1.00  0.00     0.014 A 
ENDBRANCH   2  19
TORSDOF 6
ENDMDL
MODEL 6
REMARK VINA RESULT:      -6.7      2.955      5.312
REMARK  6 active torsions:
REMARK  status: ('A' for Active; 'I' for Inactive)
REMARK    1  A    between atoms: N_2  and  C_4 
REMARK    2  A    between atoms: N_2  and  C_11 
REMARK    3  A    between atoms: C_4  and  C_5 
REMARK    4  A    between atoms: C_5  and  O_6 
REMARK    5  A    between atoms: C_11  and  C_12 
REMARK    6  A    between atoms: C_13  and  C_14 
ROOT
HETATM    1  C   UNL     1      43.315 -17.741   5.124  1.00  0.00     0.016 A 
HETATM    2  C   UNL     1      44.320 -18.731   5.376  1.00  0.00     0.096 A 
HETATM    3  N   UNL     1      45.228 -18.272   6.245  1.00  0.00    -0.174 NA
HETATM    4  N   UNL     1      44.790 -17.067   6.613  1.00  0.00    -0.288 N 
HETATM    5  H   UNL     1      45.325 -16.553   7.309  1.00  0.00     0.188 HD
HETATM    6  C   UNL     1      43.647 -16.693   5.965  1.00  0.00     0.120 A 
ENDROOT
BRANCH   1   7
HETATM    7  C   UNL     1      42.171 -17.850   4.179  1.00  0.00     0.277 C 
BRANCH   7   8
HETATM    8  N   UNL     1      42.154 -16.804   3.082  1.00  0.00    -0.068 N 
HETATM    9  C   UNL     1      43.417 -16.850   2.254  1.00  0.00     0.270 C 
HETATM   10  H   UNL     1      42.141 -15.894   3.551  1.00  0.00     0.279 HD
BRANCH   8  11
HETATM   11  C   UNL     1      40.883 -16.926   2.243  1.00  0.00     0.272 C 
BRANCH  11  12
HETATM   12  C   UNL     1      40.098 -15.601   2.104  1.00  0.00     0.082 C 
HETATM   13  C   UNL     1      40.280 -14.718   3.345  1.00  0.00     0.039 C 
HETATM   14  C   UNL     1      39.948 -13.320   2.845  1.00  0.00     0.003 C 
HETATM   15  C   UNL     1      40.552 -13.277   1.450  1.00  0.00     0.003 C 
HETATM   16  C   UNL     1      40.557 -14.720   0.933  1.00  0.00     0.039 C 
BRANCH  12  17
HETATM   17  O   UNL     1      38.708 -15.907   1.950  1.00  0.00    -0.388 OA
HETATM   18  H   UNL     1      38.560 -16.849   2.162  1.00  0.00     0.210 HD
ENDBRANCH  12  17
ENDBRANCH  11  12
ENDBRANCH   8  11
ENDBRANCH   7   8
ENDBRANCH   1   7
BRANCH   2  19
HETATM   19  C   UNL     1      44.448 -20.072   4.808  1.00  0.00    -0.003 A 
HETATM   20  C   UNL     1      44.309 -20.284   3.432  1.00  0.00     0.037 A 
HETATM   21  C   UNL     1      44.454 -21.568   2.905  1.00  0.00     0.035 A 
HETATM   22 CL   UNL     1      44.310 -21.804   1.208  1.00  0.00    -0.084 Cl
HETATM   23  C   UNL     1      44.719 -22.653   3.738  1.00  0.00     0.024 A 
HETATM   24  C   UNL     1      44.834 -22.452   5.113  1.00  0.00     0.003 A 
HETATM   25  C   UNL     1      44.698 -21.168   5.646  1.00  0.00     0.014 A 
ENDBRANCH   2  19
TORSDOF 6
ENDMDL
MODEL 7
REMARK VINA RESULT:      -6.7      2.890      4.716
REMARK  6 active torsions:
REMARK  status: ('A' for Active; 'I' for Inactive)
REMARK    1  A    between atoms: N_2  and  C_4 
REMARK    2  A    between atoms: N_2  and  C_11 
REMARK    3  A    between atoms: C_4  and  C_5 
REMARK    4  A    between atoms: C_5  and  O_6 
REMARK    5  A    between atoms: C_11  and  C_12 
REMARK    6  A    between atoms: C_13  and  C_14 
ROOT
HETATM    1  C   UNL     1      41.708 -15.168   3.418  1.00  0.00     0.016 A 
HETATM    2  C   UNL     1      41.503 -16.504   2.939  1.00  0.00     0.096 A 
HETATM    3  N   UNL     1      40.219 -16.701   2.622  1.00  0.00    -0.174 NA
HETATM    4  N   UNL     1      39.623 -15.520   2.802  1.00  0.00    -0.288 N 
HETATM    5  H   UNL     1      38.635 -15.441   2.577  1.00  0.00     0.188 HD
HETATM    6  C   UNL     1      40.470 -14.563   3.286  1.00  0.00     0.120 A 
ENDROOT
BRANCH   1   7
HETATM    7  C   UNL     1      42.981 -14.585   3.919  1.00  0.00     0.277 C 
BRANCH   7   8
HETATM    8  N   UNL     1      43.020 -14.341   5.414  1.00  0.00    -0.068 N 
HETATM    9  C   UNL     1      42.353 -13.036   5.779  1.00  0.00     0.270 C 
HETATM   10  H   UNL     1      44.008 -14.249   5.667  1.00  0.00     0.279 HD
BRANCH   8  11
HETATM   11  C   UNL     1      42.445 -15.538   6.169  1.00  0.00     0.272 C 
BRANCH  11  12
HETATM   12  C   UNL     1      43.462 -16.232   7.106  1.00  0.00     0.082 C 
HETATM   13  C   UNL     1      42.882 -17.528   7.688  1.00  0.00     0.039 C 
HETATM   14  C   UNL     1      44.113 -18.325   8.091  1.00  0.00     0.003 C 
HETATM   15  C   UNL     1      45.109 -18.051   6.974  1.00  0.00     0.003 C 
HETATM   16  C   UNL     1      44.759 -16.669   6.409  1.00  0.00     0.039 C 
BRANCH  12  17
HETATM   17  O   UNL     1      43.778 -15.340   8.179  1.00  0.00    -0.388 OA
HETATM   18  H   UNL     1      42.982 -15.201   8.727  1.00  0.00     0.210 HD
ENDBRANCH  12  17
ENDBRANCH  11  12
ENDBRANCH   8  11
ENDBRANCH   7   8
ENDBRANCH   1   7
BRANCH   2  19
HETATM   19  C   UNL     1      42.477 -17.585   2.796  1.00  0.00    -0.003 A 
HETATM   20  C   UNL     1      42.829 -18.382   3.891  1.00  0.00     0.037 A 
HETATM   21  C   UNL     1      43.746 -19.422   3.731  1.00  0.00     0.035 A 
HETATM   22 CL   UNL     1      44.143 -20.411   5.081  1.00  0.00    -0.084 Cl
HETATM   23  C   UNL     1      44.332 -19.669   2.492  1.00  0.00     0.024 A 
HETATM   24  C   UNL     1      44.005 -18.862   1.403  1.00  0.00     0.003 A 
HETATM   25  C   UNL     1      43.082 -17.825   1.554  1.00  0.00     0.014 A 
ENDBRANCH   2  19
TORSDOF 6
ENDMDL
MODEL 8
REMARK VINA RESULT:      -6.6      2.809      4.764
REMARK  6 active torsions:
REMARK  status: ('A' for Active; 'I' for Inactive)
REMARK    1  A    between atoms: N_2  and  C_4 
REMARK    2  A    between atoms: N_2  and  C_11 
REMARK    3  A    between atoms: C_4  and  C_5 
REMARK    4  A    between atoms: C_5  and  O_6 
REMARK    5  A    between atoms: C_11  and  C_12 
REMARK    6  A    between atoms: C_13  and  C_14 
ROOT
HETATM    1  C   UNL     1      43.573 -19.413   3.136  1.00  0.00     0.016 A 
HETATM    2  C   UNL     1      43.589 -18.903   4.476  1.00  0.00     0.096 A 
HETATM    3  N   UNL     1      44.392 -19.639   5.253  1.00  0.00    -0.174 NA
HETATM    4  N   UNL     1      44.947 -20.539   4.438  1.00  0.00    -0.288 N 
HETATM    5  H   UNL     1      45.630 -21.183   4.829  1.00  0.00     0.188 HD
HETATM    6  C   UNL     1      44.485 -20.454   3.155  1.00  0.00     0.120 A 
ENDROOT
BRANCH   1   7
HETATM    7  C   UNL     1      42.763 -18.905   1.997  1.00  0.00     0.277 C 
BRANCH   7   8
HETATM    8  N   UNL     1      42.941 -17.428   1.703  1.00  0.00    -0.068 N 
HETATM    9  C   UNL     1      44.383 -17.094   1.403  1.00  0.00     0.270 C 
HETATM   10  H   UNL     1      42.695 -16.931   2.563  1.00  0.00     0.279 HD
BRANCH   8  11
HETATM   11  C   UNL     1      41.981 -16.980   0.602  1.00  0.00     0.272 C 
BRANCH  11  12
HETATM   12  C   UNL     1      41.049 -15.820   1.022  1.00  0.00     0.082 C 
HETATM   13  C   UNL     1      40.148 -16.231   2.193  1.00  0.00     0.039 C 
HETATM   14  C   UNL     1      39.737 -14.904   2.816  1.00  0.00     0.003 C 
HETATM   15  C   UNL     1      40.996 -14.055   2.731  1.00  0.00     0.003 C 
HETATM   16  C   UNL     1      41.789 -14.571   1.524  1.00  0.00     0.039 C 
BRANCH  12  17
HETATM   17  O   UNL     1      40.227 -15.466  -0.096  1.00  0.00    -0.388 OA
HETATM   18  H   UNL     1      40.525 -14.610  -0.457  1.00  0.00     0.210 HD
ENDBRANCH  12  17
ENDBRANCH  11  12
ENDBRANCH   8  11
ENDBRANCH   7   8
ENDBRANCH   1   7
BRANCH   2  19
HETATM   19  C   UNL     1      42.859 -17.765   5.031  1.00  0.00    -0.003 A 
HETATM   20  C   UNL     1      43.495 -16.535   5.234  1.00  0.00     0.037 A 
HETATM   21  C   UNL     1      42.776 -15.454   5.747  1.00  0.00     0.035 A 
HETATM   22 CL   UNL     1      43.567 -13.942   5.962  1.00  0.00    -0.084 Cl
HETATM   23  C   UNL     1      41.430 -15.588   6.079  1.00  0.00     0.024 A 
HETATM   24  C   UNL     1      40.797 -16.818   5.903  1.00  0.00     0.003 A 
HETATM   25  C   UNL     1      41.508 -17.902   5.382  1.00  0.00     0.014 A 
ENDBRANCH   2  19
TORSDOF 6
ENDMDL
MODEL 9
REMARK VINA RESULT:      -6.5      3.761      6.410
REMARK  6 active torsions:
REMARK  status: ('A' for Active; 'I' for Inactive)
REMARK    1  A    between atoms: N_2  and  C_4 
REMARK    2  A    between atoms: N_2  and  C_11 
REMARK    3  A    between atoms: C_4  and  C_5 
REMARK    4  A    between atoms: C_5  and  O_6 
REMARK    5  A    between atoms: C_11  and  C_12 
REMARK    6  A    between atoms: C_13  and  C_14 
ROOT
HETATM    1  C   UNL     1      43.389 -16.793   2.760  1.00  0.00     0.016 A 
HETATM    2  C   UNL     1      43.654 -17.873   3.664  1.00  0.00     0.096 A 
HETATM    3  N   UNL     1      43.682 -17.436   4.928  1.00  0.00    -0.174 NA
HETATM    4  N   UNL     1      43.363 -16.141   4.863  1.00  0.00    -0.288 N 
HETATM    5  H   UNL     1      43.290 -15.620   5.733  1.00  0.00     0.188 HD
HETATM    6  C   UNL     1      43.182 -15.700   3.583  1.00  0.00     0.120 A 
ENDROOT
BRANCH   1   7
HETATM    7  C   UNL     1      43.334 -16.865   1.275  1.00  0.00     0.277 C 
BRANCH   7   8
HETATM    8  N   UNL     1      41.965 -16.602   0.679  1.00  0.00    -0.068 N 
HETATM    9  C   UNL     1      40.875 -17.278   1.478  1.00  0.00     0.270 C 
HETATM   10  H   UNL     1      41.965 -17.037  -0.248  1.00  0.00     0.279 HD
BRANCH   8  11
HETATM   11  C   UNL     1      41.735 -15.102   0.503  1.00  0.00     0.272 C 
BRANCH  11  12
HETATM   12  C   UNL     1      40.936 -14.739  -0.771  1.00  0.00     0.082 C 
HETATM   13  C   UNL     1      41.448 -13.432  -1.390  1.00  0.00     0.039 C 
HETATM   14  C   UNL     1      40.985 -13.513  -2.837  1.00  0.00     0.003 C 
HETATM   15  C   UNL     1      41.185 -14.976  -3.204  1.00  0.00     0.003 C 
HETATM   16  C   UNL     1      41.054 -15.772  -1.900  1.00  0.00     0.039 C 
BRANCH  12  17
HETATM   17  O   UNL     1      39.559 -14.579  -0.416  1.00  0.00    -0.388 OA
HETATM   18  H   UNL     1      39.233 -15.402  -0.006  1.00  0.00     0.210 HD
ENDBRANCH  12  17
ENDBRANCH  11  12
ENDBRANCH   8  11
ENDBRANCH   7   8
ENDBRANCH   1   7
BRANCH   2  19
HETATM   19  C   UNL     1      43.895 -19.283   3.362  1.00  0.00    -0.003 A 
HETATM   20  C   UNL     1      44.503 -20.124   4.302  1.00  0.00     0.037 A 
HETATM   21  C   UNL     1      44.707 -21.472   4.002  1.00  0.00     0.035 A 
HETATM   22 CL   UNL     1      45.427 -22.497   5.181  1.00  0.00    -0.084 Cl
HETATM   23  C   UNL     1      44.329 -21.991   2.767  1.00  0.00     0.024 A 
HETATM   24  C   UNL     1      43.746 -21.154   1.817  1.00  0.00     0.003 A 
HETATM   25  C   UNL     1      43.531 -19.805   2.113  1.00  0.00     0.014 A 
ENDBRANCH   2  19
TORSDOF 6
ENDMDL
MODEL 10
REMARK VINA RESULT:      -6.5      3.285      5.991
REMARK  6 active torsions:
REMARK  status: ('A' for Active; 'I' for Inactive)
REMARK    1  A    between atoms: N_2  and  C_4 
REMARK    2  A    between atoms: N_2  and  C_11 
REMARK    3  A    between atoms: C_4  and  C_5 
REMARK    4  A    between atoms: C_5  and  O_6 
REMARK    5  A    between atoms: C_11  and  C_12 
REMARK    6  A    between atoms: C_13  and  C_14 
ROOT
HETATM    1  C   UNL     1      42.266 -15.459   5.649  1.00  0.00     0.016 A 
HETATM    2  C   UNL     1      43.393 -16.163   6.187  1.00  0.00     0.096 A 
HETATM    3  N   UNL     1      44.286 -15.307   6.697  1.00  0.00    -0.174 NA
HETATM    4  N   UNL     1      43.729 -14.100   6.577  1.00  0.00    -0.288 N 
HETATM    5  H   UNL     1      44.236 -13.299   6.945  1.00  0.00     0.188 HD
HETATM    6  C   UNL     1      42.516 -14.131   5.948  1.00  0.00     0.120 A 
ENDROOT
BRANCH   1   7
HETATM    7  C   UNL     1      41.094 -16.051   4.950  1.00  0.00     0.277 C 
BRANCH   7   8
HETATM    8  N   UNL     1      40.821 -15.477   3.574  1.00  0.00    -0.068 N 
HETATM    9  C   UNL     1      39.926 -14.262   3.650  1.00  0.00     0.270 C 
HETATM   10  H   UNL     1      40.304 -16.194   3.058  1.00  0.00     0.279 HD
BRANCH   8  11
HETATM   11  C   UNL     1      42.131 -15.208   2.834  1.00  0.00     0.272 C 
BRANCH  11  12
HETATM   12  C   UNL     1      42.482 -16.282   1.778  1.00  0.00     0.082 C 
HETATM   13  C   UNL     1      43.933 -16.757   1.935  1.00  0.00     0.039 C 
HETATM   14  C   UNL     1      43.943 -18.118   1.255  1.00  0.00     0.003 C 
HETATM   15  C   UNL     1      42.608 -18.733   1.648  1.00  0.00     0.003 C 
HETATM   16  C   UNL     1      41.644 -17.564   1.885  1.00  0.00     0.039 C 
BRANCH  12  17
HETATM   17  O   UNL     1      42.316 -15.714   0.475  1.00  0.00    -0.388 OA
HETATM   18  H   UNL     1      41.387 -15.818   0.194  1.00  0.00     0.210 HD
ENDBRANCH  12  17
ENDBRANCH  11  12
ENDBRANCH   8  11
ENDBRANCH   7   8
ENDBRANCH   1   7
BRANCH   2  19
HETATM   19  C   UNL     1      43.647 -17.602   6.211  1.00  0.00    -0.003 A 
HETATM   20  C   UNL     1      44.127 -18.265   5.075  1.00  0.00     0.037 A 
HETATM   21  C   UNL     1      44.383 -19.636   5.124  1.00  0.00     0.035 A 
HETATM   22 CL   UNL     1      45.001 -20.427   3.727  1.00  0.00    -0.084 Cl
HETATM   23  C   UNL     1      44.149 -20.363   6.289  1.00  0.00     0.024 A 
HETATM   24  C   UNL     1      43.647 -19.713   7.416  1.00  0.00     0.003 A 
HETATM   25  C   UNL     1      43.397 -18.340   7.377  1.00  0.00     0.014 A 
ENDBRANCH   2  19
TORSDOF 6
ENDMDL
