MODEL 1
REMARK VINA RESULT:      -8.4      0.000      0.000
REMARK  10 active torsions:
REMARK  status: ('A' for Active; 'I' for Inactive)
REMARK    1  A    between atoms: C_2  and  N_3 
REMARK    2  A    between atoms: N_3  and  C_4 
REMARK    3  A    between atoms: N_3  and  C_37 
REMARK    4  A    between atoms: C_7  and  C_8 
REMARK    5  A    between atoms: N_9  and  C_11 
REMARK    6  A    between atoms: C_11  and  C_12 
REMARK       I    between atoms: C_12  and  N_13 
REMARK    7  A    between atoms: N_13  and  C_14 
REMARK    8  A    between atoms: C_20  and  C_21 
REMARK    9  A    between atoms: C_21  and  O_22 
REMARK   10  A    between atoms: C_28  and  O_29 
ROOT
HETATM    1  C   UNL     1      39.902 -14.060   3.376  1.00  0.00     0.228 C 
HETATM    2  N   UNL     1      40.570 -15.415   3.579  1.00  0.00    -0.054 N 
HETATM    3  H   UNL     1      40.108 -15.820   4.413  1.00  0.00     0.281 HD
HETATM    4  C   UNL     1      40.239 -16.400   2.485  1.00  0.00     0.239 C 
HETATM    5  C   UNL     1      40.648 -15.848   1.129  1.00  0.00     0.066 C 
HETATM    6  C   UNL     1      39.956 -14.514   0.860  1.00  0.00     0.065 C 
HETATM    7  C   UNL     1      40.275 -13.489   1.979  1.00  0.00     0.055 C 
HETATM    8  C   UNL     1      40.359 -13.954  -0.516  1.00  0.00     0.038 C 
HETATM    9  C   UNL     1      39.675 -12.621  -0.813  1.00  0.00     0.003 C 
HETATM   10  C   UNL     1      39.908 -11.609   0.302  1.00  0.00     0.001 C 
HETATM   11  C   UNL     1      39.528 -12.167   1.673  1.00  0.00     0.010 C 
ENDROOT
BRANCH   2  12
HETATM   12  C   UNL     1      42.045 -15.441   4.009  1.00  0.00     0.338 C 
BRANCH  12  13
HETATM   13  C   UNL     1      42.429 -16.874   4.403  1.00  0.00     0.248 C 
HETATM   14  N   UNL     1      43.525 -17.378   3.741  1.00  0.00    -0.319 N 
HETATM   15  H   UNL     1      44.260 -16.742   3.425  1.00  0.00     0.169 HD
HETATM   16  O   UNL     1      41.712 -17.453   5.220  1.00  0.00    -0.271 OA
BRANCH  14  17
HETATM   17  C   UNL     1      43.851 -18.728   3.638  1.00  0.00     0.094 A 
HETATM   18  S   UNL     1      43.638 -19.548   2.171  1.00  0.00    -0.076 SA
HETATM   19  C   UNL     1      44.319 -20.984   2.780  1.00  0.00    -0.012 A 
HETATM   20  C   UNL     1      44.429 -22.178   1.882  1.00  0.00     0.057 C 
HETATM   21  C   UNL     1      44.711 -20.859   4.106  1.00  0.00    -0.030 A 
HETATM   22  C   UNL     1      45.335 -21.971   4.897  1.00  0.00     0.050 C 
HETATM   23  C   UNL     1      44.449 -19.515   4.612  1.00  0.00     0.080 A 
BRANCH  23  24
HETATM   24  C   UNL     1      44.732 -18.976   5.949  1.00  0.00     0.296 C 
HETATM   25  O   UNL     1      45.585 -18.107   6.129  1.00  0.00    -0.259 OA
BRANCH  24  26
HETATM   26  O   UNL     1      43.964 -19.511   6.933  1.00  0.00    -0.322 OA
HETATM   27  C   UNL     1      43.898 -18.741   8.133  1.00  0.00     0.213 C 
ENDBRANCH  24  26
ENDBRANCH  23  24
ENDBRANCH  14  17
ENDBRANCH  12  13
ENDBRANCH   2  12
BRANCH   1  28
HETATM   28  C   UNL     1      40.109 -13.153   4.581  1.00  0.00    -0.027 A 
HETATM   29  C   UNL     1      41.081 -12.143   4.627  1.00  0.00     0.011 A 
HETATM   30  C   UNL     1      41.173 -11.280   5.727  1.00  0.00     0.030 A 
HETATM   31  C   UNL     1      40.330 -11.420   6.833  1.00  0.00     0.030 A 
HETATM   32  C   UNL     1      39.416 -12.480   6.819  1.00  0.00     0.030 A 
HETATM   33  C   UNL     1      39.297 -13.328   5.711  1.00  0.00     0.011 A 
BRANCH  31  34
HETATM   34  N   UNL     1      40.336 -10.543   7.915  1.00  0.00    -0.382 N 
BRANCH  34  35
HETATM   35  C   UNL     1      41.559  -9.790   8.229  1.00  0.00     0.118 C 
HETATM   36  C   UNL     1      42.442 -10.562   9.202  1.00  0.00     0.026 C 
ENDBRANCH  34  35
BRANCH  34  37
HETATM   37  C   UNL     1      39.487 -10.930   9.052  1.00  0.00     0.118 C 
HETATM   38  C   UNL     1      38.603  -9.785   9.529  1.00  0.00     0.026 C 
ENDBRANCH  34  37
ENDBRANCH  31  34
ENDBRANCH   1  28
BRANCH   6  39
HETATM   39  O   UNL     1      38.547 -14.771   0.874  1.00  0.00    -0.389 OA
HETATM   40  H   UNL     1      38.315 -15.266   1.684  1.00  0.00     0.210 HD
ENDBRANCH   6  39
TORSDOF 10
ENDMDL
MODEL 2
REMARK VINA RESULT:      -7.9      3.049      8.501
REMARK  10 active torsions:
REMARK  status: ('A' for Active; 'I' for Inactive)
REMARK    1  A    between atoms: C_2  and  N_3 
REMARK    2  A    between atoms: N_3  and  C_4 
REMARK    3  A    between atoms: N_3  and  C_37 
REMARK    4  A    between atoms: C_7  and  C_8 
REMARK    5  A    between atoms: N_9  and  C_11 
REMARK    6  A    between atoms: C_11  and  C_12 
REMARK       I    between atoms: C_12  and  N_13 
REMARK    7  A    between atoms: N_13  and  C_14 
REMARK    8  A    between atoms: C_20  and  C_21 
REMARK    9  A    between atoms: C_21  and  O_22 
REMARK   10  A    between atoms: C_28  and  O_29 
ROOT
HETATM    1  C   UNL     1      42.049 -16.964   4.300  1.00  0.00     0.228 C 
HETATM    2  N   UNL     1      42.129 -15.902   5.390  1.00  0.00    -0.054 N 
HETATM    3  H   UNL     1      41.154 -15.578   5.522  1.00  0.00     0.281 HD
HETATM    4  C   UNL     1      42.492 -16.474   6.739  1.00  0.00     0.239 C 
HETATM    5  C   UNL     1      43.822 -17.206   6.668  1.00  0.00     0.066 C 
HETATM    6  C   UNL     1      43.768 -18.319   5.623  1.00  0.00     0.065 C 
HETATM    7  C   UNL     1      43.387 -17.753   4.231  1.00  0.00     0.055 C 
HETATM    8  C   UNL     1      45.110 -19.070   5.553  1.00  0.00     0.038 C 
HETATM    9  C   UNL     1      45.082 -20.194   4.518  1.00  0.00     0.003 C 
HETATM   10  C   UNL     1      44.642 -19.688   3.151  1.00  0.00     0.001 C 
HETATM   11  C   UNL     1      43.320 -18.923   3.218  1.00  0.00     0.010 C 
ENDROOT
BRANCH   2  12
HETATM   12  C   UNL     1      42.844 -14.580   5.067  1.00  0.00     0.338 C 
BRANCH  12  13
HETATM   13  C   UNL     1      42.157 -13.438   5.829  1.00  0.00     0.248 C 
HETATM   14  N   UNL     1      43.019 -12.561   6.449  1.00  0.00    -0.319 N 
HETATM   15  H   UNL     1      43.945 -12.398   6.051  1.00  0.00     0.169 HD
HETATM   16  O   UNL     1      40.926 -13.432   5.862  1.00  0.00    -0.271 OA
BRANCH  14  17
HETATM   17  C   UNL     1      42.673 -11.687   7.475  1.00  0.00     0.094 A 
HETATM   18  S   UNL     1      41.206 -10.843   7.421  1.00  0.00    -0.076 SA
HETATM   19  C   UNL     1      41.453 -10.148   8.955  1.00  0.00    -0.012 A 
HETATM   20  C   UNL     1      40.411  -9.230   9.518  1.00  0.00     0.057 C 
HETATM   21  C   UNL     1      42.656 -10.544   9.524  1.00  0.00    -0.030 A 
HETATM   22  C   UNL     1      43.133 -10.078  10.868  1.00  0.00     0.050 C 
HETATM   23  C   UNL     1      43.374 -11.470   8.655  1.00  0.00     0.080 A 
BRANCH  23  24
HETATM   24  C   UNL     1      44.665 -12.129   8.896  1.00  0.00     0.296 C 
HETATM   25  O   UNL     1      44.746 -13.340   9.100  1.00  0.00    -0.259 OA
BRANCH  24  26
HETATM   26  O   UNL     1      45.729 -11.285   8.857  1.00  0.00    -0.322 OA
HETATM   27  C   UNL     1      46.848 -11.762   8.109  1.00  0.00     0.213 C 
ENDBRANCH  24  26
ENDBRANCH  23  24
ENDBRANCH  14  17
ENDBRANCH  12  13
ENDBRANCH   2  12
BRANCH   1  28
HETATM   28  C   UNL     1      41.511 -16.385   2.999  1.00  0.00    -0.027 A 
HETATM   29  C   UNL     1      40.169 -16.020   2.815  1.00  0.00     0.011 A 
HETATM   30  C   UNL     1      39.744 -15.411   1.627  1.00  0.00     0.030 A 
HETATM   31  C   UNL     1      40.629 -15.186   0.569  1.00  0.00     0.030 A 
HETATM   32  C   UNL     1      41.948 -15.627   0.725  1.00  0.00     0.030 A 
HETATM   33  C   UNL     1      42.389 -16.207   1.920  1.00  0.00     0.011 A 
BRANCH  31  34
HETATM   34  N   UNL     1      40.269 -14.521  -0.601  1.00  0.00    -0.382 N 
BRANCH  34  35
HETATM   35  C   UNL     1      41.202 -14.500  -1.737  1.00  0.00     0.118 C 
HETATM   36  C   UNL     1      40.858 -15.586  -2.749  1.00  0.00     0.026 C 
ENDBRANCH  34  35
BRANCH  34  37
HETATM   37  C   UNL     1      39.418 -13.335  -0.422  1.00  0.00     0.118 C 
HETATM   38  C   UNL     1      38.048 -13.504  -1.067  1.00  0.00     0.026 C 
ENDBRANCH  34  37
ENDBRANCH  31  34
ENDBRANCH   1  28
BRANCH   6  39
HETATM   39  O   UNL     1      42.739 -19.224   6.039  1.00  0.00    -0.389 OA
HETATM   40  H   UNL     1      42.197 -19.476   5.265  1.00  0.00     0.210 HD
ENDBRANCH   6  39
TORSDOF 10
ENDMDL
MODEL 3
REMARK VINA RESULT:      -7.9      2.141      6.051
REMARK  10 active torsions:
REMARK  status: ('A' for Active; 'I' for Inactive)
REMARK    1  A    between atoms: C_2  and  N_3 
REMARK    2  A    between atoms: N_3  and  C_4 
REMARK    3  A    between atoms: N_3  and  C_37 
REMARK    4  A    between atoms: C_7  and  C_8 
REMARK    5  A    between atoms: N_9  and  C_11 
REMARK    6  A    between atoms: C_11  and  C_12 
REMARK       I    between atoms: C_12  and  N_13 
REMARK    7  A    between atoms: N_13  and  C_14 
REMARK    8  A    between atoms: C_20  and  C_21 
REMARK    9  A    between atoms: C_21  and  O_22 
REMARK   10  A    between atoms: C_28  and  O_29 
ROOT
HETATM    1  C   UNL     1      41.096 -13.399   2.860  1.00  0.00     0.228 C 
HETATM    2  N   UNL     1      41.550 -14.660   3.586  1.00  0.00    -0.054 N 
HETATM    3  H   UNL     1      42.317 -15.043   3.006  1.00  0.00     0.281 HD
HETATM    4  C   UNL     1      42.222 -14.366   4.905  1.00  0.00     0.239 C 
HETATM    5  C   UNL     1      41.292 -13.581   5.815  1.00  0.00     0.066 C 
HETATM    6  C   UNL     1      40.856 -12.280   5.147  1.00  0.00     0.065 C 
HETATM    7  C   UNL     1      40.170 -12.559   3.784  1.00  0.00     0.055 C 
HETATM    8  C   UNL     1      39.921 -11.477   6.069  1.00  0.00     0.038 C 
HETATM    9  C   UNL     1      39.473 -10.165   5.426  1.00  0.00     0.003 C 
HETATM   10  C   UNL     1      38.858 -10.394   4.052  1.00  0.00     0.001 C 
HETATM   11  C   UNL     1      39.774 -11.208   3.139  1.00  0.00     0.010 C 
ENDROOT
BRANCH   2  12
HETATM   12  C   UNL     1      40.585 -15.856   3.637  1.00  0.00     0.338 C 
BRANCH  12  13
HETATM   13  C   UNL     1      41.352 -17.099   4.109  1.00  0.00     0.248 C 
HETATM   14  N   UNL     1      42.478 -17.395   3.373  1.00  0.00    -0.319 N 
HETATM   15  H   UNL     1      42.997 -16.639   2.922  1.00  0.00     0.169 HD
HETATM   16  O   UNL     1      40.879 -17.739   5.049  1.00  0.00    -0.271 OA
BRANCH  14  17
HETATM   17  C   UNL     1      43.123 -18.627   3.352  1.00  0.00     0.094 A 
HETATM   18  S   UNL     1      43.095 -19.582   1.953  1.00  0.00    -0.076 SA
HETATM   19  C   UNL     1      44.118 -20.759   2.635  1.00  0.00    -0.012 A 
HETATM   20  C   UNL     1      44.505 -21.953   1.819  1.00  0.00     0.057 C 
HETATM   21  C   UNL     1      44.488 -20.443   3.936  1.00  0.00    -0.030 A 
HETATM   22  C   UNL     1      45.378 -21.307   4.780  1.00  0.00     0.050 C 
HETATM   23  C   UNL     1      43.912 -19.170   4.358  1.00  0.00     0.080 A 
BRANCH  23  24
HETATM   24  C   UNL     1      44.074 -18.480   5.644  1.00  0.00     0.296 C 
HETATM   25  O   UNL     1      44.560 -17.352   5.716  1.00  0.00    -0.259 OA
BRANCH  24  26
HETATM   26  O   UNL     1      43.631 -19.193   6.711  1.00  0.00    -0.322 OA
HETATM   27  C   UNL     1      44.028 -18.683   7.984  1.00  0.00     0.213 C 
ENDBRANCH  24  26
ENDBRANCH  23  24
ENDBRANCH  14  17
ENDBRANCH  12  13
ENDBRANCH   2  12
BRANCH   1  28
HETATM   28  C   UNL     1      40.586 -13.717   1.461  1.00  0.00    -0.027 A 
HETATM   29  C   UNL     1      39.224 -13.775   1.133  1.00  0.00     0.011 A 
HETATM   30  C   UNL     1      38.809 -13.987  -0.189  1.00  0.00     0.030 A 
HETATM   31  C   UNL     1      39.734 -14.189  -1.217  1.00  0.00     0.030 A 
HETATM   32  C   UNL     1      41.090 -14.213  -0.871  1.00  0.00     0.030 A 
HETATM   33  C   UNL     1      41.514 -13.972   0.441  1.00  0.00     0.011 A 
BRANCH  31  34
HETATM   34  N   UNL     1      39.372 -14.331  -2.554  1.00  0.00    -0.382 N 
BRANCH  34  35
HETATM   35  C   UNL     1      37.996 -14.020  -2.968  1.00  0.00     0.118 C 
HETATM   36  C   UNL     1      37.900 -12.608  -3.534  1.00  0.00     0.026 C 
ENDBRANCH  34  35
BRANCH  34  37
HETATM   37  C   UNL     1      40.055 -15.408  -3.287  1.00  0.00     0.118 C 
HETATM   38  C   UNL     1      39.099 -16.206  -4.165  1.00  0.00     0.026 C 
ENDBRANCH  34  37
ENDBRANCH  31  34
ENDBRANCH   1  28
BRANCH   6  39
HETATM   39  O   UNL     1      42.047 -11.523   4.904  1.00  0.00    -0.389 OA
HETATM   40  H   UNL     1      41.908 -10.598   5.186  1.00  0.00     0.210 HD
ENDBRANCH   6  39
TORSDOF 10
ENDMDL
MODEL 4
REMARK VINA RESULT:      -7.8      2.373      6.121
REMARK  10 active torsions:
REMARK  status: ('A' for Active; 'I' for Inactive)
REMARK    1  A    between atoms: C_2  and  N_3 
REMARK    2  A    between atoms: N_3  and  C_4 
REMARK    3  A    between atoms: N_3  and  C_37 
REMARK    4  A    between atoms: C_7  and  C_8 
REMARK    5  A    between atoms: N_9  and  C_11 
REMARK    6  A    between atoms: C_11  and  C_12 
REMARK       I    between atoms: C_12  and  N_13 
REMARK    7  A    between atoms: N_13  and  C_14 
REMARK    8  A    between atoms: C_20  and  C_21 
REMARK    9  A    between atoms: C_21  and  O_22 
REMARK   10  A    between atoms: C_28  and  O_29 
ROOT
HETATM    1  C   UNL     1      41.330 -12.590   2.834  1.00  0.00     0.228 C 
HETATM    2  N   UNL     1      42.017 -13.649   3.688  1.00  0.00    -0.054 N 
HETATM    3  H   UNL     1      42.875 -13.899   3.166  1.00  0.00     0.281 HD
HETATM    4  C   UNL     1      42.547 -13.098   4.989  1.00  0.00     0.239 C 
HETATM    5  C   UNL     1      41.426 -12.465   5.796  1.00  0.00     0.066 C 
HETATM    6  C   UNL     1      40.744 -11.358   4.997  1.00  0.00     0.065 C 
HETATM    7  C   UNL     1      40.200 -11.901   3.650  1.00  0.00     0.055 C 
HETATM    8  C   UNL     1      39.614 -10.707   5.814  1.00  0.00     0.038 C 
HETATM    9  C   UNL     1      38.918  -9.590   5.038  1.00  0.00     0.003 C 
HETATM   10  C   UNL     1      38.432 -10.070   3.677  1.00  0.00     0.001 C 
HETATM   11  C   UNL     1      39.546 -10.735   2.869  1.00  0.00     0.010 C 
ENDROOT
BRANCH   2  12
HETATM   12  C   UNL     1      41.339 -15.021   3.828  1.00  0.00     0.338 C 
BRANCH  12  13
HETATM   13  C   UNL     1      42.269 -16.102   3.260  1.00  0.00     0.248 C 
HETATM   14  N   UNL     1      41.893 -17.395   3.549  1.00  0.00    -0.319 N 
HETATM   15  H   UNL     1      40.903 -17.615   3.674  1.00  0.00     0.169 HD
HETATM   16  O   UNL     1      43.274 -15.729   2.654  1.00  0.00    -0.271 OA
BRANCH  14  17
HETATM   17  C   UNL     1      42.725 -18.508   3.477  1.00  0.00     0.094 A 
HETATM   18  S   UNL     1      42.870 -19.374   2.029  1.00  0.00    -0.076 SA
HETATM   19  C   UNL     1      44.055 -20.414   2.673  1.00  0.00    -0.012 A 
HETATM   20  C   UNL     1      44.638 -21.484   1.803  1.00  0.00     0.057 C 
HETATM   21  C   UNL     1      44.348 -20.119   3.998  1.00  0.00    -0.030 A 
HETATM   22  C   UNL     1      45.350 -20.880   4.816  1.00  0.00     0.050 C 
HETATM   23  C   UNL     1      43.572 -18.978   4.472  1.00  0.00     0.080 A 
BRANCH  23  24
HETATM   24  C   UNL     1      43.603 -18.344   5.797  1.00  0.00     0.296 C 
HETATM   25  O   UNL     1      43.160 -18.910   6.796  1.00  0.00    -0.259 OA
BRANCH  24  26
HETATM   26  O   UNL     1      44.170 -17.110   5.804  1.00  0.00    -0.322 OA
HETATM   27  C   UNL     1      43.661 -16.218   6.795  1.00  0.00     0.213 C 
ENDBRANCH  24  26
ENDBRANCH  23  24
ENDBRANCH  14  17
ENDBRANCH  12  13
ENDBRANCH   2  12
BRANCH   1  28
HETATM   28  C   UNL     1      40.966 -13.135   1.459  1.00  0.00    -0.027 A 
HETATM   29  C   UNL     1      39.705 -13.661   1.148  1.00  0.00     0.011 A 
HETATM   30  C   UNL     1      39.396 -14.070  -0.156  1.00  0.00     0.030 A 
HETATM   31  C   UNL     1      40.344 -14.008  -1.181  1.00  0.00     0.030 A 
HETATM   32  C   UNL     1      41.627 -13.559  -0.848  1.00  0.00     0.030 A 
HETATM   33  C   UNL     1      41.936 -13.120   0.445  1.00  0.00     0.011 A 
BRANCH  31  34
HETATM   34  N   UNL     1      40.061 -14.334  -2.505  1.00  0.00    -0.382 N 
BRANCH  34  35
HETATM   35  C   UNL     1      40.386 -15.679  -3.004  1.00  0.00     0.118 C 
HETATM   36  C   UNL     1      39.294 -16.198  -3.932  1.00  0.00     0.026 C 
ENDBRANCH  34  35
BRANCH  34  37
HETATM   37  C   UNL     1      40.167 -13.229  -3.470  1.00  0.00     0.118 C 
HETATM   38  C   UNL     1      38.915 -12.360  -3.491  1.00  0.00     0.026 C 
ENDBRANCH  34  37
ENDBRANCH  31  34
ENDBRANCH   1  28
BRANCH   6  39
HETATM   39  O   UNL     1      41.749 -10.377   4.713  1.00  0.00    -0.389 OA
HETATM   40  H   UNL     1      41.617 -10.029   3.810  1.00  0.00     0.210 HD
ENDBRANCH   6  39
TORSDOF 10
ENDMDL
MODEL 5
REMARK VINA RESULT:      -7.8      2.817      8.572
REMARK  10 active torsions:
REMARK  status: ('A' for Active; 'I' for Inactive)
REMARK    1  A    between atoms: C_2  and  N_3 
REMARK    2  A    between atoms: N_3  and  C_4 
REMARK    3  A    between atoms: N_3  and  C_37 
REMARK    4  A    between atoms: C_7  and  C_8 
REMARK    5  A    between atoms: N_9  and  C_11 
REMARK    6  A    between atoms: C_11  and  C_12 
REMARK       I    between atoms: C_12  and  N_13 
REMARK    7  A    between atoms: N_13  and  C_14 
REMARK    8  A    between atoms: C_20  and  C_21 
REMARK    9  A    between atoms: C_21  and  O_22 
REMARK   10  A    between atoms: C_28  and  O_29 
ROOT
HETATM    1  C   UNL     1      42.252 -16.944   4.094  1.00  0.00     0.228 C 
HETATM    2  N   UNL     1      42.502 -15.831   5.103  1.00  0.00    -0.054 N 
HETATM    3  H   UNL     1      41.571 -15.416   5.283  1.00  0.00     0.281 HD
HETATM    4  C   UNL     1      42.919 -16.351   6.457  1.00  0.00     0.239 C 
HETATM    5  C   UNL     1      44.174 -17.200   6.340  1.00  0.00     0.066 C 
HETATM    6  C   UNL     1      43.949 -18.364   5.377  1.00  0.00     0.065 C 
HETATM    7  C   UNL     1      43.510 -17.851   3.981  1.00  0.00     0.055 C 
HETATM    8  C   UNL     1      45.214 -19.233   5.261  1.00  0.00     0.038 C 
HETATM    9  C   UNL     1      45.014 -20.409   4.307  1.00  0.00     0.003 C 
HETATM   10  C   UNL     1      44.514 -19.948   2.944  1.00  0.00     0.001 C 
HETATM   11  C   UNL     1      43.269 -19.068   3.055  1.00  0.00     0.010 C 
ENDROOT
BRANCH   2  12
HETATM   12  C   UNL     1      43.298 -14.598   4.644  1.00  0.00     0.338 C 
BRANCH  12  13
HETATM   13  C   UNL     1      42.425 -13.346   4.811  1.00  0.00     0.248 C 
HETATM   14  N   UNL     1      41.367 -13.262   3.933  1.00  0.00    -0.319 N 
HETATM   15  H   UNL     1      40.936 -14.118   3.580  1.00  0.00     0.169 HD
HETATM   16  O   UNL     1      42.766 -12.521   5.659  1.00  0.00    -0.271 OA
BRANCH  14  17
HETATM   17  C   UNL     1      40.666 -12.099   3.630  1.00  0.00     0.094 A 
HETATM   18  S   UNL     1      40.956 -11.281   2.175  1.00  0.00    -0.076 SA
HETATM   19  C   UNL     1      39.728 -10.141   2.475  1.00  0.00    -0.012 A 
HETATM   20  C   UNL     1      39.465  -9.067   1.464  1.00  0.00     0.057 C 
HETATM   21  C   UNL     1      39.088 -10.364   3.687  1.00  0.00    -0.030 A 
HETATM   22  C   UNL     1      37.972  -9.507   4.208  1.00  0.00     0.050 C 
HETATM   23  C   UNL     1      39.631 -11.536   4.366  1.00  0.00     0.080 A 
BRANCH  23  24
HETATM   24  C   UNL     1      39.220 -12.115   5.652  1.00  0.00     0.296 C 
HETATM   25  O   UNL     1      39.044 -13.324   5.791  1.00  0.00    -0.259 OA
BRANCH  24  26
HETATM   26  O   UNL     1      39.073 -11.199   6.645  1.00  0.00    -0.322 OA
HETATM   27  C   UNL     1      40.213 -11.039   7.490  1.00  0.00     0.213 C 
ENDBRANCH  24  26
ENDBRANCH  23  24
ENDBRANCH  14  17
ENDBRANCH  12  13
ENDBRANCH   2  12
BRANCH   1  28
HETATM   28  C   UNL     1      41.665 -16.399   2.799  1.00  0.00    -0.027 A 
HETATM   29  C   UNL     1      40.298 -16.140   2.621  1.00  0.00     0.011 A 
HETATM   30  C   UNL     1      39.823 -15.557   1.439  1.00  0.00     0.030 A 
HETATM   31  C   UNL     1      40.684 -15.252   0.382  1.00  0.00     0.030 A 
HETATM   32  C   UNL     1      42.035 -15.587   0.531  1.00  0.00     0.030 A 
HETATM   33  C   UNL     1      42.524 -16.142   1.720  1.00  0.00     0.011 A 
BRANCH  31  34
HETATM   34  N   UNL     1      40.269 -14.607  -0.781  1.00  0.00    -0.382 N 
BRANCH  34  35
HETATM   35  C   UNL     1      41.179 -14.539  -1.934  1.00  0.00     0.118 C 
HETATM   36  C   UNL     1      40.852 -15.621  -2.956  1.00  0.00     0.026 C 
ENDBRANCH  34  35
BRANCH  34  37
HETATM   37  C   UNL     1      39.361 -13.467  -0.587  1.00  0.00     0.118 C 
HETATM   38  C   UNL     1      38.029 -13.661  -1.299  1.00  0.00     0.026 C 
ENDBRANCH  34  37
ENDBRANCH  31  34
ENDBRANCH   1  28
BRANCH   6  39
HETATM   39  O   UNL     1      42.882 -19.149   5.923  1.00  0.00    -0.389 OA
HETATM   40  H   UNL     1      43.147 -19.492   6.798  1.00  0.00     0.210 HD
ENDBRANCH   6  39
TORSDOF 10
ENDMDL
MODEL 6
REMARK VINA RESULT:      -7.7      2.700      8.859
REMARK  10 active torsions:
REMARK  status: ('A' for Active; 'I' for Inactive)
REMARK    1  A    between atoms: C_2  and  N_3 
REMARK    2  A    between atoms: N_3  and  C_4 
REMARK    3  A    between atoms: N_3  and  C_37 
REMARK    4  A    between atoms: C_7  and  C_8 
REMARK    5  A    between atoms: N_9  and  C_11 
REMARK    6  A    between atoms: C_11  and  C_12 
REMARK       I    between atoms: C_12  and  N_13 
REMARK    7  A    between atoms: N_13  and  C_14 
REMARK    8  A    between atoms: C_20  and  C_21 
REMARK    9  A    between atoms: C_21  and  O_22 
REMARK   10  A    between atoms: C_28  and  O_29 
ROOT
HETATM    1  C   UNL     1      42.083 -17.039   4.015  1.00  0.00     0.228 C 
HETATM    2  N   UNL     1      42.257 -15.977   5.094  1.00  0.00    -0.054 N 
HETATM    3  H   UNL     1      41.305 -15.609   5.265  1.00  0.00     0.281 HD
HETATM    4  C   UNL     1      42.652 -16.558   6.429  1.00  0.00     0.239 C 
HETATM    5  C   UNL     1      43.943 -17.350   6.306  1.00  0.00     0.066 C 
HETATM    6  C   UNL     1      43.794 -18.464   5.273  1.00  0.00     0.065 C 
HETATM    7  C   UNL     1      43.379 -17.889   3.894  1.00  0.00     0.055 C 
HETATM    8  C   UNL     1      45.096 -19.276   5.150  1.00  0.00     0.038 C 
HETATM    9  C   UNL     1      44.973 -20.403   4.125  1.00  0.00     0.003 C 
HETATM   10  C   UNL     1      44.497 -19.884   2.775  1.00  0.00     0.001 C 
HETATM   11  C   UNL     1      43.216 -19.060   2.893  1.00  0.00     0.010 C 
ENDROOT
BRANCH   2  12
HETATM   12  C   UNL     1      43.017 -14.690   4.731  1.00  0.00     0.338 C 
BRANCH  12  13
HETATM   13  C   UNL     1      42.384 -13.506   5.475  1.00  0.00     0.248 C 
HETATM   14  N   UNL     1      41.052 -13.296   5.194  1.00  0.00    -0.319 N 
HETATM   15  H   UNL     1      40.460 -14.089   4.939  1.00  0.00     0.169 HD
HETATM   16  O   UNL     1      43.114 -12.832   6.201  1.00  0.00    -0.271 OA
BRANCH  14  17
HETATM   17  C   UNL     1      40.357 -12.115   5.435  1.00  0.00     0.094 A 
HETATM   18  S   UNL     1      40.355 -11.425   6.981  1.00  0.00    -0.076 SA
HETATM   19  C   UNL     1      39.470 -10.065   6.465  1.00  0.00    -0.012 A 
HETATM   20  C   UNL     1      39.130  -8.995   7.455  1.00  0.00     0.057 C 
HETATM   21  C   UNL     1      39.161 -10.123   5.112  1.00  0.00    -0.030 A 
HETATM   22  C   UNL     1      38.381  -9.063   4.392  1.00  0.00     0.050 C 
HETATM   23  C   UNL     1      39.700 -11.331   4.495  1.00  0.00     0.080 A 
BRANCH  23  24
HETATM   24  C   UNL     1      39.610 -11.754   3.091  1.00  0.00     0.296 C 
HETATM   25  O   UNL     1      40.591 -11.750   2.349  1.00  0.00    -0.259 OA
BRANCH  24  26
HETATM   26  O   UNL     1      38.366 -12.152   2.716  1.00  0.00    -0.322 OA
HETATM   27  C   UNL     1      37.738 -11.323   1.738  1.00  0.00     0.213 C 
ENDBRANCH  24  26
ENDBRANCH  23  24
ENDBRANCH  14  17
ENDBRANCH  12  13
ENDBRANCH   2  12
BRANCH   1  28
HETATM   28  C   UNL     1      41.515 -16.443   2.734  1.00  0.00    -0.027 A 
HETATM   29  C   UNL     1      40.227 -15.897   2.643  1.00  0.00     0.011 A 
HETATM   30  C   UNL     1      39.785 -15.284   1.464  1.00  0.00     0.030 A 
HETATM   31  C   UNL     1      40.594 -15.230   0.325  1.00  0.00     0.030 A 
HETATM   32  C   UNL     1      41.848 -15.849   0.395  1.00  0.00     0.030 A 
HETATM   33  C   UNL     1      42.309 -16.437   1.578  1.00  0.00     0.011 A 
BRANCH  31  34
HETATM   34  N   UNL     1      40.227 -14.569  -0.844  1.00  0.00    -0.382 N 
BRANCH  34  35
HETATM   35  C   UNL     1      41.098 -14.651  -2.026  1.00  0.00     0.118 C 
HETATM   36  C   UNL     1      40.596 -15.706  -3.005  1.00  0.00     0.026 C 
ENDBRANCH  34  35
BRANCH  34  37
HETATM   37  C   UNL     1      39.482 -13.315  -0.658  1.00  0.00     0.118 C 
HETATM   38  C   UNL     1      38.216 -13.264  -1.506  1.00  0.00     0.026 C 
ENDBRANCH  34  37
ENDBRANCH  31  34
ENDBRANCH   1  28
BRANCH   6  39
HETATM   39  O   UNL     1      42.744 -19.320   5.738  1.00  0.00    -0.389 OA
HETATM   40  H   UNL     1      43.132 -20.115   6.152  1.00  0.00     0.210 HD
ENDBRANCH   6  39
TORSDOF 10
ENDMDL
MODEL 7
REMARK VINA RESULT:      -7.6      3.914      8.395
REMARK  10 active torsions:
REMARK  status: ('A' for Active; 'I' for Inactive)
REMARK    1  A    between atoms: C_2  and  N_3 
REMARK    2  A    between atoms: N_3  and  C_4 
REMARK    3  A    between atoms: N_3  and  C_37 
REMARK    4  A    between atoms: C_7  and  C_8 
REMARK    5  A    between atoms: N_9  and  C_11 
REMARK    6  A    between atoms: C_11  and  C_12 
REMARK       I    between atoms: C_12  and  N_13 
REMARK    7  A    between atoms: N_13  and  C_14 
REMARK    8  A    between atoms: C_20  and  C_21 
REMARK    9  A    between atoms: C_21  and  O_22 
REMARK   10  A    between atoms: C_28  and  O_29 
ROOT
HETATM    1  C   UNL     1      41.234 -12.221   4.297  1.00  0.00     0.228 C 
HETATM    2  N   UNL     1      41.213 -11.054   5.277  1.00  0.00    -0.054 N 
HETATM    3  H   UNL     1      42.197 -10.936   5.576  1.00  0.00     0.281 HD
HETATM    4  C   UNL     1      40.890  -9.738   4.613  1.00  0.00     0.239 C 
HETATM    5  C   UNL     1      39.546  -9.813   3.906  1.00  0.00     0.066 C 
HETATM    6  C   UNL     1      39.542 -10.936   2.873  1.00  0.00     0.065 C 
HETATM    7  C   UNL     1      39.882 -12.297   3.534  1.00  0.00     0.055 C 
HETATM    8  C   UNL     1      38.187 -11.010   2.147  1.00  0.00     0.038 C 
HETATM    9  C   UNL     1      38.158 -12.124   1.103  1.00  0.00     0.003 C 
HETATM   10  C   UNL     1      38.556 -13.467   1.701  1.00  0.00     0.001 C 
HETATM   11  C   UNL     1      39.892 -13.394   2.440  1.00  0.00     0.010 C 
ENDROOT
BRANCH   2  12
HETATM   12  C   UNL     1      40.509 -11.253   6.629  1.00  0.00     0.338 C 
BRANCH  12  13
HETATM   13  C   UNL     1      41.314 -10.540   7.724  1.00  0.00     0.248 C 
HETATM   14  N   UNL     1      41.110 -11.026   8.996  1.00  0.00    -0.319 N 
HETATM   15  H   UNL     1      40.867 -12.010   9.127  1.00  0.00     0.169 HD
HETATM   16  O   UNL     1      42.015  -9.586   7.387  1.00  0.00    -0.271 OA
BRANCH  14  17
HETATM   17  C   UNL     1      41.415 -10.349  10.173  1.00  0.00     0.094 A 
HETATM   18  S   UNL     1      40.291  -9.286  10.862  1.00  0.00    -0.076 SA
HETATM   19  C   UNL     1      41.279  -8.987  12.216  1.00  0.00    -0.012 A 
HETATM   20  C   UNL     1      40.794  -8.056  13.284  1.00  0.00     0.057 C 
HETATM   21  C   UNL     1      42.476  -9.687  12.157  1.00  0.00    -0.030 A 
HETATM   22  C   UNL     1      43.539  -9.607  13.213  1.00  0.00     0.050 C 
HETATM   23  C   UNL     1      42.552 -10.509  10.954  1.00  0.00     0.080 A 
BRANCH  23  24
HETATM   24  C   UNL     1      43.636 -11.406  10.531  1.00  0.00     0.296 C 
HETATM   25  O   UNL     1      43.943 -12.403  11.183  1.00  0.00    -0.259 OA
BRANCH  24  26
HETATM   26  O   UNL     1      44.235 -11.035   9.370  1.00  0.00    -0.322 OA
HETATM   27  C   UNL     1      44.733 -12.114   8.578  1.00  0.00     0.213 C 
ENDBRANCH  24  26
ENDBRANCH  23  24
ENDBRANCH  14  17
ENDBRANCH  12  13
ENDBRANCH   2  12
BRANCH   1  28
HETATM   28  C   UNL     1      41.735 -13.496   4.962  1.00  0.00    -0.027 A 
HETATM   29  C   UNL     1      40.883 -14.506   5.430  1.00  0.00     0.011 A 
HETATM   30  C   UNL     1      41.399 -15.698   5.957  1.00  0.00     0.030 A 
HETATM   31  C   UNL     1      42.776 -15.905   6.073  1.00  0.00     0.030 A 
HETATM   32  C   UNL     1      43.622 -14.861   5.681  1.00  0.00     0.030 A 
HETATM   33  C   UNL     1      43.116 -13.679   5.125  1.00  0.00     0.011 A 
BRANCH  31  34
HETATM   34  N   UNL     1      43.335 -17.099   6.522  1.00  0.00    -0.382 N 
BRANCH  34  35
HETATM   35  C   UNL     1      43.075 -18.343   5.782  1.00  0.00     0.118 C 
HETATM   36  C   UNL     1      44.003 -18.470   4.580  1.00  0.00     0.026 C 
ENDBRANCH  34  35
BRANCH  34  37
HETATM   37  C   UNL     1      43.496 -17.218   7.979  1.00  0.00     0.118 C 
HETATM   38  C   UNL     1      44.064 -18.571   8.389  1.00  0.00     0.026 C 
ENDBRANCH  34  37
ENDBRANCH  31  34
ENDBRANCH   1  28
BRANCH   6  39
HETATM   39  O   UNL     1      40.571 -10.627   1.925  1.00  0.00    -0.389 OA
HETATM   40  H   UNL     1      40.979  -9.770   2.157  1.00  0.00     0.210 HD
ENDBRANCH   6  39
TORSDOF 10
ENDMDL
MODEL 8
REMARK VINA RESULT:      -7.5      3.213      7.514
REMARK  10 active torsions:
REMARK  status: ('A' for Active; 'I' for Inactive)
REMARK    1  A    between atoms: C_2  and  N_3 
REMARK    2  A    between atoms: N_3  and  C_4 
REMARK    3  A    between atoms: N_3  and  C_37 
REMARK    4  A    between atoms: C_7  and  C_8 
REMARK    5  A    between atoms: N_9  and  C_11 
REMARK    6  A    between atoms: C_11  and  C_12 
REMARK       I    between atoms: C_12  and  N_13 
REMARK    7  A    between atoms: N_13  and  C_14 
REMARK    8  A    between atoms: C_20  and  C_21 
REMARK    9  A    between atoms: C_21  and  O_22 
REMARK   10  A    between atoms: C_28  and  O_29 
ROOT
HETATM    1  C   UNL     1      40.924 -13.049   3.064  1.00  0.00     0.228 C 
HETATM    2  N   UNL     1      40.962 -12.087   4.245  1.00  0.00    -0.054 N 
HETATM    3  H   UNL     1      41.968 -11.904   4.410  1.00  0.00     0.281 HD
HETATM    4  C   UNL     1      40.409 -10.724   3.909  1.00  0.00     0.239 C 
HETATM    5  C   UNL     1      38.977 -10.837   3.413  1.00  0.00     0.066 C 
HETATM    6  C   UNL     1      38.901 -11.749   2.191  1.00  0.00     0.065 C 
HETATM    7  C   UNL     1      39.474 -13.154   2.513  1.00  0.00     0.055 C 
HETATM    8  C   UNL     1      37.454 -11.860   1.678  1.00  0.00     0.038 C 
HETATM    9  C   UNL     1      37.350 -12.764   0.452  1.00  0.00     0.003 C 
HETATM   10  C   UNL     1      37.968 -14.132   0.708  1.00  0.00     0.001 C 
HETATM   11  C   UNL     1      39.398 -14.028   1.237  1.00  0.00     0.010 C 
ENDROOT
BRANCH   2  12
HETATM   12  C   UNL     1      40.522 -12.610   5.622  1.00  0.00     0.338 C 
BRANCH  12  13
HETATM   13  C   UNL     1      41.073 -11.681   6.713  1.00  0.00     0.248 C 
HETATM   14  N   UNL     1      42.387 -11.913   7.056  1.00  0.00    -0.319 N 
HETATM   15  H   UNL     1      43.031 -12.287   6.357  1.00  0.00     0.169 HD
HETATM   16  O   UNL     1      40.300 -10.862   7.210  1.00  0.00    -0.271 OA
BRANCH  14  17
HETATM   17  C   UNL     1      42.999 -11.481   8.229  1.00  0.00     0.094 A 
HETATM   18  S   UNL     1      42.254 -10.310   9.199  1.00  0.00    -0.076 SA
HETATM   19  C   UNL     1      43.462 -10.411  10.394  1.00  0.00    -0.012 A 
HETATM   20  C   UNL     1      43.356  -9.552  11.616  1.00  0.00     0.057 C 
HETATM   21  C   UNL     1      44.449 -11.332  10.066  1.00  0.00    -0.030 A 
HETATM   22  C   UNL     1      45.638 -11.619  10.934  1.00  0.00     0.050 C 
HETATM   23  C   UNL     1      44.167 -11.980   8.789  1.00  0.00     0.080 A 
BRANCH  23  24
HETATM   24  C   UNL     1      44.949 -13.018   8.104  1.00  0.00     0.296 C 
HETATM   25  O   UNL     1      46.059 -12.784   7.629  1.00  0.00    -0.259 OA
BRANCH  24  26
HETATM   26  O   UNL     1      44.338 -14.231   8.066  1.00  0.00    -0.322 OA
HETATM   27  C   UNL     1      44.418 -14.906   6.810  1.00  0.00     0.213 C 
ENDBRANCH  24  26
ENDBRANCH  23  24
ENDBRANCH  14  17
ENDBRANCH  12  13
ENDBRANCH   2  12
BRANCH   1  28
HETATM   28  C   UNL     1      41.647 -14.350   3.382  1.00  0.00    -0.027 A 
HETATM   29  C   UNL     1      41.065 -15.396   4.111  1.00  0.00     0.011 A 
HETATM   30  C   UNL     1      41.745 -16.607   4.303  1.00  0.00     0.030 A 
HETATM   31  C   UNL     1      43.039 -16.799   3.812  1.00  0.00     0.030 A 
HETATM   32  C   UNL     1      43.648 -15.723   3.156  1.00  0.00     0.030 A 
HETATM   33  C   UNL     1      42.966 -14.521   2.934  1.00  0.00     0.011 A 
BRANCH  31  34
HETATM   34  N   UNL     1      43.724 -18.007   3.915  1.00  0.00    -0.382 N 
BRANCH  34  35
HETATM   35  C   UNL     1      44.088 -18.739   2.692  1.00  0.00     0.118 C 
HETATM   36  C   UNL     1      42.845 -19.179   1.927  1.00  0.00     0.026 C 
ENDBRANCH  34  35
BRANCH  34  37
HETATM   37  C   UNL     1      43.411 -18.817   5.102  1.00  0.00     0.118 C 
HETATM   38  C   UNL     1      44.547 -18.817   6.117  1.00  0.00     0.026 C 
ENDBRANCH  34  37
ENDBRANCH  31  34
ENDBRANCH   1  28
BRANCH   6  39
HETATM   39  O   UNL     1      39.719 -11.151   1.179  1.00  0.00    -0.389 OA
HETATM   40  H   UNL     1      39.309 -10.316   0.882  1.00  0.00     0.210 HD
ENDBRANCH   6  39
TORSDOF 10
ENDMDL
MODEL 9
REMARK VINA RESULT:      -7.5      2.648      3.869
REMARK  10 active torsions:
REMARK  status: ('A' for Active; 'I' for Inactive)
REMARK    1  A    between atoms: C_2  and  N_3 
REMARK    2  A    between atoms: N_3  and  C_4 
REMARK    3  A    between atoms: N_3  and  C_37 
REMARK    4  A    between atoms: C_7  and  C_8 
REMARK    5  A    between atoms: N_9  and  C_11 
REMARK    6  A    between atoms: C_11  and  C_12 
REMARK       I    between atoms: C_12  and  N_13 
REMARK    7  A    between atoms: N_13  and  C_14 
REMARK    8  A    between atoms: C_20  and  C_21 
REMARK    9  A    between atoms: C_21  and  O_22 
REMARK   10  A    between atoms: C_28  and  O_29 
ROOT
HETATM    1  C   UNL     1      39.761 -11.280   5.529  1.00  0.00     0.228 C 
HETATM    2  N   UNL     1      40.522 -12.374   4.791  1.00  0.00    -0.054 N 
HETATM    3  H   UNL     1      40.344 -13.238   5.333  1.00  0.00     0.281 HD
HETATM    4  C   UNL     1      39.934 -12.685   3.436  1.00  0.00     0.239 C 
HETATM    5  C   UNL     1      39.903 -11.437   2.569  1.00  0.00     0.066 C 
HETATM    6  C   UNL     1      39.101 -10.329   3.248  1.00  0.00     0.065 C 
HETATM    7  C   UNL     1      39.684 -10.001   4.647  1.00  0.00     0.055 C 
HETATM    8  C   UNL     1      39.059  -9.066   2.370  1.00  0.00     0.038 C 
HETATM    9  C   UNL     1      38.257  -7.942   3.024  1.00  0.00     0.003 C 
HETATM   10  C   UNL     1      38.756  -7.640   4.431  1.00  0.00     0.001 C 
HETATM   11  C   UNL     1      38.819  -8.895   5.301  1.00  0.00     0.010 C 
ENDROOT
BRANCH   2  12
HETATM   12  C   UNL     1      42.059 -12.325   4.801  1.00  0.00     0.338 C 
BRANCH  12  13
HETATM   13  C   UNL     1      42.607 -13.616   4.177  1.00  0.00     0.248 C 
HETATM   14  N   UNL     1      42.127 -14.777   4.743  1.00  0.00    -0.319 N 
HETATM   15  H   UNL     1      41.191 -14.788   5.153  1.00  0.00     0.169 HD
HETATM   16  O   UNL     1      43.445 -13.507   3.282  1.00  0.00    -0.271 OA
BRANCH  14  17
HETATM   17  C   UNL     1      42.717 -16.032   4.625  1.00  0.00     0.094 A 
HETATM   18  S   UNL     1      42.482 -16.957   3.226  1.00  0.00    -0.076 SA
HETATM   19  C   UNL     1      43.535 -18.184   3.760  1.00  0.00    -0.012 A 
HETATM   20  C   UNL     1      43.772 -19.375   2.885  1.00  0.00     0.057 C 
HETATM   21  C   UNL     1      44.072 -17.907   5.011  1.00  0.00    -0.030 A 
HETATM   22  C   UNL     1      45.025 -18.819   5.726  1.00  0.00     0.050 C 
HETATM   23  C   UNL     1      43.601 -16.622   5.518  1.00  0.00     0.080 A 
BRANCH  23  24
HETATM   24  C   UNL     1      43.946 -15.963   6.785  1.00  0.00     0.296 C 
HETATM   25  O   UNL     1      43.522 -16.372   7.865  1.00  0.00    -0.259 OA
BRANCH  24  26
HETATM   26  O   UNL     1      44.772 -14.893   6.641  1.00  0.00    -0.322 OA
HETATM   27  C   UNL     1      44.488 -13.793   7.505  1.00  0.00     0.213 C 
ENDBRANCH  24  26
ENDBRANCH  23  24
ENDBRANCH  14  17
ENDBRANCH  12  13
ENDBRANCH   2  12
BRANCH   1  28
HETATM   28  C   UNL     1      40.268 -11.116   6.955  1.00  0.00    -0.027 A 
HETATM   29  C   UNL     1      41.546 -10.630   7.268  1.00  0.00     0.011 A 
HETATM   30  C   UNL     1      41.930 -10.417   8.598  1.00  0.00     0.030 A 
HETATM   31  C   UNL     1      41.074 -10.720   9.660  1.00  0.00     0.030 A 
HETATM   32  C   UNL     1      39.831 -11.283   9.347  1.00  0.00     0.030 A 
HETATM   33  C   UNL     1      39.426 -11.470   8.020  1.00  0.00     0.011 A 
BRANCH  31  34
HETATM   34  N   UNL     1      41.384 -10.460  10.992  1.00  0.00    -0.382 N 
BRANCH  34  35
HETATM   35  C   UNL     1      42.618 -11.014  11.569  1.00  0.00     0.118 C 
HETATM   36  C   UNL     1      43.583  -9.903  11.969  1.00  0.00     0.026 C 
ENDBRANCH  34  35
BRANCH  34  37
HETATM   37  C   UNL     1      40.234 -10.323  11.898  1.00  0.00     0.118 C 
HETATM   38  C   UNL     1      39.974  -8.872  12.286  1.00  0.00     0.026 C 
ENDBRANCH  34  37
ENDBRANCH  31  34
ENDBRANCH   1  28
BRANCH   6  39
HETATM   39  O   UNL     1      37.771 -10.832   3.421  1.00  0.00    -0.389 OA
HETATM   40  H   UNL     1      37.193 -10.114   3.747  1.00  0.00     0.210 HD
ENDBRANCH   6  39
TORSDOF 10
ENDMDL
MODEL 10
REMARK VINA RESULT:      -7.5      3.308      7.953
REMARK  10 active torsions:
REMARK  status: ('A' for Active; 'I' for Inactive)
REMARK    1  A    between atoms: C_2  and  N_3 
REMARK    2  A    between atoms: N_3  and  C_4 
REMARK    3  A    between atoms: N_3  and  C_37 
REMARK    4  A    between atoms: C_7  and  C_8 
REMARK    5  A    between atoms: N_9  and  C_11 
REMARK    6  A    between atoms: C_11  and  C_12 
REMARK       I    between atoms: C_12  and  N_13 
REMARK    7  A    between atoms: N_13  and  C_14 
REMARK    8  A    between atoms: C_20  and  C_21 
REMARK    9  A    between atoms: C_21  and  O_22 
REMARK   10  A    between atoms: C_28  and  O_29 
ROOT
HETATM    1  C   UNL     1      41.736 -15.751   4.339  1.00  0.00     0.228 C 
HETATM    2  N   UNL     1      42.214 -15.126   5.644  1.00  0.00    -0.054 N 
HETATM    3  H   UNL     1      41.371 -14.693   6.060  1.00  0.00     0.281 HD
HETATM    4  C   UNL     1      42.621 -16.154   6.671  1.00  0.00     0.239 C 
HETATM    5  C   UNL     1      43.719 -17.050   6.124  1.00  0.00     0.066 C 
HETATM    6  C   UNL     1      43.261 -17.741   4.842  1.00  0.00     0.065 C 
HETATM    7  C   UNL     1      42.830 -16.702   3.776  1.00  0.00     0.055 C 
HETATM    8  C   UNL     1      44.367 -18.658   4.288  1.00  0.00     0.038 C 
HETATM    9  C   UNL     1      43.932 -19.367   3.007  1.00  0.00     0.003 C 
HETATM   10  C   UNL     1      43.434 -18.380   1.959  1.00  0.00     0.001 C 
HETATM   11  C   UNL     1      42.350 -17.455   2.510  1.00  0.00     0.010 C 
ENDROOT
BRANCH   2  12
HETATM   12  C   UNL     1      43.165 -13.920   5.568  1.00  0.00     0.338 C 
BRANCH  12  13
HETATM   13  C   UNL     1      42.573 -12.761   6.382  1.00  0.00     0.248 C 
HETATM   14  N   UNL     1      43.438 -12.197   7.293  1.00  0.00    -0.319 N 
HETATM   15  H   UNL     1      44.442 -12.202   7.104  1.00  0.00     0.169 HD
HETATM   16  O   UNL     1      41.390 -12.475   6.192  1.00  0.00    -0.271 OA
BRANCH  14  17
HETATM   17  C   UNL     1      43.062 -11.411   8.378  1.00  0.00     0.094 A 
HETATM   18  S   UNL     1      41.500 -10.763   8.462  1.00  0.00    -0.076 SA
HETATM   19  C   UNL     1      41.770 -10.094  10.004  1.00  0.00    -0.012 A 
HETATM   20  C   UNL     1      40.665  -9.340  10.677  1.00  0.00     0.057 C 
HETATM   21  C   UNL     1      43.052 -10.350  10.470  1.00  0.00    -0.030 A 
HETATM   22  C   UNL     1      43.565  -9.873  11.797  1.00  0.00     0.050 C 
HETATM   23  C   UNL     1      43.816 -11.146   9.514  1.00  0.00     0.080 A 
BRANCH  23  24
HETATM   24  C   UNL     1      45.194 -11.640   9.636  1.00  0.00     0.296 C 
HETATM   25  O   UNL     1      45.479 -12.588  10.365  1.00  0.00    -0.259 OA
BRANCH  24  26
HETATM   26  O   UNL     1      46.090 -10.966   8.869  1.00  0.00    -0.322 OA
HETATM   27  C   UNL     1      46.956 -11.791   8.090  1.00  0.00     0.213 C 
ENDBRANCH  24  26
ENDBRANCH  23  24
ENDBRANCH  14  17
ENDBRANCH  12  13
ENDBRANCH   2  12
BRANCH   1  28
HETATM   28  C   UNL     1      41.169 -14.700   3.395  1.00  0.00    -0.027 A 
HETATM   29  C   UNL     1      41.920 -14.090   2.380  1.00  0.00     0.011 A 
HETATM   30  C   UNL     1      41.326 -13.192   1.484  1.00  0.00     0.030 A 
HETATM   31  C   UNL     1      39.978 -12.840   1.594  1.00  0.00     0.030 A 
HETATM   32  C   UNL     1      39.253 -13.387   2.659  1.00  0.00     0.030 A 
HETATM   33  C   UNL     1      39.830 -14.308   3.540  1.00  0.00     0.011 A 
BRANCH  31  34
HETATM   34  N   UNL     1      39.328 -12.009   0.685  1.00  0.00    -0.382 N 
BRANCH  34  35
HETATM   35  C   UNL     1      40.118 -11.253  -0.298  1.00  0.00     0.118 C 
HETATM   36  C   UNL     1      39.962 -11.841  -1.695  1.00  0.00     0.026 C 
ENDBRANCH  34  35
BRANCH  34  37
HETATM   37  C   UNL     1      38.097 -11.370   1.175  1.00  0.00     0.118 C 
HETATM   38  C   UNL     1      36.859 -11.857   0.432  1.00  0.00     0.026 C 
ENDBRANCH  34  37
ENDBRANCH  31  34
ENDBRANCH   1  28
BRANCH   6  39
HETATM   39  O   UNL     1      42.118 -18.533   5.187  1.00  0.00    -0.389 OA
HETATM   40  H   UNL     1      41.368 -18.287   4.612  1.00  0.00     0.210 HD
ENDBRANCH   6  39
TORSDOF 10
ENDMDL
