MODEL 1
REMARK VINA RESULT:      -9.6      0.000      0.000
REMARK  6 active torsions:
REMARK  status: ('A' for Active; 'I' for Inactive)
REMARK    1  A    between atoms: C_5  and  C_6 
REMARK    2  A    between atoms: C_11  and  C_12 
REMARK       I    between atoms: C_12  and  N_13 
REMARK    3  A    between atoms: N_13  and  C_14 
REMARK    4  A    between atoms: C_16  and  C_17 
REMARK    5  A    between atoms: C_17  and  O_18 
REMARK    6  A    between atoms: C_25  and  C_26 
ROOT
HETATM    1  C   UNL     1      42.706 -17.326   2.802  1.00  0.00     0.118 C 
HETATM    2  N   UNL     1      42.289 -16.900   4.137  1.00  0.00    -0.366 N 
HETATM    3  C   UNL     1      42.534 -15.665   4.617  1.00  0.00     0.123 A 
HETATM    4  N   UNL     1      43.060 -14.688   3.822  1.00  0.00    -0.240 N 
HETATM    5  N   UNL     1      43.397 -13.565   4.481  1.00  0.00    -0.165 NA
HETATM    6  C   UNL     1      42.927 -13.790   5.732  1.00  0.00     0.148 A 
HETATM    7  C   UNL     1      42.368 -15.094   5.849  1.00  0.00     0.089 A 
HETATM    8  C   UNL     1      43.343 -14.880   2.415  1.00  0.00     0.221 C 
HETATM    9  C   UNL     1      43.727 -16.348   2.180  1.00  0.00     0.066 C 
HETATM   10  H   UNL     1      41.881 -17.628   4.723  1.00  0.00     0.161 HD
ENDROOT
BRANCH   6  11
HETATM   11  C   UNL     1      43.039 -12.785   6.804  1.00  0.00     0.276 C 
HETATM   12  N   UNL     1      44.051 -13.093   7.692  1.00  0.00    -0.322 N 
HETATM   13  H   UNL     1      44.514 -13.975   7.487  1.00  0.00     0.169 HD
HETATM   14  O   UNL     1      42.275 -11.827   6.865  1.00  0.00    -0.266 OA
BRANCH  12  15
HETATM   15  C   UNL     1      44.476 -12.368   8.816  1.00  0.00     0.035 A 
HETATM   16  C   UNL     1      43.721 -12.241   9.985  1.00  0.00     0.039 A 
HETATM   17  C   UNL     1      44.183 -11.476  11.072  1.00  0.00    -0.028 A 
HETATM   18  C   UNL     1      45.438 -10.860  10.975  1.00  0.00     0.010 A 
HETATM   19  C   UNL     1      46.199 -10.982   9.813  1.00  0.00     0.003 A 
HETATM   20  C   UNL     1      45.715 -11.725   8.735  1.00  0.00     0.029 A 
BRANCH  17  21
HETATM   21  C   UNL     1      43.322 -11.352  12.310  1.00  0.00     0.147 C 
HETATM   22  C   UNL     1      43.319  -9.930  12.856  1.00  0.00     0.044 C 
BRANCH  21  23
HETATM   23  O   UNL     1      41.978 -11.742  12.028  1.00  0.00    -0.391 OA
HETATM   24  H   UNL     1      42.027 -12.492  11.412  1.00  0.00     0.210 HD
ENDBRANCH  21  23
ENDBRANCH  17  21
ENDBRANCH  12  15
ENDBRANCH   6  11
BRANCH   8  25
HETATM   25  C   UNL     1      42.156 -14.446   1.587  1.00  0.00     0.409 C 
HETATM   26  F   UNL     1      40.998 -14.496   2.280  1.00  0.00    -0.169 F 
HETATM   27  F   UNL     1      42.317 -13.151   1.200  1.00  0.00    -0.169 F 
HETATM   28  F   UNL     1      41.992 -15.164   0.457  1.00  0.00    -0.169 F 
ENDBRANCH   8  25
BRANCH   1  29
HETATM   29  C   UNL     1      43.287 -18.727   2.896  1.00  0.00    -0.035 A 
HETATM   30  C   UNL     1      44.040 -19.115   4.012  1.00  0.00     0.010 A 
HETATM   31  C   UNL     1      44.574 -20.405   4.097  1.00  0.00     0.007 A 
HETATM   32  C   UNL     1      44.374 -21.328   3.064  1.00  0.00    -0.062 A 
HETATM   33  C   UNL     1      44.918 -22.722   3.162  1.00  0.00     0.048 C 
HETATM   34  C   UNL     1      43.614 -20.951   1.954  1.00  0.00     0.007 A 
HETATM   35  C   UNL     1      43.083 -19.664   1.868  1.00  0.00     0.010 A 
ENDBRANCH   1  29
TORSDOF 6
ENDMDL
MODEL 2
REMARK VINA RESULT:      -9.1      5.046      9.377
REMARK  6 active torsions:
REMARK  status: ('A' for Active; 'I' for Inactive)
REMARK    1  A    between atoms: C_5  and  C_6 
REMARK    2  A    between atoms: C_11  and  C_12 
REMARK       I    between atoms: C_12  and  N_13 
REMARK    3  A    between atoms: N_13  and  C_14 
REMARK    4  A    between atoms: C_16  and  C_17 
REMARK    5  A    between atoms: C_17  and  O_18 
REMARK    6  A    between atoms: C_25  and  C_26 
ROOT
HETATM    1  C   UNL     1      42.966 -17.194   3.652  1.00  0.00     0.118 C 
HETATM    2  N   UNL     1      42.647 -16.600   2.355  1.00  0.00    -0.366 N 
HETATM    3  C   UNL     1      41.535 -15.870   2.141  1.00  0.00     0.123 A 
HETATM    4  N   UNL     1      40.710 -15.518   3.170  1.00  0.00    -0.240 N 
HETATM    5  N   UNL     1      39.564 -14.932   2.781  1.00  0.00    -0.165 NA
HETATM    6  C   UNL     1      39.736 -14.777   1.446  1.00  0.00     0.148 A 
HETATM    7  C   UNL     1      40.968 -15.343   1.013  1.00  0.00     0.089 A 
HETATM    8  C   UNL     1      40.987 -15.848   4.553  1.00  0.00     0.221 C 
HETATM    9  C   UNL     1      41.749 -17.180   4.604  1.00  0.00     0.066 C 
HETATM   10  H   UNL     1      43.273 -16.852   1.591  1.00  0.00     0.161 HD
ENDROOT
BRANCH   6  11
HETATM   11  C   UNL     1      38.724 -14.124   0.596  1.00  0.00     0.276 C 
HETATM   12  N   UNL     1      39.196 -13.903  -0.684  1.00  0.00    -0.322 N 
HETATM   13  H   UNL     1      40.165 -14.183  -0.812  1.00  0.00     0.169 HD
HETATM   14  O   UNL     1      37.624 -13.810   1.037  1.00  0.00    -0.266 OA
BRANCH  12  15
HETATM   15  C   UNL     1      38.521 -13.335  -1.775  1.00  0.00     0.035 A 
HETATM   16  C   UNL     1      37.650 -14.049  -2.603  1.00  0.00     0.039 A 
HETATM   17  C   UNL     1      37.022 -13.435  -3.702  1.00  0.00    -0.028 A 
HETATM   18  C   UNL     1      37.262 -12.075  -3.940  1.00  0.00     0.010 A 
HETATM   19  C   UNL     1      38.128 -11.355  -3.119  1.00  0.00     0.003 A 
HETATM   20  C   UNL     1      38.762 -11.985  -2.048  1.00  0.00     0.029 A 
BRANCH  17  21
HETATM   21  C   UNL     1      36.101 -14.253  -4.581  1.00  0.00     0.147 C 
HETATM   22  C   UNL     1      34.869 -13.462  -4.999  1.00  0.00     0.044 C 
BRANCH  21  23
HETATM   23  O   UNL     1      36.787 -14.696  -5.752  1.00  0.00    -0.391 OA
HETATM   24  H   UNL     1      37.527 -15.249  -5.452  1.00  0.00     0.210 HD
ENDBRANCH  21  23
ENDBRANCH  17  21
ENDBRANCH  12  15
ENDBRANCH   6  11
BRANCH   8  25
HETATM   25  C   UNL     1      41.739 -14.717   5.213  1.00  0.00     0.409 C 
HETATM   26  F   UNL     1      42.361 -13.919   4.318  1.00  0.00    -0.169 F 
HETATM   27  F   UNL     1      40.869 -13.924   5.894  1.00  0.00    -0.169 F 
HETATM   28  F   UNL     1      42.661 -15.129   6.108  1.00  0.00    -0.169 F 
ENDBRANCH   8  25
BRANCH   1  29
HETATM   29  C   UNL     1      43.464 -18.612   3.431  1.00  0.00    -0.035 A 
HETATM   30  C   UNL     1      44.237 -19.258   4.405  1.00  0.00     0.010 A 
HETATM   31  C   UNL     1      44.694 -20.564   4.199  1.00  0.00     0.007 A 
HETATM   32  C   UNL     1      44.396 -21.245   3.013  1.00  0.00    -0.062 A 
HETATM   33  C   UNL     1      44.857 -22.656   2.799  1.00  0.00     0.048 C 
HETATM   34  C   UNL     1      43.615 -20.610   2.044  1.00  0.00     0.007 A 
HETATM   35  C   UNL     1      43.161 -19.307   2.247  1.00  0.00     0.010 A 
ENDBRANCH   1  29
TORSDOF 6
ENDMDL
MODEL 3
REMARK VINA RESULT:      -9.1      3.329      9.237
REMARK  6 active torsions:
REMARK  status: ('A' for Active; 'I' for Inactive)
REMARK    1  A    between atoms: C_5  and  C_6 
REMARK    2  A    between atoms: C_11  and  C_12 
REMARK       I    between atoms: C_12  and  N_13 
REMARK    3  A    between atoms: N_13  and  C_14 
REMARK    4  A    between atoms: C_16  and  C_17 
REMARK    5  A    between atoms: C_17  and  O_18 
REMARK    6  A    between atoms: C_25  and  C_26 
ROOT
HETATM    1  C   UNL     1      41.495 -10.900   7.543  1.00  0.00     0.118 C 
HETATM    2  N   UNL     1      42.396 -11.848   6.889  1.00  0.00    -0.366 N 
HETATM    3  C   UNL     1      41.953 -12.892   6.163  1.00  0.00     0.123 A 
HETATM    4  N   UNL     1      40.628 -13.041   5.872  1.00  0.00    -0.240 N 
HETATM    5  N   UNL     1      40.321 -14.210   5.281  1.00  0.00    -0.165 NA
HETATM    6  C   UNL     1      41.535 -14.769   5.058  1.00  0.00     0.148 A 
HETATM    7  C   UNL     1      42.582 -13.963   5.588  1.00  0.00     0.089 A 
HETATM    8  C   UNL     1      39.618 -12.079   6.268  1.00  0.00     0.221 C 
HETATM    9  C   UNL     1      40.044 -11.427   7.591  1.00  0.00     0.066 C 
HETATM   10  H   UNL     1      43.387 -11.726   7.095  1.00  0.00     0.161 HD
ENDROOT
BRANCH   6  11
HETATM   11  C   UNL     1      41.687 -16.066   4.376  1.00  0.00     0.276 C 
HETATM   12  N   UNL     1      42.970 -16.565   4.504  1.00  0.00    -0.322 N 
HETATM   13  H   UNL     1      43.599 -15.940   5.001  1.00  0.00     0.169 HD
HETATM   14  O   UNL     1      40.759 -16.577   3.759  1.00  0.00    -0.266 OA
BRANCH  12  15
HETATM   15  C   UNL     1      43.485 -17.777   4.019  1.00  0.00     0.035 A 
HETATM   16  C   UNL     1      43.857 -18.843   4.842  1.00  0.00     0.039 A 
HETATM   17  C   UNL     1      44.396 -20.026   4.304  1.00  0.00    -0.028 A 
HETATM   18  C   UNL     1      44.530 -20.131   2.913  1.00  0.00     0.010 A 
HETATM   19  C   UNL     1      44.162 -19.073   2.084  1.00  0.00     0.003 A 
HETATM   20  C   UNL     1      43.650 -17.898   2.636  1.00  0.00     0.029 A 
BRANCH  17  21
HETATM   21  C   UNL     1      44.801 -21.147   5.236  1.00  0.00     0.147 C 
HETATM   22  C   UNL     1      43.910 -21.204   6.470  1.00  0.00     0.044 C 
BRANCH  21  23
HETATM   23  O   UNL     1      44.743 -22.404   4.564  1.00  0.00    -0.391 OA
HETATM   24  H   UNL     1      45.081 -22.258   3.665  1.00  0.00     0.210 HD
ENDBRANCH  21  23
ENDBRANCH  17  21
ENDBRANCH  12  15
ENDBRANCH   6  11
BRANCH   8  25
HETATM   25  C   UNL     1      39.404 -11.073   5.161  1.00  0.00     0.409 C 
HETATM   26  F   UNL     1      40.490 -10.938   4.369  1.00  0.00    -0.169 F 
HETATM   27  F   UNL     1      38.390 -11.489   4.355  1.00  0.00    -0.169 F 
HETATM   28  F   UNL     1      39.061  -9.846   5.604  1.00  0.00    -0.169 F 
ENDBRANCH   8  25
BRANCH   1  29
HETATM   29  C   UNL     1      42.015 -10.617   8.943  1.00  0.00    -0.035 A 
HETATM   30  C   UNL     1      43.315 -10.987   9.310  1.00  0.00     0.010 A 
HETATM   31  C   UNL     1      43.791 -10.726  10.599  1.00  0.00     0.007 A 
HETATM   32  C   UNL     1      42.974 -10.100  11.548  1.00  0.00    -0.062 A 
HETATM   33  C   UNL     1      43.489  -9.790  12.922  1.00  0.00     0.048 C 
HETATM   34  C   UNL     1      41.680  -9.719  11.183  1.00  0.00     0.007 A 
HETATM   35  C   UNL     1      41.204  -9.981   9.898  1.00  0.00     0.010 A 
ENDBRANCH   1  29
TORSDOF 6
ENDMDL
MODEL 4
REMARK VINA RESULT:      -8.9      4.804      8.133
REMARK  6 active torsions:
REMARK  status: ('A' for Active; 'I' for Inactive)
REMARK    1  A    between atoms: C_5  and  C_6 
REMARK    2  A    between atoms: C_11  and  C_12 
REMARK       I    between atoms: C_12  and  N_13 
REMARK    3  A    between atoms: N_13  and  C_14 
REMARK    4  A    between atoms: C_16  and  C_17 
REMARK    5  A    between atoms: C_17  and  O_18 
REMARK    6  A    between atoms: C_25  and  C_26 
ROOT
HETATM    1  C   UNL     1      42.716 -17.079   4.164  1.00  0.00     0.118 C 
HETATM    2  N   UNL     1      43.311 -15.995   3.385  1.00  0.00    -0.366 N 
HETATM    3  C   UNL     1      42.601 -14.936   2.949  1.00  0.00     0.123 A 
HETATM    4  N   UNL     1      41.307 -14.743   3.337  1.00  0.00    -0.240 N 
HETATM    5  N   UNL     1      40.684 -13.739   2.695  1.00  0.00    -0.165 NA
HETATM    6  C   UNL     1      41.678 -13.177   1.965  1.00  0.00     0.148 A 
HETATM    7  C   UNL     1      42.897 -13.896   2.110  1.00  0.00     0.089 A 
HETATM    8  C   UNL     1      40.624 -15.613   4.273  1.00  0.00     0.221 C 
HETATM    9  C   UNL     1      41.172 -17.039   4.119  1.00  0.00     0.066 C 
HETATM   10  H   UNL     1      44.283 -16.134   3.109  1.00  0.00     0.161 HD
ENDROOT
BRANCH   6  11
HETATM   11  C   UNL     1      41.455 -11.990   1.121  1.00  0.00     0.276 C 
HETATM   12  N   UNL     1      42.460 -11.830   0.186  1.00  0.00    -0.322 N 
HETATM   13  H   UNL     1      43.200 -12.523   0.266  1.00  0.00     0.169 HD
HETATM   14  O   UNL     1      40.490 -11.253   1.295  1.00  0.00    -0.266 OA
BRANCH  12  15
HETATM   15  C   UNL     1      42.581 -10.842  -0.803  1.00  0.00     0.035 A 
HETATM   16  C   UNL     1      42.272 -11.054  -2.149  1.00  0.00     0.039 A 
HETATM   17  C   UNL     1      42.440 -10.035  -3.104  1.00  0.00    -0.028 A 
HETATM   18  C   UNL     1      42.899  -8.782  -2.677  1.00  0.00     0.010 A 
HETATM   19  C   UNL     1      43.208  -8.561  -1.336  1.00  0.00     0.003 A 
HETATM   20  C   UNL     1      43.059  -9.590  -0.405  1.00  0.00     0.029 A 
BRANCH  17  21
HETATM   21  C   UNL     1      42.109 -10.316  -4.554  1.00  0.00     0.147 C 
HETATM   22  C   UNL     1      42.446  -9.132  -5.451  1.00  0.00     0.044 C 
BRANCH  21  23
HETATM   23  O   UNL     1      42.820 -11.464  -5.017  1.00  0.00    -0.391 OA
HETATM   24  H   UNL     1      42.230 -11.931  -5.632  1.00  0.00     0.210 HD
ENDBRANCH  21  23
ENDBRANCH  17  21
ENDBRANCH  12  15
ENDBRANCH   6  11
BRANCH   8  25
HETATM   25  C   UNL     1      40.773 -15.077   5.678  1.00  0.00     0.409 C 
HETATM   26  F   UNL     1      39.825 -14.165   5.986  1.00  0.00    -0.169 F 
HETATM   27  F   UNL     1      40.635 -16.092   6.572  1.00  0.00    -0.169 F 
HETATM   28  F   UNL     1      41.977 -14.517   5.919  1.00  0.00    -0.169 F 
ENDBRANCH   8  25
BRANCH   1  29
HETATM   29  C   UNL     1      43.238 -18.405   3.635  1.00  0.00    -0.035 A 
HETATM   30  C   UNL     1      44.125 -19.179   4.394  1.00  0.00     0.010 A 
HETATM   31  C   UNL     1      44.603 -20.398   3.905  1.00  0.00     0.007 A 
HETATM   32  C   UNL     1      44.214 -20.863   2.643  1.00  0.00    -0.062 A 
HETATM   33  C   UNL     1      44.700 -22.183   2.125  1.00  0.00     0.048 C 
HETATM   34  C   UNL     1      43.320 -20.100   1.886  1.00  0.00     0.007 A 
HETATM   35  C   UNL     1      42.844 -18.883   2.373  1.00  0.00     0.010 A 
ENDBRANCH   1  29
TORSDOF 6
ENDMDL
MODEL 5
REMARK VINA RESULT:      -8.8      2.599      2.750
REMARK  6 active torsions:
REMARK  status: ('A' for Active; 'I' for Inactive)
REMARK    1  A    between atoms: C_5  and  C_6 
REMARK    2  A    between atoms: C_11  and  C_12 
REMARK       I    between atoms: C_12  and  N_13 
REMARK    3  A    between atoms: N_13  and  C_14 
REMARK    4  A    between atoms: C_16  and  C_17 
REMARK    5  A    between atoms: C_17  and  O_18 
REMARK    6  A    between atoms: C_25  and  C_26 
ROOT
HETATM    1  C   UNL     1      42.382 -16.901   2.911  1.00  0.00     0.118 C 
HETATM    2  N   UNL     1      41.357 -16.557   3.895  1.00  0.00    -0.366 N 
HETATM    3  C   UNL     1      41.131 -15.291   4.300  1.00  0.00     0.123 A 
HETATM    4  N   UNL     1      41.753 -14.235   3.701  1.00  0.00    -0.240 N 
HETATM    5  N   UNL     1      41.552 -13.056   4.317  1.00  0.00    -0.165 NA
HETATM    6  C   UNL     1      40.640 -13.361   5.273  1.00  0.00     0.148 A 
HETATM    7  C   UNL     1      40.345 -14.753   5.282  1.00  0.00     0.089 A 
HETATM    8  C   UNL     1      42.647 -14.380   2.570  1.00  0.00     0.221 C 
HETATM    9  C   UNL     1      43.366 -15.733   2.675  1.00  0.00     0.066 C 
HETATM   10  H   UNL     1      40.882 -17.347   4.330  1.00  0.00     0.161 HD
ENDROOT
BRANCH   6  11
HETATM   11  C   UNL     1      40.085 -12.341   6.180  1.00  0.00     0.276 C 
HETATM   12  N   UNL     1      41.058 -11.798   6.997  1.00  0.00    -0.322 N 
HETATM   13  H   UNL     1      41.975 -12.219   6.870  1.00  0.00     0.169 HD
HETATM   14  O   UNL     1      38.889 -12.071   6.183  1.00  0.00    -0.266 OA
BRANCH  12  15
HETATM   15  C   UNL     1      40.921 -10.788   7.962  1.00  0.00     0.035 A 
HETATM   16  C   UNL     1      40.612 -11.036   9.302  1.00  0.00     0.039 A 
HETATM   17  C   UNL     1      40.458  -9.983  10.222  1.00  0.00    -0.028 A 
HETATM   18  C   UNL     1      40.650  -8.668   9.776  1.00  0.00     0.010 A 
HETATM   19  C   UNL     1      40.960  -8.411   8.442  1.00  0.00     0.003 A 
HETATM   20  C   UNL     1      41.085  -9.466   7.537  1.00  0.00     0.029 A 
BRANCH  17  21
HETATM   21  C   UNL     1      40.105 -10.300  11.658  1.00  0.00     0.147 C 
HETATM   22  C   UNL     1      38.829  -9.592  12.096  1.00  0.00     0.044 C 
BRANCH  21  23
HETATM   23  O   UNL     1      39.938 -11.706  11.836  1.00  0.00    -0.391 OA
HETATM   24  H   UNL     1      39.229 -11.984  11.232  1.00  0.00     0.210 HD
ENDBRANCH  21  23
ENDBRANCH  17  21
ENDBRANCH  12  15
ENDBRANCH   6  11
BRANCH   8  25
HETATM   25  C   UNL     1      41.875 -14.225   1.280  1.00  0.00     0.409 C 
HETATM   26  F   UNL     1      40.540 -14.308   1.465  1.00  0.00    -0.169 F 
HETATM   27  F   UNL     1      42.115 -12.996   0.749  1.00  0.00    -0.169 F 
HETATM   28  F   UNL     1      42.217 -15.124   0.334  1.00  0.00    -0.169 F 
ENDBRANCH   8  25
BRANCH   1  29
HETATM   29  C   UNL     1      43.120 -18.141   3.388  1.00  0.00    -0.035 A 
HETATM   30  C   UNL     1      43.376 -18.340   4.751  1.00  0.00     0.010 A 
HETATM   31  C   UNL     1      44.055 -19.482   5.187  1.00  0.00     0.007 A 
HETATM   32  C   UNL     1      44.499 -20.442   4.270  1.00  0.00    -0.062 A 
HETATM   33  C   UNL     1      45.201 -21.683   4.734  1.00  0.00     0.048 C 
HETATM   34  C   UNL     1      44.236 -20.254   2.911  1.00  0.00     0.007 A 
HETATM   35  C   UNL     1      43.561 -19.114   2.475  1.00  0.00     0.010 A 
ENDBRANCH   1  29
TORSDOF 6
ENDMDL
MODEL 6
REMARK VINA RESULT:      -8.8      4.955      9.261
REMARK  6 active torsions:
REMARK  status: ('A' for Active; 'I' for Inactive)
REMARK    1  A    between atoms: C_5  and  C_6 
REMARK    2  A    between atoms: C_11  and  C_12 
REMARK       I    between atoms: C_12  and  N_13 
REMARK    3  A    between atoms: N_13  and  C_14 
REMARK    4  A    between atoms: C_16  and  C_17 
REMARK    5  A    between atoms: C_17  and  O_18 
REMARK    6  A    between atoms: C_25  and  C_26 
ROOT
HETATM    1  C   UNL     1      43.525 -16.924   2.953  1.00  0.00     0.118 C 
HETATM    2  N   UNL     1      42.943 -16.634   1.643  1.00  0.00    -0.366 N 
HETATM    3  C   UNL     1      41.887 -15.814   1.480  1.00  0.00     0.123 A 
HETATM    4  N   UNL     1      41.388 -15.086   2.522  1.00  0.00    -0.240 N 
HETATM    5  N   UNL     1      40.241 -14.442   2.244  1.00  0.00    -0.165 NA
HETATM    6  C   UNL     1      40.081 -14.659   0.916  1.00  0.00     0.148 A 
HETATM    7  C   UNL     1      41.103 -15.506   0.402  1.00  0.00     0.089 A 
HETATM    8  C   UNL     1      41.975 -15.096   3.846  1.00  0.00     0.221 C 
HETATM    9  C   UNL     1      42.597 -16.476   4.105  1.00  0.00     0.066 C 
HETATM   10  H   UNL     1      43.328 -17.168   0.864  1.00  0.00     0.161 HD
ENDROOT
BRANCH   6  11
HETATM   11  C   UNL     1      38.952 -14.088   0.159  1.00  0.00     0.276 C 
HETATM   12  N   UNL     1      39.082 -14.310  -1.199  1.00  0.00    -0.322 N 
HETATM   13  H   UNL     1      39.946 -14.784  -1.451  1.00  0.00     0.169 HD
HETATM   14  O   UNL     1      38.051 -13.475   0.720  1.00  0.00    -0.266 OA
BRANCH  12  15
HETATM   15  C   UNL     1      38.201 -13.946  -2.229  1.00  0.00     0.035 A 
HETATM   16  C   UNL     1      37.719 -12.647  -2.411  1.00  0.00     0.039 A 
HETATM   17  C   UNL     1      36.814 -12.343  -3.445  1.00  0.00    -0.028 A 
HETATM   18  C   UNL     1      36.422 -13.368  -4.317  1.00  0.00     0.010 A 
HETATM   19  C   UNL     1      36.898 -14.666  -4.144  1.00  0.00     0.003 A 
HETATM   20  C   UNL     1      37.776 -14.955  -3.099  1.00  0.00     0.029 A 
BRANCH  17  21
HETATM   21  C   UNL     1      36.306 -10.926  -3.591  1.00  0.00     0.147 C 
HETATM   22  C   UNL     1      36.696 -10.060  -2.400  1.00  0.00     0.044 C 
BRANCH  21  23
HETATM   23  O   UNL     1      36.816 -10.329  -4.783  1.00  0.00    -0.391 OA
HETATM   24  H   UNL     1      36.792  -9.367  -4.648  1.00  0.00     0.210 HD
ENDBRANCH  21  23
ENDBRANCH  17  21
ENDBRANCH  12  15
ENDBRANCH   6  11
BRANCH   8  25
HETATM   25  C   UNL     1      42.974 -13.970   3.976  1.00  0.00     0.409 C 
HETATM   26  F   UNL     1      42.408 -12.827   4.422  1.00  0.00    -0.169 F 
HETATM   27  F   UNL     1      43.928 -14.307   4.885  1.00  0.00    -0.169 F 
HETATM   28  F   UNL     1      43.623 -13.687   2.828  1.00  0.00    -0.169 F 
ENDBRANCH   8  25
BRANCH   1  29
HETATM   29  C   UNL     1      43.814 -18.413   3.040  1.00  0.00    -0.035 A 
HETATM   30  C   UNL     1      43.547 -19.258   1.956  1.00  0.00     0.010 A 
HETATM   31  C   UNL     1      43.814 -20.628   2.038  1.00  0.00     0.007 A 
HETATM   32  C   UNL     1      44.345 -21.182   3.209  1.00  0.00    -0.062 A 
HETATM   33  C   UNL     1      44.662 -22.645   3.293  1.00  0.00     0.048 C 
HETATM   34  C   UNL     1      44.625 -20.342   4.290  1.00  0.00     0.007 A 
HETATM   35  C   UNL     1      44.356 -18.975   4.209  1.00  0.00     0.010 A 
ENDBRANCH   1  29
TORSDOF 6
ENDMDL
MODEL 7
REMARK VINA RESULT:      -8.6      5.155      9.069
REMARK  6 active torsions:
REMARK  status: ('A' for Active; 'I' for Inactive)
REMARK    1  A    between atoms: C_5  and  C_6 
REMARK    2  A    between atoms: C_11  and  C_12 
REMARK       I    between atoms: C_12  and  N_13 
REMARK    3  A    between atoms: N_13  and  C_14 
REMARK    4  A    between atoms: C_16  and  C_17 
REMARK    5  A    between atoms: C_17  and  O_18 
REMARK    6  A    between atoms: C_25  and  C_26 
ROOT
HETATM    1  C   UNL     1      39.159 -12.681  -1.380  1.00  0.00     0.118 C 
HETATM    2  N   UNL     1      40.009 -12.652  -0.190  1.00  0.00    -0.366 N 
HETATM    3  C   UNL     1      40.788 -13.690   0.174  1.00  0.00     0.123 A 
HETATM    4  N   UNL     1      40.939 -14.779  -0.634  1.00  0.00    -0.240 N 
HETATM    5  N   UNL     1      41.613 -15.796  -0.067  1.00  0.00    -0.165 NA
HETATM    6  C   UNL     1      42.032 -15.268   1.108  1.00  0.00     0.148 A 
HETATM    7  C   UNL     1      41.543 -13.944   1.286  1.00  0.00     0.089 A 
HETATM    8  C   UNL     1      40.329 -14.883  -1.945  1.00  0.00     0.221 C 
HETATM    9  C   UNL     1      39.001 -14.112  -1.938  1.00  0.00     0.066 C 
HETATM   10  H   UNL     1      39.906 -11.830   0.404  1.00  0.00     0.161 HD
ENDROOT
BRANCH   6  11
HETATM   11  C   UNL     1      42.863 -16.031   2.058  1.00  0.00     0.276 C 
HETATM   12  N   UNL     1      42.677 -17.393   1.921  1.00  0.00    -0.322 N 
HETATM   13  H   UNL     1      41.973 -17.638   1.229  1.00  0.00     0.169 HD
HETATM   14  O   UNL     1      43.589 -15.466   2.869  1.00  0.00    -0.266 OA
BRANCH  12  15
HETATM   15  C   UNL     1      43.307 -18.433   2.622  1.00  0.00     0.035 A 
HETATM   16  C   UNL     1      43.638 -18.362   3.978  1.00  0.00     0.039 A 
HETATM   17  C   UNL     1      44.296 -19.424   4.624  1.00  0.00    -0.028 A 
HETATM   18  C   UNL     1      44.592 -20.579   3.888  1.00  0.00     0.010 A 
HETATM   19  C   UNL     1      44.264 -20.660   2.536  1.00  0.00     0.003 A 
HETATM   20  C   UNL     1      43.633 -19.587   1.904  1.00  0.00     0.029 A 
BRANCH  17  21
HETATM   21  C   UNL     1      44.651 -19.294   6.089  1.00  0.00     0.147 C 
HETATM   22  C   UNL     1      44.982 -17.855   6.464  1.00  0.00     0.044 C 
BRANCH  21  23
HETATM   23  O   UNL     1      43.575 -19.750   6.909  1.00  0.00    -0.391 OA
HETATM   24  H   UNL     1      43.506 -19.129   7.653  1.00  0.00     0.210 HD
ENDBRANCH  21  23
ENDBRANCH  17  21
ENDBRANCH  12  15
ENDBRANCH   6  11
BRANCH   8  25
HETATM   25  C   UNL     1      41.290 -14.386  -3.000  1.00  0.00     0.409 C 
HETATM   26  F   UNL     1      42.257 -13.596  -2.487  1.00  0.00    -0.169 F 
HETATM   27  F   UNL     1      41.922 -15.443  -3.577  1.00  0.00    -0.169 F 
HETATM   28  F   UNL     1      40.691 -13.707  -4.001  1.00  0.00    -0.169 F 
ENDBRANCH   8  25
BRANCH   1  29
HETATM   29  C   UNL     1      37.806 -12.086  -1.027  1.00  0.00    -0.035 A 
HETATM   30  C   UNL     1      37.011 -11.483  -2.010  1.00  0.00     0.010 A 
HETATM   31  C   UNL     1      35.766 -10.937  -1.684  1.00  0.00     0.007 A 
HETATM   32  C   UNL     1      35.296 -10.973  -0.366  1.00  0.00    -0.062 A 
HETATM   33  C   UNL     1      33.949 -10.416  -0.014  1.00  0.00     0.048 C 
HETATM   34  C   UNL     1      36.079 -11.583   0.618  1.00  0.00     0.007 A 
HETATM   35  C   UNL     1      37.322 -12.127   0.292  1.00  0.00     0.010 A 
ENDBRANCH   1  29
TORSDOF 6
ENDMDL
MODEL 8
REMARK VINA RESULT:      -8.5      2.500      4.460
REMARK  6 active torsions:
REMARK  status: ('A' for Active; 'I' for Inactive)
REMARK    1  A    between atoms: C_5  and  C_6 
REMARK    2  A    between atoms: C_11  and  C_12 
REMARK       I    between atoms: C_12  and  N_13 
REMARK    3  A    between atoms: N_13  and  C_14 
REMARK    4  A    between atoms: C_16  and  C_17 
REMARK    5  A    between atoms: C_17  and  O_18 
REMARK    6  A    between atoms: C_25  and  C_26 
ROOT
HETATM    1  C   UNL     1      41.701 -15.769   1.607  1.00  0.00     0.118 C 
HETATM    2  N   UNL     1      42.454 -14.648   2.168  1.00  0.00    -0.366 N 
HETATM    3  C   UNL     1      42.426 -14.336   3.479  1.00  0.00     0.123 A 
HETATM    4  N   UNL     1      41.804 -15.143   4.386  1.00  0.00    -0.240 N 
HETATM    5  N   UNL     1      41.720 -14.620   5.623  1.00  0.00    -0.165 NA
HETATM    6  C   UNL     1      42.454 -13.484   5.525  1.00  0.00     0.148 A 
HETATM    7  C   UNL     1      42.922 -13.282   4.197  1.00  0.00     0.089 A 
HETATM    8  C   UNL     1      41.182 -16.402   4.029  1.00  0.00     0.221 C 
HETATM    9  C   UNL     1      40.641 -16.301   2.596  1.00  0.00     0.066 C 
HETATM   10  H   UNL     1      42.931 -14.055   1.490  1.00  0.00     0.161 HD
ENDROOT
BRANCH   6  11
HETATM   11  C   UNL     1      42.677 -12.594   6.679  1.00  0.00     0.276 C 
HETATM   12  N   UNL     1      43.782 -12.977   7.415  1.00  0.00    -0.322 N 
HETATM   13  H   UNL     1      44.224 -13.825   7.069  1.00  0.00     0.169 HD
HETATM   14  O   UNL     1      41.921 -11.660   6.922  1.00  0.00    -0.266 OA
BRANCH  12  15
HETATM   15  C   UNL     1      44.323 -12.366   8.556  1.00  0.00     0.035 A 
HETATM   16  C   UNL     1      43.613 -12.183   9.746  1.00  0.00     0.039 A 
HETATM   17  C   UNL     1      44.196 -11.536  10.851  1.00  0.00    -0.028 A 
HETATM   18  C   UNL     1      45.524 -11.100  10.750  1.00  0.00     0.010 A 
HETATM   19  C   UNL     1      46.240 -11.278   9.568  1.00  0.00     0.003 A 
HETATM   20  C   UNL     1      45.639 -11.900   8.473  1.00  0.00     0.029 A 
BRANCH  17  21
HETATM   21  C   UNL     1      43.382 -11.345  12.112  1.00  0.00     0.147 C 
HETATM   22  C   UNL     1      43.461  -9.912  12.623  1.00  0.00     0.044 C 
BRANCH  21  23
HETATM   23  O   UNL     1      42.014 -11.680  11.881  1.00  0.00    -0.391 OA
HETATM   24  H   UNL     1      41.629 -10.951  11.366  1.00  0.00     0.210 HD
ENDBRANCH  21  23
ENDBRANCH  17  21
ENDBRANCH  12  15
ENDBRANCH   6  11
BRANCH   8  25
HETATM   25  C   UNL     1      42.169 -17.532   4.204  1.00  0.00     0.409 C 
HETATM   26  F   UNL     1      41.880 -18.309   5.270  1.00  0.00    -0.169 F 
HETATM   27  F   UNL     1      42.132 -18.345   3.114  1.00  0.00    -0.169 F 
HETATM   28  F   UNL     1      43.448 -17.119   4.330  1.00  0.00    -0.169 F 
ENDBRANCH   8  25
BRANCH   1  29
HETATM   29  C   UNL     1      41.052 -15.319   0.308  1.00  0.00    -0.035 A 
HETATM   30  C   UNL     1      40.072 -14.318   0.308  1.00  0.00     0.010 A 
HETATM   31  C   UNL     1      39.476 -13.905  -0.887  1.00  0.00     0.007 A 
HETATM   32  C   UNL     1      39.841 -14.492  -2.105  1.00  0.00    -0.062 A 
HETATM   33  C   UNL     1      39.228 -14.033  -3.395  1.00  0.00     0.048 C 
HETATM   34  C   UNL     1      40.827 -15.482  -2.113  1.00  0.00     0.007 A 
HETATM   35  C   UNL     1      41.419 -15.896  -0.920  1.00  0.00     0.010 A 
ENDBRANCH   1  29
TORSDOF 6
ENDMDL
MODEL 9
REMARK VINA RESULT:      -8.4      2.392      3.119
REMARK  6 active torsions:
REMARK  status: ('A' for Active; 'I' for Inactive)
REMARK    1  A    between atoms: C_5  and  C_6 
REMARK    2  A    between atoms: C_11  and  C_12 
REMARK       I    between atoms: C_12  and  N_13 
REMARK    3  A    between atoms: N_13  and  C_14 
REMARK    4  A    between atoms: C_16  and  C_17 
REMARK    5  A    between atoms: C_17  and  O_18 
REMARK    6  A    between atoms: C_25  and  C_26 
ROOT
HETATM    1  C   UNL     1      42.353 -16.329   3.260  1.00  0.00     0.118 C 
HETATM    2  N   UNL     1      41.523 -15.790   4.336  1.00  0.00    -0.366 N 
HETATM    3  C   UNL     1      41.503 -14.481   4.655  1.00  0.00     0.123 A 
HETATM    4  N   UNL     1      42.152 -13.556   3.890  1.00  0.00    -0.240 N 
HETATM    5  N   UNL     1      42.176 -12.321   4.422  1.00  0.00    -0.165 NA
HETATM    6  C   UNL     1      41.380 -12.441   5.512  1.00  0.00     0.148 A 
HETATM    7  C   UNL     1      40.931 -13.780   5.681  1.00  0.00     0.089 A 
HETATM    8  C   UNL     1      42.854 -13.893   2.668  1.00  0.00     0.221 C 
HETATM    9  C   UNL     1      43.420 -15.314   2.795  1.00  0.00     0.066 C 
HETATM   10  H   UNL     1      41.027 -16.482   4.897  1.00  0.00     0.161 HD
ENDROOT
BRANCH   6  11
HETATM   11  C   UNL     1      41.079 -11.297   6.392  1.00  0.00     0.276 C 
HETATM   12  N   UNL     1      40.696 -11.709   7.654  1.00  0.00    -0.322 N 
HETATM   13  H   UNL     1      40.642 -12.720   7.751  1.00  0.00     0.169 HD
HETATM   14  O   UNL     1      41.149 -10.142   5.985  1.00  0.00    -0.266 OA
BRANCH  12  15
HETATM   15  C   UNL     1      40.362 -10.918   8.764  1.00  0.00     0.035 A 
HETATM   16  C   UNL     1      41.267 -10.580   9.773  1.00  0.00     0.039 A 
HETATM   17  C   UNL     1      40.869  -9.807  10.880  1.00  0.00    -0.028 A 
HETATM   18  C   UNL     1      39.545  -9.353  10.941  1.00  0.00     0.010 A 
HETATM   19  C   UNL     1      38.636  -9.684   9.939  1.00  0.00     0.003 A 
HETATM   20  C   UNL     1      39.040 -10.471   8.860  1.00  0.00     0.029 A 
BRANCH  17  21
HETATM   21  C   UNL     1      41.880  -9.482  11.957  1.00  0.00     0.147 C 
HETATM   22  C   UNL     1      43.308  -9.726  11.485  1.00  0.00     0.044 C 
BRANCH  21  23
HETATM   23  O   UNL     1      41.756  -8.121  12.369  1.00  0.00    -0.391 OA
HETATM   24  H   UNL     1      40.922  -7.790  11.996  1.00  0.00     0.210 HD
ENDBRANCH  21  23
ENDBRANCH  17  21
ENDBRANCH  12  15
ENDBRANCH   6  11
BRANCH   8  25
HETATM   25  C   UNL     1      41.932 -13.733   1.482  1.00  0.00     0.409 C 
HETATM   26  F   UNL     1      42.097 -14.711   0.565  1.00  0.00    -0.169 F 
HETATM   27  F   UNL     1      40.638 -13.809   1.896  1.00  0.00    -0.169 F 
HETATM   28  F   UNL     1      42.062 -12.548   0.851  1.00  0.00    -0.169 F 
ENDBRANCH   8  25
BRANCH   1  29
HETATM   29  C   UNL     1      43.003 -17.616   3.742  1.00  0.00    -0.035 A 
HETATM   30  C   UNL     1      43.601 -18.498   2.833  1.00  0.00     0.010 A 
HETATM   31  C   UNL     1      44.199 -19.681   3.279  1.00  0.00     0.007 A 
HETATM   32  C   UNL     1      44.202 -20.010   4.640  1.00  0.00    -0.062 A 
HETATM   33  C   UNL     1      44.867 -21.262   5.128  1.00  0.00     0.048 C 
HETATM   34  C   UNL     1      43.616 -19.127   5.552  1.00  0.00     0.007 A 
HETATM   35  C   UNL     1      43.018 -17.949   5.107  1.00  0.00     0.010 A 
ENDBRANCH   1  29
TORSDOF 6
ENDMDL
MODEL 10
REMARK VINA RESULT:      -8.3      4.705      8.736
REMARK  6 active torsions:
REMARK  status: ('A' for Active; 'I' for Inactive)
REMARK    1  A    between atoms: C_5  and  C_6 
REMARK    2  A    between atoms: C_11  and  C_12 
REMARK       I    between atoms: C_12  and  N_13 
REMARK    3  A    between atoms: N_13  and  C_14 
REMARK    4  A    between atoms: C_16  and  C_17 
REMARK    5  A    between atoms: C_17  and  O_18 
REMARK    6  A    between atoms: C_25  and  C_26 
ROOT
HETATM    1  C   UNL     1      42.989 -17.252   4.040  1.00  0.00     0.118 C 
HETATM    2  N   UNL     1      43.277 -16.302   2.966  1.00  0.00    -0.366 N 
HETATM    3  C   UNL     1      42.394 -15.368   2.563  1.00  0.00     0.123 A 
HETATM    4  N   UNL     1      41.226 -15.159   3.239  1.00  0.00    -0.240 N 
HETATM    5  N   UNL     1      40.380 -14.312   2.626  1.00  0.00    -0.165 NA
HETATM    6  C   UNL     1      41.109 -13.852   1.581  1.00  0.00     0.148 A 
HETATM    7  C   UNL     1      42.382 -14.485   1.519  1.00  0.00     0.089 A 
HETATM    8  C   UNL     1      40.874 -15.874   4.449  1.00  0.00     0.221 C 
HETATM    9  C   UNL     1      41.485 -17.281   4.392  1.00  0.00     0.066 C 
HETATM   10  H   UNL     1      44.157 -16.450   2.474  1.00  0.00     0.161 HD
ENDROOT
BRANCH   6  11
HETATM   11  C   UNL     1      40.583 -12.845   0.642  1.00  0.00     0.276 C 
HETATM   12  N   UNL     1      40.713 -13.254  -0.672  1.00  0.00    -0.322 N 
HETATM   13  H   UNL     1      41.186 -14.148  -0.773  1.00  0.00     0.169 HD
HETATM   14  O   UNL     1      40.125 -11.779   1.037  1.00  0.00    -0.266 OA
BRANCH  12  15
HETATM   15  C   UNL     1      40.306 -12.585  -1.836  1.00  0.00     0.035 A 
HETATM   16  C   UNL     1      41.189 -11.933  -2.702  1.00  0.00     0.039 A 
HETATM   17  C   UNL     1      40.722 -11.252  -3.842  1.00  0.00    -0.028 A 
HETATM   18  C   UNL     1      39.348 -11.262  -4.115  1.00  0.00     0.010 A 
HETATM   19  C   UNL     1      38.460 -11.910  -3.258  1.00  0.00     0.003 A 
HETATM   20  C   UNL     1      38.937 -12.560  -2.118  1.00  0.00     0.029 A 
BRANCH  17  21
HETATM   21  C   UNL     1      41.714 -10.546  -4.740  1.00  0.00     0.147 C 
HETATM   22  C   UNL     1      42.286  -9.298  -4.079  1.00  0.00     0.044 C 
BRANCH  21  23
HETATM   23  O   UNL     1      42.788 -11.419  -5.087  1.00  0.00    -0.391 OA
HETATM   24  H   UNL     1      42.633 -12.255  -4.617  1.00  0.00     0.210 HD
ENDBRANCH  21  23
ENDBRANCH  17  21
ENDBRANCH  12  15
ENDBRANCH   6  11
BRANCH   8  25
HETATM   25  C   UNL     1      41.323 -15.089   5.660  1.00  0.00     0.409 C 
HETATM   26  F   UNL     1      40.339 -14.317   6.168  1.00  0.00    -0.169 F 
HETATM   27  F   UNL     1      41.691 -15.946   6.650  1.00  0.00    -0.169 F 
HETATM   28  F   UNL     1      42.389 -14.296   5.426  1.00  0.00    -0.169 F 
ENDBRANCH   8  25
BRANCH   1  29
HETATM   29  C   UNL     1      43.472 -18.629   3.617  1.00  0.00    -0.035 A 
HETATM   30  C   UNL     1      43.124 -19.155   2.366  1.00  0.00     0.010 A 
HETATM   31  C   UNL     1      43.570 -20.422   1.978  1.00  0.00     0.007 A 
HETATM   32  C   UNL     1      44.364 -21.193   2.836  1.00  0.00    -0.062 A 
HETATM   33  C   UNL     1      44.870 -22.540   2.414  1.00  0.00     0.048 C 
HETATM   34  C   UNL     1      44.724 -20.668   4.080  1.00  0.00     0.007 A 
HETATM   35  C   UNL     1      44.277 -19.405   4.469  1.00  0.00     0.010 A 
ENDBRANCH   1  29
TORSDOF 6
ENDMDL
