MODEL 1
REMARK VINA RESULT:      -8.3      0.000      0.000
REMARK  6 active torsions:
REMARK  status: ('A' for Active; 'I' for Inactive)
REMARK    1  A    between atoms: C_2  and  O_3 
REMARK    2  A    between atoms: O_3  and  C_4 
REMARK    3  A    between atoms: C_6  and  C_7 
REMARK       I    between atoms: C_7  and  N_8 
REMARK    4  A    between atoms: C_10  and  N_11 
REMARK       I    between atoms: N_11  and  C_12 
REMARK    5  A    between atoms: C_12  and  C_13 
REMARK    6  A    between atoms: N_15  and  C_16 
ROOT
HETATM    1  N   UNL     1      43.982 -14.302   7.661  1.00  0.00    -0.319 N 
HETATM    2  C   UNL     1      45.007 -13.368   7.598  1.00  0.00     0.295 C 
HETATM    3  O   UNL     1      45.879 -13.334   6.735  1.00  0.00    -0.264 OA
HETATM    4  H   UNL     1      43.264 -14.098   8.357  1.00  0.00     0.169 HD
ENDROOT
BRANCH   1   5
HETATM    5  C   UNL     1      43.806 -15.451   6.856  1.00  0.00     0.051 A 
HETATM    6  C   UNL     1      42.665 -15.581   6.040  1.00  0.00     0.061 A 
HETATM    7  C   UNL     1      42.444 -16.758   5.306  1.00  0.00     0.056 A 
HETATM    8  C   UNL     1      43.357 -17.811   5.352  1.00  0.00     0.069 A 
HETATM    9  C   UNL     1      44.491 -17.685   6.148  1.00  0.00     0.039 A 
HETATM   10  C   UNL     1      44.713 -16.516   6.890  1.00  0.00     0.033 A 
BRANCH   6  11
HETATM   11  C   UNL     1      41.666 -14.498   5.860  1.00  0.00     0.251 C 
HETATM   12  N   UNL     1      40.389 -14.764   6.276  1.00  0.00    -0.366 N 
HETATM   13  H   UNL     1      40.205 -15.523   6.921  1.00  0.00     0.159 HD
HETATM   14  H   UNL     1      39.765 -13.967   6.315  1.00  0.00     0.159 HD
HETATM   15  O   UNL     1      41.969 -13.400   5.415  1.00  0.00    -0.268 OA
ENDBRANCH   6  11
BRANCH   8  16
HETATM   16  O   UNL     1      43.035 -18.890   4.578  1.00  0.00    -0.351 OA
BRANCH  16  17
HETATM   17  C   UNL     1      44.088 -19.484   3.819  1.00  0.00     0.171 C 
HETATM   18  C   UNL     1      43.623 -19.602   2.379  1.00  0.00     0.034 C 
ENDBRANCH  16  17
ENDBRANCH   8  16
ENDBRANCH   1   5
BRANCH   2  19
HETATM   19  C   UNL     1      44.921 -12.352   8.671  1.00  0.00     0.239 A 
HETATM   20  N   UNL     1      43.864 -12.254   9.504  1.00  0.00    -0.140 NA
HETATM   21  N   UNL     1      44.251 -11.271  10.360  1.00  0.00    -0.225 N 
HETATM   22  C   UNL     1      45.452 -10.756   9.945  1.00  0.00     0.237 A 
HETATM   23  N   UNL     1      45.902 -11.417   8.907  1.00  0.00    -0.216 NA
BRANCH  21  24
HETATM   24  C   UNL     1      43.483 -10.914  11.500  1.00  0.00     0.059 A 
HETATM   25  C   UNL     1      42.248 -11.539  11.723  1.00  0.00     0.031 A 
HETATM   26  C   UNL     1      41.500 -11.228  12.862  1.00  0.00     0.002 A 
HETATM   27  C   UNL     1      41.976 -10.289  13.776  1.00  0.00     0.000 A 
HETATM   28  C   UNL     1      43.199  -9.658  13.555  1.00  0.00     0.002 A 
HETATM   29  C   UNL     1      43.955  -9.968  12.422  1.00  0.00     0.031 A 
ENDBRANCH  21  24
ENDBRANCH   2  19
TORSDOF 6
ENDMDL
MODEL 2
REMARK VINA RESULT:      -8.1      1.750      2.325
REMARK  6 active torsions:
REMARK  status: ('A' for Active; 'I' for Inactive)
REMARK    1  A    between atoms: C_2  and  O_3 
REMARK    2  A    between atoms: O_3  and  C_4 
REMARK    3  A    between atoms: C_6  and  C_7 
REMARK       I    between atoms: C_7  and  N_8 
REMARK    4  A    between atoms: C_10  and  N_11 
REMARK       I    between atoms: N_11  and  C_12 
REMARK    5  A    between atoms: C_12  and  C_13 
REMARK    6  A    between atoms: N_15  and  C_16 
ROOT
HETATM    1  N   UNL     1      43.685 -14.466   7.095  1.00  0.00    -0.319 N 
HETATM    2  C   UNL     1      44.806 -13.649   7.129  1.00  0.00     0.295 C 
HETATM    3  O   UNL     1      45.670 -13.599   6.259  1.00  0.00    -0.264 OA
HETATM    4  H   UNL     1      42.999 -14.276   7.827  1.00  0.00     0.169 HD
ENDROOT
BRANCH   1   5
HETATM    5  C   UNL     1      43.375 -15.473   6.153  1.00  0.00     0.051 A 
HETATM    6  C   UNL     1      43.359 -16.829   6.538  1.00  0.00     0.061 A 
HETATM    7  C   UNL     1      43.138 -17.838   5.586  1.00  0.00     0.056 A 
HETATM    8  C   UNL     1      42.908 -17.520   4.249  1.00  0.00     0.069 A 
HETATM    9  C   UNL     1      42.910 -16.183   3.863  1.00  0.00     0.039 A 
HETATM   10  C   UNL     1      43.140 -15.171   4.807  1.00  0.00     0.033 A 
BRANCH   6  11
HETATM   11  C   UNL     1      43.523 -17.277   7.944  1.00  0.00     0.251 C 
HETATM   12  N   UNL     1      43.729 -18.615   8.143  1.00  0.00    -0.366 N 
HETATM   13  H   UNL     1      44.039 -19.207   7.383  1.00  0.00     0.159 HD
HETATM   14  H   UNL     1      44.015 -18.880   9.079  1.00  0.00     0.159 HD
HETATM   15  O   UNL     1      43.529 -16.490   8.881  1.00  0.00    -0.268 OA
ENDBRANCH   6  11
BRANCH   8  16
HETATM   16  O   UNL     1      42.687 -18.591   3.430  1.00  0.00    -0.351 OA
BRANCH  16  17
HETATM   17  C   UNL     1      43.702 -18.899   2.473  1.00  0.00     0.171 C 
HETATM   18  C   UNL     1      44.208 -20.302   2.756  1.00  0.00     0.034 C 
ENDBRANCH  16  17
ENDBRANCH   8  16
ENDBRANCH   1   5
BRANCH   2  19
HETATM   19  C   UNL     1      44.844 -12.778   8.326  1.00  0.00     0.239 A 
HETATM   20  N   UNL     1      43.872 -11.888   8.614  1.00  0.00    -0.140 NA
HETATM   21  N   UNL     1      44.269 -11.394   9.817  1.00  0.00    -0.225 N 
HETATM   22  C   UNL     1      45.495 -11.918  10.139  1.00  0.00     0.237 A 
HETATM   23  N   UNL     1      45.872 -12.793   9.240  1.00  0.00    -0.216 NA
BRANCH  21  24
HETATM   24  C   UNL     1      43.465 -10.499  10.570  1.00  0.00     0.059 A 
HETATM   25  C   UNL     1      43.781 -10.252  11.914  1.00  0.00     0.031 A 
HETATM   26  C   UNL     1      43.024  -9.343  12.657  1.00  0.00     0.002 A 
HETATM   27  C   UNL     1      41.947  -8.684  12.068  1.00  0.00     0.000 A 
HETATM   28  C   UNL     1      41.621  -8.931  10.736  1.00  0.00     0.002 A 
HETATM   29  C   UNL     1      42.378  -9.834   9.984  1.00  0.00     0.031 A 
ENDBRANCH  21  24
ENDBRANCH   2  19
TORSDOF 6
ENDMDL
MODEL 3
REMARK VINA RESULT:      -7.7      6.221      9.786
REMARK  6 active torsions:
REMARK  status: ('A' for Active; 'I' for Inactive)
REMARK    1  A    between atoms: C_2  and  O_3 
REMARK    2  A    between atoms: O_3  and  C_4 
REMARK    3  A    between atoms: C_6  and  C_7 
REMARK       I    between atoms: C_7  and  N_8 
REMARK    4  A    between atoms: C_10  and  N_11 
REMARK       I    between atoms: N_11  and  C_12 
REMARK    5  A    between atoms: C_12  and  C_13 
REMARK    6  A    between atoms: N_15  and  C_16 
ROOT
HETATM    1  N   UNL     1      42.805 -16.651   0.981  1.00  0.00    -0.319 N 
HETATM    2  C   UNL     1      41.510 -16.274   0.655  1.00  0.00     0.295 C 
HETATM    3  O   UNL     1      40.501 -16.603   1.273  1.00  0.00    -0.264 OA
HETATM    4  H   UNL     1      43.533 -16.173   0.450  1.00  0.00     0.169 HD
ENDROOT
BRANCH   1   5
HETATM    5  C   UNL     1      43.216 -17.568   1.976  1.00  0.00     0.051 A 
HETATM    6  C   UNL     1      43.437 -17.133   3.298  1.00  0.00     0.061 A 
HETATM    7  C   UNL     1      43.929 -18.022   4.268  1.00  0.00     0.056 A 
HETATM    8  C   UNL     1      44.186 -19.355   3.950  1.00  0.00     0.069 A 
HETATM    9  C   UNL     1      43.959 -19.794   2.650  1.00  0.00     0.039 A 
HETATM   10  C   UNL     1      43.477 -18.909   1.675  1.00  0.00     0.033 A 
BRANCH   6  11
HETATM   11  C   UNL     1      43.131 -15.757   3.764  1.00  0.00     0.251 C 
HETATM   12  N   UNL     1      42.343 -15.645   4.878  1.00  0.00    -0.366 N 
HETATM   13  H   UNL     1      42.223 -16.431   5.504  1.00  0.00     0.159 HD
HETATM   14  H   UNL     1      42.290 -14.719   5.286  1.00  0.00     0.159 HD
HETATM   15  O   UNL     1      43.599 -14.766   3.219  1.00  0.00    -0.268 OA
ENDBRANCH   6  11
BRANCH   8  16
HETATM   16  O   UNL     1      44.642 -20.118   4.988  1.00  0.00    -0.351 OA
BRANCH  16  17
HETATM   17  C   UNL     1      44.124 -19.829   6.286  1.00  0.00     0.171 C 
HETATM   18  C   UNL     1      43.714 -21.139   6.934  1.00  0.00     0.034 C 
ENDBRANCH  16  17
ENDBRANCH   8  16
ENDBRANCH   1   5
BRANCH   2  19
HETATM   19  C   UNL     1      41.456 -15.369  -0.516  1.00  0.00     0.239 A 
HETATM   20  N   UNL     1      41.797 -14.065  -0.448  1.00  0.00    -0.140 NA
HETATM   21  N   UNL     1      41.684 -13.662  -1.743  1.00  0.00    -0.225 N 
HETATM   22  C   UNL     1      41.184 -14.693  -2.496  1.00  0.00     0.237 A 
HETATM   23  N   UNL     1      41.046 -15.772  -1.765  1.00  0.00    -0.216 NA
BRANCH  21  24
HETATM   24  C   UNL     1      42.074 -12.366  -2.168  1.00  0.00     0.059 A 
HETATM   25  C   UNL     1      42.810 -11.546  -1.301  1.00  0.00     0.031 A 
HETATM   26  C   UNL     1      43.236 -10.283  -1.720  1.00  0.00     0.002 A 
HETATM   27  C   UNL     1      42.924  -9.830  -3.001  1.00  0.00     0.000 A 
HETATM   28  C   UNL     1      42.185 -10.635  -3.865  1.00  0.00     0.002 A 
HETATM   29  C   UNL     1      41.761 -11.902  -3.455  1.00  0.00     0.031 A 
ENDBRANCH  21  24
ENDBRANCH   2  19
TORSDOF 6
ENDMDL
MODEL 4
REMARK VINA RESULT:      -7.5      4.999      8.892
REMARK  6 active torsions:
REMARK  status: ('A' for Active; 'I' for Inactive)
REMARK    1  A    between atoms: C_2  and  O_3 
REMARK    2  A    between atoms: O_3  and  C_4 
REMARK    3  A    between atoms: C_6  and  C_7 
REMARK       I    between atoms: C_7  and  N_8 
REMARK    4  A    between atoms: C_10  and  N_11 
REMARK       I    between atoms: N_11  and  C_12 
REMARK    5  A    between atoms: C_12  and  C_13 
REMARK    6  A    between atoms: N_15  and  C_16 
ROOT
HETATM    1  N   UNL     1      41.723 -15.608   5.083  1.00  0.00    -0.319 N 
HETATM    2  C   UNL     1      43.068 -15.523   5.414  1.00  0.00     0.295 C 
HETATM    3  O   UNL     1      43.681 -14.478   5.615  1.00  0.00    -0.264 OA
HETATM    4  H   UNL     1      41.343 -16.555   5.094  1.00  0.00     0.169 HD
ENDROOT
BRANCH   1   5
HETATM    5  C   UNL     1      40.835 -14.549   4.785  1.00  0.00     0.051 A 
HETATM    6  C   UNL     1      40.327 -14.390   3.481  1.00  0.00     0.061 A 
HETATM    7  C   UNL     1      39.514 -13.290   3.161  1.00  0.00     0.056 A 
HETATM    8  C   UNL     1      39.176 -12.346   4.130  1.00  0.00     0.069 A 
HETATM    9  C   UNL     1      39.664 -12.503   5.424  1.00  0.00     0.039 A 
HETATM   10  C   UNL     1      40.484 -13.595   5.746  1.00  0.00     0.033 A 
BRANCH   6  11
HETATM   11  C   UNL     1      40.565 -15.369   2.390  1.00  0.00     0.251 C 
HETATM   12  N   UNL     1      39.487 -16.108   1.981  1.00  0.00    -0.366 N 
HETATM   13  H   UNL     1      38.545 -15.807   2.196  1.00  0.00     0.159 HD
HETATM   14  H   UNL     1      39.617 -16.637   1.126  1.00  0.00     0.159 HD
HETATM   15  O   UNL     1      41.652 -15.480   1.840  1.00  0.00    -0.268 OA
ENDBRANCH   6  11
BRANCH   8  16
HETATM   16  O   UNL     1      38.365 -11.336   3.695  1.00  0.00    -0.351 OA
BRANCH  16  17
HETATM   17  C   UNL     1      38.780 -10.624   2.530  1.00  0.00     0.171 C 
HETATM   18  C   UNL     1      39.799  -9.581   2.953  1.00  0.00     0.034 C 
ENDBRANCH  16  17
ENDBRANCH   8  16
ENDBRANCH   1   5
BRANCH   2  19
HETATM   19  C   UNL     1      43.707 -16.851   5.557  1.00  0.00     0.239 A 
HETATM   20  N   UNL     1      43.421 -17.891   4.747  1.00  0.00    -0.140 NA
HETATM   21  N   UNL     1      44.287 -18.848   5.177  1.00  0.00    -0.225 N 
HETATM   22  C   UNL     1      44.964 -18.385   6.276  1.00  0.00     0.237 A 
HETATM   23  N   UNL     1      44.637 -17.141   6.528  1.00  0.00    -0.216 NA
BRANCH  21  24
HETATM   24  C   UNL     1      44.426 -20.096   4.515  1.00  0.00     0.059 A 
HETATM   25  C   UNL     1      44.652 -21.256   5.270  1.00  0.00     0.031 A 
HETATM   26  C   UNL     1      44.751 -22.497   4.636  1.00  0.00     0.002 A 
HETATM   27  C   UNL     1      44.632 -22.586   3.250  1.00  0.00     0.000 A 
HETATM   28  C   UNL     1      44.416 -21.436   2.493  1.00  0.00     0.002 A 
HETATM   29  C   UNL     1      44.310 -20.192   3.120  1.00  0.00     0.031 A 
ENDBRANCH  21  24
ENDBRANCH   2  19
TORSDOF 6
ENDMDL
MODEL 5
REMARK VINA RESULT:      -7.5      7.583     10.859
REMARK  6 active torsions:
REMARK  status: ('A' for Active; 'I' for Inactive)
REMARK    1  A    between atoms: C_2  and  O_3 
REMARK    2  A    between atoms: O_3  and  C_4 
REMARK    3  A    between atoms: C_6  and  C_7 
REMARK       I    between atoms: C_7  and  N_8 
REMARK    4  A    between atoms: C_10  and  N_11 
REMARK       I    between atoms: N_11  and  C_12 
REMARK    5  A    between atoms: C_12  and  C_13 
REMARK    6  A    between atoms: N_15  and  C_16 
ROOT
HETATM    1  N   UNL     1      41.755 -14.624  -0.432  1.00  0.00    -0.319 N 
HETATM    2  C   UNL     1      40.765 -14.753   0.531  1.00  0.00     0.295 C 
HETATM    3  O   UNL     1      39.706 -14.131   0.543  1.00  0.00    -0.264 OA
HETATM    4  H   UNL     1      42.501 -15.318  -0.369  1.00  0.00     0.169 HD
ENDROOT
BRANCH   1   5
HETATM    5  C   UNL     1      41.818 -13.689  -1.491  1.00  0.00     0.051 A 
HETATM    6  C   UNL     1      41.147 -13.940  -2.704  1.00  0.00     0.061 A 
HETATM    7  C   UNL     1      41.278 -13.057  -3.788  1.00  0.00     0.056 A 
HETATM    8  C   UNL     1      42.055 -11.905  -3.680  1.00  0.00     0.069 A 
HETATM    9  C   UNL     1      42.712 -11.644  -2.481  1.00  0.00     0.039 A 
HETATM   10  C   UNL     1      42.592 -12.527  -1.398  1.00  0.00     0.033 A 
BRANCH   6  11
HETATM   11  C   UNL     1      40.239 -15.098  -2.906  1.00  0.00     0.251 C 
HETATM   12  N   UNL     1      38.948 -14.950  -2.474  1.00  0.00    -0.366 N 
HETATM   13  H   UNL     1      38.566 -14.028  -2.301  1.00  0.00     0.159 HD
HETATM   14  H   UNL     1      38.300 -15.668  -2.776  1.00  0.00     0.159 HD
HETATM   15  O   UNL     1      40.600 -16.116  -3.479  1.00  0.00    -0.268 OA
ENDBRANCH   6  11
BRANCH   8  16
HETATM   16  O   UNL     1      42.085 -11.120  -4.798  1.00  0.00    -0.351 OA
BRANCH  16  17
HETATM   17  C   UNL     1      41.224  -9.982  -4.817  1.00  0.00     0.171 C 
HETATM   18  C   UNL     1      40.209 -10.175  -5.930  1.00  0.00     0.034 C 
ENDBRANCH  16  17
ENDBRANCH   8  16
ENDBRANCH   1   5
BRANCH   2  19
HETATM   19  C   UNL     1      41.087 -15.778   1.550  1.00  0.00     0.239 A 
HETATM   20  N   UNL     1      41.926 -16.808   1.311  1.00  0.00    -0.140 NA
HETATM   21  N   UNL     1      41.992 -17.422   2.523  1.00  0.00    -0.225 N 
HETATM   22  C   UNL     1      41.121 -16.812   3.388  1.00  0.00     0.237 A 
HETATM   23  N   UNL     1      40.554 -15.777   2.818  1.00  0.00    -0.216 NA
BRANCH  21  24
HETATM   24  C   UNL     1      42.875 -18.505   2.775  1.00  0.00     0.059 A 
HETATM   25  C   UNL     1      43.578 -18.554   3.988  1.00  0.00     0.031 A 
HETATM   26  C   UNL     1      44.419 -19.633   4.268  1.00  0.00     0.002 A 
HETATM   27  C   UNL     1      44.570 -20.662   3.339  1.00  0.00     0.000 A 
HETATM   28  C   UNL     1      43.881 -20.615   2.129  1.00  0.00     0.002 A 
HETATM   29  C   UNL     1      43.033 -19.542   1.844  1.00  0.00     0.031 A 
ENDBRANCH  21  24
ENDBRANCH   2  19
TORSDOF 6
ENDMDL
MODEL 6
REMARK VINA RESULT:      -7.4      5.135      9.497
REMARK  6 active torsions:
REMARK  status: ('A' for Active; 'I' for Inactive)
REMARK    1  A    between atoms: C_2  and  O_3 
REMARK    2  A    between atoms: O_3  and  C_4 
REMARK    3  A    between atoms: C_6  and  C_7 
REMARK       I    between atoms: C_7  and  N_8 
REMARK    4  A    between atoms: C_10  and  N_11 
REMARK       I    between atoms: N_11  and  C_12 
REMARK    5  A    between atoms: C_12  and  C_13 
REMARK    6  A    between atoms: N_15  and  C_16 
ROOT
HETATM    1  N   UNL     1      41.403 -15.044   3.700  1.00  0.00    -0.319 N 
HETATM    2  C   UNL     1      42.758 -15.210   3.953  1.00  0.00     0.295 C 
HETATM    3  O   UNL     1      43.435 -14.489   4.679  1.00  0.00    -0.264 OA
HETATM    4  H   UNL     1      40.968 -15.815   3.192  1.00  0.00     0.169 HD
ENDROOT
BRANCH   1   5
HETATM    5  C   UNL     1      40.573 -13.972   4.101  1.00  0.00     0.051 A 
HETATM    6  C   UNL     1      40.409 -12.847   3.268  1.00  0.00     0.061 A 
HETATM    7  C   UNL     1      39.656 -11.744   3.700  1.00  0.00     0.056 A 
HETATM    8  C   UNL     1      39.036 -11.747   4.949  1.00  0.00     0.069 A 
HETATM    9  C   UNL     1      39.184 -12.859   5.772  1.00  0.00     0.039 A 
HETATM   10  C   UNL     1      39.943 -13.960   5.350  1.00  0.00     0.033 A 
BRANCH   6  11
HETATM   11  C   UNL     1      40.965 -12.765   1.893  1.00  0.00     0.251 C 
HETATM   12  N   UNL     1      41.849 -11.750   1.647  1.00  0.00    -0.366 N 
HETATM   13  H   UNL     1      42.313 -11.274   2.411  1.00  0.00     0.159 HD
HETATM   14  H   UNL     1      42.352 -11.810   0.769  1.00  0.00     0.159 HD
HETATM   15  O   UNL     1      40.694 -13.591   1.032  1.00  0.00    -0.268 OA
ENDBRANCH   6  11
BRANCH   8  16
HETATM   16  O   UNL     1      38.317 -10.622   5.241  1.00  0.00    -0.351 OA
BRANCH  16  17
HETATM   17  C   UNL     1      39.045  -9.400   5.369  1.00  0.00     0.171 C 
HETATM   18  C   UNL     1      39.534  -9.290   6.802  1.00  0.00     0.034 C 
ENDBRANCH  16  17
ENDBRANCH   8  16
ENDBRANCH   1   5
BRANCH   2  19
HETATM   19  C   UNL     1      43.321 -16.406   3.285  1.00  0.00     0.239 A 
HETATM   20  N   UNL     1      43.513 -17.579   3.925  1.00  0.00    -0.140 NA
HETATM   21  N   UNL     1      43.949 -18.393   2.927  1.00  0.00    -0.225 N 
HETATM   22  C   UNL     1      44.102 -17.659   1.779  1.00  0.00     0.237 A 
HETATM   23  N   UNL     1      43.706 -16.424   1.965  1.00  0.00    -0.216 NA
BRANCH  21  24
HETATM   24  C   UNL     1      44.160 -19.783   3.121  1.00  0.00     0.059 A 
HETATM   25  C   UNL     1      43.962 -20.668   2.051  1.00  0.00     0.031 A 
HETATM   26  C   UNL     1      44.205 -22.034   2.216  1.00  0.00     0.002 A 
HETATM   27  C   UNL     1      44.638 -22.523   3.448  1.00  0.00     0.000 A 
HETATM   28  C   UNL     1      44.827 -21.651   4.518  1.00  0.00     0.002 A 
HETATM   29  C   UNL     1      44.593 -20.283   4.359  1.00  0.00     0.031 A 
ENDBRANCH  21  24
ENDBRANCH   2  19
TORSDOF 6
ENDMDL
MODEL 7
REMARK VINA RESULT:      -7.4      6.505     10.136
REMARK  6 active torsions:
REMARK  status: ('A' for Active; 'I' for Inactive)
REMARK    1  A    between atoms: C_2  and  O_3 
REMARK    2  A    between atoms: O_3  and  C_4 
REMARK    3  A    between atoms: C_6  and  C_7 
REMARK       I    between atoms: C_7  and  N_8 
REMARK    4  A    between atoms: C_10  and  N_11 
REMARK       I    between atoms: N_11  and  C_12 
REMARK    5  A    between atoms: C_12  and  C_13 
REMARK    6  A    between atoms: N_15  and  C_16 
ROOT
HETATM    1  N   UNL     1      40.379 -15.476   1.744  1.00  0.00    -0.319 N 
HETATM    2  C   UNL     1      41.375 -15.034   2.603  1.00  0.00     0.295 C 
HETATM    3  O   UNL     1      41.599 -13.859   2.879  1.00  0.00    -0.264 OA
HETATM    4  H   UNL     1      40.239 -16.487   1.741  1.00  0.00     0.169 HD
ENDROOT
BRANCH   1   5
HETATM    5  C   UNL     1      39.527 -14.695   0.930  1.00  0.00     0.051 A 
HETATM    6  C   UNL     1      39.898 -14.377  -0.392  1.00  0.00     0.061 A 
HETATM    7  C   UNL     1      39.097 -13.530  -1.174  1.00  0.00     0.056 A 
HETATM    8  C   UNL     1      37.909 -13.004  -0.669  1.00  0.00     0.069 A 
HETATM    9  C   UNL     1      37.530 -13.322   0.631  1.00  0.00     0.039 A 
HETATM   10  C   UNL     1      38.331 -14.160   1.421  1.00  0.00     0.033 A 
BRANCH   6  11
HETATM   11  C   UNL     1      41.104 -14.937  -1.054  1.00  0.00     0.251 C 
HETATM   12  N   UNL     1      41.831 -14.079  -1.836  1.00  0.00    -0.366 N 
HETATM   13  H   UNL     1      41.725 -13.077  -1.735  1.00  0.00     0.159 HD
HETATM   14  H   UNL     1      42.738 -14.419  -2.133  1.00  0.00     0.159 HD
HETATM   15  O   UNL     1      41.470 -16.090  -0.874  1.00  0.00    -0.268 OA
ENDBRANCH   6  11
BRANCH   8  16
HETATM   16  O   UNL     1      37.213 -12.211  -1.537  1.00  0.00    -0.351 OA
BRANCH  16  17
HETATM   17  C   UNL     1      37.805 -11.966  -2.813  1.00  0.00     0.171 C 
HETATM   18  C   UNL     1      36.803 -12.360  -3.883  1.00  0.00     0.034 C 
ENDBRANCH  16  17
ENDBRANCH   8  16
ENDBRANCH   1   5
BRANCH   2  19
HETATM   19  C   UNL     1      42.137 -16.146   3.216  1.00  0.00     0.239 A 
HETATM   20  N   UNL     1      42.230 -17.367   2.651  1.00  0.00    -0.140 NA
HETATM   21  N   UNL     1      43.077 -18.019   3.492  1.00  0.00    -0.225 N 
HETATM   22  C   UNL     1      43.361 -17.211   4.563  1.00  0.00     0.237 A 
HETATM   23  N   UNL     1      42.804 -16.034   4.414  1.00  0.00    -0.216 NA
BRANCH  21  24
HETATM   24  C   UNL     1      43.566 -19.322   3.215  1.00  0.00     0.059 A 
HETATM   25  C   UNL     1      44.373 -19.972   4.160  1.00  0.00     0.031 A 
HETATM   26  C   UNL     1      44.829 -21.271   3.918  1.00  0.00     0.002 A 
HETATM   27  C   UNL     1      44.489 -21.922   2.734  1.00  0.00     0.000 A 
HETATM   28  C   UNL     1      43.694 -21.279   1.787  1.00  0.00     0.002 A 
HETATM   29  C   UNL     1      43.230 -19.982   2.023  1.00  0.00     0.031 A 
ENDBRANCH  21  24
ENDBRANCH   2  19
TORSDOF 6
ENDMDL
MODEL 8
REMARK VINA RESULT:      -7.3      6.143      9.943
REMARK  6 active torsions:
REMARK  status: ('A' for Active; 'I' for Inactive)
REMARK    1  A    between atoms: C_2  and  O_3 
REMARK    2  A    between atoms: O_3  and  C_4 
REMARK    3  A    between atoms: C_6  and  C_7 
REMARK       I    between atoms: C_7  and  N_8 
REMARK    4  A    between atoms: C_10  and  N_11 
REMARK       I    between atoms: N_11  and  C_12 
REMARK    5  A    between atoms: C_12  and  C_13 
REMARK    6  A    between atoms: N_15  and  C_16 
ROOT
HETATM    1  N   UNL     1      41.995 -15.732   2.421  1.00  0.00    -0.319 N 
HETATM    2  C   UNL     1      42.384 -14.455   2.042  1.00  0.00     0.295 C 
HETATM    3  O   UNL     1      43.229 -13.775   2.616  1.00  0.00    -0.264 OA
HETATM    4  H   UNL     1      41.390 -16.208   1.750  1.00  0.00     0.169 HD
ENDROOT
BRANCH   1   5
HETATM    5  C   UNL     1      42.374 -16.445   3.582  1.00  0.00     0.051 A 
HETATM    6  C   UNL     1      43.212 -17.574   3.484  1.00  0.00     0.061 A 
HETATM    7  C   UNL     1      43.519 -18.335   4.623  1.00  0.00     0.056 A 
HETATM    8  C   UNL     1      43.022 -17.978   5.876  1.00  0.00     0.069 A 
HETATM    9  C   UNL     1      42.203 -16.858   5.982  1.00  0.00     0.039 A 
HETATM   10  C   UNL     1      41.885 -16.100   4.846  1.00  0.00     0.033 A 
BRANCH   6  11
HETATM   11  C   UNL     1      43.853 -18.003   2.215  1.00  0.00     0.251 C 
HETATM   12  N   UNL     1      43.711 -19.320   1.869  1.00  0.00    -0.366 N 
HETATM   13  H   UNL     1      42.984 -19.887   2.288  1.00  0.00     0.159 HD
HETATM   14  H   UNL     1      43.994 -19.559   0.926  1.00  0.00     0.159 HD
HETATM   15  O   UNL     1      44.434 -17.216   1.481  1.00  0.00    -0.268 OA
ENDBRANCH   6  11
BRANCH   8  16
HETATM   16  O   UNL     1      43.411 -18.789   6.905  1.00  0.00    -0.351 OA
BRANCH  16  17
HETATM   17  C   UNL     1      44.131 -19.973   6.563  1.00  0.00     0.171 C 
HETATM   18  C   UNL     1      43.520 -21.134   7.328  1.00  0.00     0.034 C 
ENDBRANCH  16  17
ENDBRANCH   8  16
ENDBRANCH   1   5
BRANCH   2  19
HETATM   19  C   UNL     1      41.703 -13.991   0.812  1.00  0.00     0.239 A 
HETATM   20  N   UNL     1      41.157 -14.838  -0.086  1.00  0.00    -0.140 NA
HETATM   21  N   UNL     1      40.578 -13.990  -0.978  1.00  0.00    -0.225 N 
HETATM   22  C   UNL     1      40.890 -12.698  -0.643  1.00  0.00     0.237 A 
HETATM   23  N   UNL     1      41.575 -12.664   0.473  1.00  0.00    -0.216 NA
BRANCH  21  24
HETATM   24  C   UNL     1      39.767 -14.455  -2.047  1.00  0.00     0.059 A 
HETATM   25  C   UNL     1      40.235 -15.488  -2.870  1.00  0.00     0.031 A 
HETATM   26  C   UNL     1      39.432 -15.983  -3.900  1.00  0.00     0.002 A 
HETATM   27  C   UNL     1      38.164 -15.446  -4.119  1.00  0.00     0.000 A 
HETATM   28  C   UNL     1      37.696 -14.412  -3.310  1.00  0.00     0.002 A 
HETATM   29  C   UNL     1      38.491 -13.916  -2.273  1.00  0.00     0.031 A 
ENDBRANCH  21  24
ENDBRANCH   2  19
TORSDOF 6
ENDMDL
MODEL 9
REMARK VINA RESULT:      -7.3      6.183      9.640
REMARK  6 active torsions:
REMARK  status: ('A' for Active; 'I' for Inactive)
REMARK    1  A    between atoms: C_2  and  O_3 
REMARK    2  A    between atoms: O_3  and  C_4 
REMARK    3  A    between atoms: C_6  and  C_7 
REMARK       I    between atoms: C_7  and  N_8 
REMARK    4  A    between atoms: C_10  and  N_11 
REMARK       I    between atoms: N_11  and  C_12 
REMARK    5  A    between atoms: C_12  and  C_13 
REMARK    6  A    between atoms: N_15  and  C_16 
ROOT
HETATM    1  N   UNL     1      41.302 -17.090   2.088  1.00  0.00    -0.319 N 
HETATM    2  C   UNL     1      41.502 -15.783   1.667  1.00  0.00     0.295 C 
HETATM    3  O   UNL     1      42.591 -15.221   1.601  1.00  0.00    -0.264 OA
HETATM    4  H   UNL     1      40.355 -17.443   1.943  1.00  0.00     0.169 HD
ENDROOT
BRANCH   1   5
HETATM    5  C   UNL     1      42.254 -17.979   2.638  1.00  0.00     0.051 A 
HETATM    6  C   UNL     1      42.651 -17.854   3.985  1.00  0.00     0.061 A 
HETATM    7  C   UNL     1      43.659 -18.678   4.510  1.00  0.00     0.056 A 
HETATM    8  C   UNL     1      44.272 -19.649   3.720  1.00  0.00     0.069 A 
HETATM    9  C   UNL     1      43.878 -19.785   2.392  1.00  0.00     0.039 A 
HETATM   10  C   UNL     1      42.878 -18.959   1.859  1.00  0.00     0.033 A 
BRANCH   6  11
HETATM   11  C   UNL     1      42.018 -16.904   4.934  1.00  0.00     0.251 C 
HETATM   12  N   UNL     1      42.767 -15.823   5.314  1.00  0.00    -0.366 N 
HETATM   13  H   UNL     1      43.570 -15.536   4.768  1.00  0.00     0.159 HD
HETATM   14  H   UNL     1      42.267 -15.096   5.813  1.00  0.00     0.159 HD
HETATM   15  O   UNL     1      40.866 -17.041   5.321  1.00  0.00    -0.268 OA
ENDBRANCH   6  11
BRANCH   8  16
HETATM   16  O   UNL     1      45.223 -20.396   4.356  1.00  0.00    -0.351 OA
BRANCH  16  17
HETATM   17  C   UNL     1      44.764 -21.414   5.245  1.00  0.00     0.171 C 
HETATM   18  C   UNL     1      44.721 -22.725   4.482  1.00  0.00     0.034 C 
ENDBRANCH  16  17
ENDBRANCH   8  16
ENDBRANCH   1   5
BRANCH   2  19
HETATM   19  C   UNL     1      40.248 -15.121   1.242  1.00  0.00     0.239 A 
HETATM   20  N   UNL     1      40.127 -14.469   0.067  1.00  0.00    -0.140 NA
HETATM   21  N   UNL     1      38.815 -14.111   0.060  1.00  0.00    -0.225 N 
HETATM   22  C   UNL     1      38.244 -14.461   1.257  1.00  0.00     0.237 A 
HETATM   23  N   UNL     1      39.105 -15.104   2.007  1.00  0.00    -0.216 NA
BRANCH  21  24
HETATM   24  C   UNL     1      38.202 -13.500  -1.065  1.00  0.00     0.059 A 
HETATM   25  C   UNL     1      38.219 -14.159  -2.303  1.00  0.00     0.031 A 
HETATM   26  C   UNL     1      37.585 -13.589  -3.410  1.00  0.00     0.002 A 
HETATM   27  C   UNL     1      36.941 -12.358  -3.290  1.00  0.00     0.000 A 
HETATM   28  C   UNL     1      36.929 -11.694  -2.065  1.00  0.00     0.002 A 
HETATM   29  C   UNL     1      37.555 -12.260  -0.952  1.00  0.00     0.031 A 
ENDBRANCH  21  24
ENDBRANCH   2  19
TORSDOF 6
ENDMDL
MODEL 10
REMARK VINA RESULT:      -7.3      6.787     10.280
REMARK  6 active torsions:
REMARK  status: ('A' for Active; 'I' for Inactive)
REMARK    1  A    between atoms: C_2  and  O_3 
REMARK    2  A    between atoms: O_3  and  C_4 
REMARK    3  A    between atoms: C_6  and  C_7 
REMARK       I    between atoms: C_7  and  N_8 
REMARK    4  A    between atoms: C_10  and  N_11 
REMARK       I    between atoms: N_11  and  C_12 
REMARK    5  A    between atoms: C_12  and  C_13 
REMARK    6  A    between atoms: N_15  and  C_16 
ROOT
HETATM    1  N   UNL     1      41.169 -15.324   0.579  1.00  0.00    -0.319 N 
HETATM    2  C   UNL     1      42.068 -14.900   1.548  1.00  0.00     0.295 C 
HETATM    3  O   UNL     1      42.408 -13.736   1.735  1.00  0.00    -0.264 OA
HETATM    4  H   UNL     1      40.891 -16.303   0.657  1.00  0.00     0.169 HD
ENDROOT
BRANCH   1   5
HETATM    5  C   UNL     1      40.576 -14.554  -0.448  1.00  0.00     0.051 A 
HETATM    6  C   UNL     1      39.269 -14.052  -0.299  1.00  0.00     0.061 A 
HETATM    7  C   UNL     1      38.645 -13.362  -1.351  1.00  0.00     0.056 A 
HETATM    8  C   UNL     1      39.312 -13.141  -2.555  1.00  0.00     0.069 A 
HETATM    9  C   UNL     1      40.608 -13.625  -2.706  1.00  0.00     0.039 A 
HETATM   10  C   UNL     1      41.233 -14.323  -1.662  1.00  0.00     0.033 A 
BRANCH   6  11
HETATM   11  C   UNL     1      38.492 -14.167   0.962  1.00  0.00     0.251 C 
HETATM   12  N   UNL     1      37.237 -14.706   0.864  1.00  0.00    -0.366 N 
HETATM   13  H   UNL     1      36.973 -15.252   0.053  1.00  0.00     0.159 HD
HETATM   14  H   UNL     1      36.793 -14.944   1.743  1.00  0.00     0.159 HD
HETATM   15  O   UNL     1      38.961 -13.851   2.046  1.00  0.00    -0.268 OA
ENDBRANCH   6  11
BRANCH   8  16
HETATM   16  O   UNL     1      38.602 -12.441  -3.489  1.00  0.00    -0.351 OA
BRANCH  16  17
HETATM   17  C   UNL     1      37.249 -12.838  -3.710  1.00  0.00     0.171 C 
HETATM   18  C   UNL     1      36.394 -11.586  -3.777  1.00  0.00     0.034 C 
ENDBRANCH  16  17
ENDBRANCH   8  16
ENDBRANCH   1   5
BRANCH   2  19
HETATM   19  C   UNL     1      42.558 -16.010   2.397  1.00  0.00     0.239 A 
HETATM   20  N   UNL     1      42.677 -17.277   1.948  1.00  0.00    -0.140 NA
HETATM   21  N   UNL     1      43.236 -17.916   3.011  1.00  0.00    -0.225 N 
HETATM   22  C   UNL     1      43.323 -17.047   4.067  1.00  0.00     0.237 A 
HETATM   23  N   UNL     1      42.925 -15.850   3.713  1.00  0.00    -0.216 NA
BRANCH  21  24
HETATM   24  C   UNL     1      43.660 -19.269   2.943  1.00  0.00     0.059 A 
HETATM   25  C   UNL     1      44.412 -19.811   3.996  1.00  0.00     0.031 A 
HETATM   26  C   UNL     1      44.803 -21.151   3.962  1.00  0.00     0.002 A 
HETATM   27  C   UNL     1      44.454 -21.954   2.877  1.00  0.00     0.000 A 
HETATM   28  C   UNL     1      43.714 -21.421   1.823  1.00  0.00     0.002 A 
HETATM   29  C   UNL     1      43.314 -20.082   1.853  1.00  0.00     0.031 A 
ENDBRANCH  21  24
ENDBRANCH   2  19
TORSDOF 6
ENDMDL
