MODEL 1
REMARK VINA RESULT:     -10.3      0.000      0.000
REMARK  5 active torsions:
REMARK  status: ('A' for Active; 'I' for Inactive)
REMARK    1  A    between atoms: C_6  and  C_7 
REMARK       I    between atoms: C_7  and  N_8 
REMARK    2  A    between atoms: N_8  and  C_9 
REMARK    3  A    between atoms: C_20  and  C_21 
REMARK    4  A    between atoms: C_22  and  C_23 
REMARK    5  A    between atoms: C_26  and  O_27 
ROOT
HETATM    1  C   UNL     1      42.930 -17.774   6.509  1.00  0.00     0.118 C 
HETATM    2  C   UNL     1      42.272 -16.727   5.581  1.00  0.00     0.202 C 
HETATM    3  N   UNL     1      43.129 -15.560   5.637  1.00  0.00    -0.332 N 
HETATM    4  C   UNL     1      43.087 -14.516   4.751  1.00  0.00     0.257 C 
HETATM    5  O   UNL     1      43.902 -13.597   4.767  1.00  0.00    -0.267 OA
HETATM    6  C   UNL     1      42.006 -14.513   3.728  1.00  0.00     0.059 A 
HETATM    7  C   UNL     1      40.668 -14.845   4.009  1.00  0.00     0.050 A 
HETATM    8  N   UNL     1      40.207 -15.412   5.213  1.00  0.00    -0.324 N 
HETATM    9  C   UNL     1      40.891 -16.264   6.051  1.00  0.00     0.247 C 
HETATM   10  O   UNL     1      40.357 -16.638   7.095  1.00  0.00    -0.271 OA
HETATM   11  C   UNL     1      42.356 -14.027   2.457  1.00  0.00     0.030 A 
HETATM   12  C   UNL     1      41.394 -13.883   1.452  1.00  0.00    -0.035 A 
HETATM   13  C   UNL     1      40.055 -14.130   1.765  1.00  0.00     0.013 A 
HETATM   14  C   UNL     1      39.694 -14.595   3.034  1.00  0.00     0.031 A 
HETATM   15  C   UNL     1      43.996 -15.596   6.788  1.00  0.00     0.129 C 
HETATM   16  C   UNL     1      44.191 -17.076   7.056  1.00  0.00     0.047 C 
HETATM   17  H   UNL     1      39.222 -15.342   5.442  1.00  0.00     0.169 HD
ENDROOT
BRANCH   1  18
HETATM   18  N   UNL     1      43.321 -19.003   5.804  1.00  0.00    -0.350 N 
HETATM   19  C   UNL     1      43.938 -18.956   4.570  1.00  0.00     0.252 C 
HETATM   20  O   UNL     1      44.226 -17.908   4.004  1.00  0.00    -0.268 OA
HETATM   21  H   UNL     1      42.852 -19.861   6.062  1.00  0.00     0.163 HD
BRANCH  19  22
HETATM   22  C   UNL     1      44.267 -20.264   3.943  1.00  0.00     0.035 A 
HETATM   23  C   UNL     1      44.073 -20.489   2.576  1.00  0.00     0.059 A 
HETATM   24  C   UNL     1      44.357 -21.743   2.048  1.00  0.00     0.117 A 
HETATM   25  C   UNL     1      44.825 -22.778   2.851  1.00  0.00     0.042 A 
HETATM   26  F   UNL     1      44.167 -21.962   0.740  1.00  0.00    -0.206 F 
HETATM   27  C   UNL     1      45.006 -22.560   4.216  1.00  0.00     0.004 A 
HETATM   28  C   UNL     1      44.722 -21.307   4.763  1.00  0.00     0.017 A 
ENDBRANCH  19  22
ENDBRANCH   1  18
BRANCH  12  29
HETATM   29  C   UNL     1      41.747 -13.459   0.093  1.00  0.00     0.012 C 
HETATM   30  C   UNL     1      41.563 -12.199  -0.334  1.00  0.00     0.012 C 
BRANCH  30  31
HETATM   31  C   UNL     1      41.944 -11.710  -1.665  1.00  0.00    -0.036 A 
HETATM   32  C   UNL     1      41.750 -12.547  -2.772  1.00  0.00     0.014 A 
HETATM   33  C   UNL     1      42.048 -12.102  -4.064  1.00  0.00     0.037 A 
HETATM   34  C   UNL     1      42.531 -10.812  -4.246  1.00  0.00     0.065 A 
HETATM   35  C   UNL     1      42.719  -9.963  -3.163  1.00  0.00     0.037 A 
HETATM   36  C   UNL     1      42.422 -10.409  -1.873  1.00  0.00     0.014 A 
BRANCH  34  37
HETATM   37  O   UNL     1      42.828 -10.334  -5.488  1.00  0.00    -0.361 OA
HETATM   38  H   UNL     1      42.808 -11.073  -6.117  1.00  0.00     0.217 HD
ENDBRANCH  34  37
ENDBRANCH  30  31
ENDBRANCH  12  29
TORSDOF 5
ENDMDL
MODEL 2
REMARK VINA RESULT:      -9.6      3.981     10.119
REMARK  5 active torsions:
REMARK  status: ('A' for Active; 'I' for Inactive)
REMARK    1  A    between atoms: C_6  and  C_7 
REMARK       I    between atoms: C_7  and  N_8 
REMARK    2  A    between atoms: N_8  and  C_9 
REMARK    3  A    between atoms: C_20  and  C_21 
REMARK    4  A    between atoms: C_22  and  C_23 
REMARK    5  A    between atoms: C_26  and  O_27 
ROOT
HETATM    1  C   UNL     1      39.720 -10.518   0.363  1.00  0.00     0.118 C 
HETATM    2  C   UNL     1      40.425 -11.511   1.315  1.00  0.00     0.202 C 
HETATM    3  N   UNL     1      39.402 -12.450   1.731  1.00  0.00    -0.332 N 
HETATM    4  C   UNL     1      39.646 -13.656   2.332  1.00  0.00     0.257 C 
HETATM    5  O   UNL     1      38.759 -14.471   2.571  1.00  0.00    -0.267 OA
HETATM    6  C   UNL     1      41.050 -13.979   2.702  1.00  0.00     0.059 A 
HETATM    7  C   UNL     1      41.931 -13.057   3.297  1.00  0.00     0.050 A 
HETATM    8  N   UNL     1      41.689 -11.677   3.438  1.00  0.00    -0.324 N 
HETATM    9  C   UNL     1      40.958 -10.867   2.597  1.00  0.00     0.247 C 
HETATM   10  O   UNL     1      40.805  -9.681   2.888  1.00  0.00    -0.271 OA
HETATM   11  C   UNL     1      41.439 -15.320   2.547  1.00  0.00     0.030 A 
HETATM   12  C   UNL     1      42.703 -15.755   2.960  1.00  0.00    -0.035 A 
HETATM   13  C   UNL     1      43.536 -14.855   3.630  1.00  0.00     0.013 A 
HETATM   14  C   UNL     1      43.149 -13.523   3.806  1.00  0.00     0.031 A 
HETATM   15  C   UNL     1      38.080 -11.928   1.493  1.00  0.00     0.129 C 
HETATM   16  C   UNL     1      38.257 -11.000   0.307  1.00  0.00     0.047 C 
HETATM   17  H   UNL     1      42.221 -11.153   4.124  1.00  0.00     0.169 HD
ENDROOT
BRANCH   1  18
HETATM   18  N   UNL     1      40.285 -10.522  -0.994  1.00  0.00    -0.350 N 
HETATM   19  C   UNL     1      41.306  -9.662  -1.348  1.00  0.00     0.252 C 
HETATM   20  O   UNL     1      41.823  -8.876  -0.563  1.00  0.00    -0.268 OA
HETATM   21  H   UNL     1      39.718 -10.908  -1.738  1.00  0.00     0.163 HD
BRANCH  19  22
HETATM   22  C   UNL     1      41.781  -9.741  -2.755  1.00  0.00     0.035 A 
HETATM   23  C   UNL     1      41.972  -8.591  -3.528  1.00  0.00     0.059 A 
HETATM   24  C   UNL     1      42.378  -8.722  -4.851  1.00  0.00     0.117 A 
HETATM   25  C   UNL     1      42.593  -9.973  -5.422  1.00  0.00     0.042 A 
HETATM   26  F   UNL     1      42.557  -7.621  -5.594  1.00  0.00    -0.206 F 
HETATM   27  C   UNL     1      42.389 -11.120  -4.658  1.00  0.00     0.004 A 
HETATM   28  C   UNL     1      41.979 -11.006  -3.328  1.00  0.00     0.017 A 
ENDBRANCH  19  22
ENDBRANCH   1  18
BRANCH  12  29
HETATM   29  C   UNL     1      43.165 -17.129   2.733  1.00  0.00     0.012 C 
HETATM   30  C   UNL     1      43.517 -17.942   3.742  1.00  0.00     0.012 C 
BRANCH  30  31
HETATM   31  C   UNL     1      43.938 -19.338   3.574  1.00  0.00    -0.036 A 
HETATM   32  C   UNL     1      44.492 -20.013   4.670  1.00  0.00     0.014 A 
HETATM   33  C   UNL     1      44.856 -21.359   4.571  1.00  0.00     0.037 A 
HETATM   34  C   UNL     1      44.653 -22.033   3.373  1.00  0.00     0.065 A 
HETATM   35  C   UNL     1      44.092 -21.386   2.278  1.00  0.00     0.037 A 
HETATM   36  C   UNL     1      43.731 -20.041   2.380  1.00  0.00     0.014 A 
BRANCH  34  37
HETATM   37  O   UNL     1      44.985 -23.348   3.232  1.00  0.00    -0.361 OA
HETATM   38  H   UNL     1      44.912 -23.780   4.098  1.00  0.00     0.217 HD
ENDBRANCH  34  37
ENDBRANCH  30  31
ENDBRANCH  12  29
TORSDOF 5
ENDMDL
MODEL 3
REMARK VINA RESULT:      -9.4      3.380      9.550
REMARK  5 active torsions:
REMARK  status: ('A' for Active; 'I' for Inactive)
REMARK    1  A    between atoms: C_6  and  C_7 
REMARK       I    between atoms: C_7  and  N_8 
REMARK    2  A    between atoms: N_8  and  C_9 
REMARK    3  A    between atoms: C_20  and  C_21 
REMARK    4  A    between atoms: C_22  and  C_23 
REMARK    5  A    between atoms: C_26  and  O_27 
ROOT
HETATM    1  C   UNL     1      40.622 -10.667   3.499  1.00  0.00     0.118 C 
HETATM    2  C   UNL     1      41.286 -11.711   4.427  1.00  0.00     0.202 C 
HETATM    3  N   UNL     1      40.245 -12.666   4.751  1.00  0.00    -0.332 N 
HETATM    4  C   UNL     1      40.461 -13.902   5.299  1.00  0.00     0.257 C 
HETATM    5  O   UNL     1      39.564 -14.725   5.459  1.00  0.00    -0.267 OA
HETATM    6  C   UNL     1      41.849 -14.250   5.708  1.00  0.00     0.059 A 
HETATM    7  C   UNL     1      42.706 -13.363   6.386  1.00  0.00     0.050 A 
HETATM    8  N   UNL     1      42.461 -11.991   6.588  1.00  0.00    -0.324 N 
HETATM    9  C   UNL     1      41.766 -11.136   5.761  1.00  0.00     0.247 C 
HETATM   10  O   UNL     1      41.603  -9.966   6.107  1.00  0.00    -0.271 OA
HETATM   11  C   UNL     1      42.242 -15.582   5.499  1.00  0.00     0.030 A 
HETATM   12  C   UNL     1      43.487 -16.043   5.941  1.00  0.00    -0.035 A 
HETATM   13  C   UNL     1      44.294 -15.182   6.690  1.00  0.00     0.013 A 
HETATM   14  C   UNL     1      43.902 -13.859   6.920  1.00  0.00     0.031 A 
HETATM   15  C   UNL     1      38.934 -12.127   4.487  1.00  0.00     0.129 C 
HETATM   16  C   UNL     1      39.161 -11.140   3.359  1.00  0.00     0.047 C 
HETATM   17  H   UNL     1      42.965 -11.506   7.321  1.00  0.00     0.169 HD
ENDROOT
BRANCH   1  18
HETATM   18  N   UNL     1      41.242 -10.603   2.168  1.00  0.00    -0.350 N 
HETATM   19  C   UNL     1      41.199  -9.448   1.413  1.00  0.00     0.252 C 
HETATM   20  O   UNL     1      40.681  -8.409   1.805  1.00  0.00    -0.268 OA
HETATM   21  H   UNL     1      41.402 -11.475   1.683  1.00  0.00     0.163 HD
BRANCH  19  22
HETATM   22  C   UNL     1      41.841  -9.509   0.073  1.00  0.00     0.035 A 
HETATM   23  C   UNL     1      42.186 -10.729  -0.519  1.00  0.00     0.059 A 
HETATM   24  C   UNL     1      42.821 -10.728  -1.756  1.00  0.00     0.117 A 
HETATM   25  C   UNL     1      43.125  -9.540  -2.412  1.00  0.00     0.042 A 
HETATM   26  F   UNL     1      43.156 -11.896  -2.321  1.00  0.00    -0.206 F 
HETATM   27  C   UNL     1      42.796  -8.323  -1.818  1.00  0.00     0.004 A 
HETATM   28  C   UNL     1      42.160  -8.307  -0.575  1.00  0.00     0.017 A 
ENDBRANCH  19  22
ENDBRANCH   1  18
BRANCH  12  29
HETATM   29  C   UNL     1      43.955 -17.405   5.661  1.00  0.00     0.012 C 
HETATM   30  C   UNL     1      43.478 -18.129   4.636  1.00  0.00     0.012 C 
BRANCH  30  31
HETATM   31  C   UNL     1      43.947 -19.475   4.282  1.00  0.00    -0.036 A 
HETATM   32  C   UNL     1      44.349 -20.341   5.308  1.00  0.00     0.014 A 
HETATM   33  C   UNL     1      44.751 -21.648   5.022  1.00  0.00     0.037 A 
HETATM   34  C   UNL     1      44.737 -22.093   3.705  1.00  0.00     0.065 A 
HETATM   35  C   UNL     1      44.330 -21.255   2.675  1.00  0.00     0.037 A 
HETATM   36  C   UNL     1      43.930 -19.947   2.964  1.00  0.00     0.014 A 
BRANCH  34  37
HETATM   37  O   UNL     1      45.114 -23.362   3.380  1.00  0.00    -0.361 OA
HETATM   38  H   UNL     1      46.060 -23.464   3.572  1.00  0.00     0.217 HD
ENDBRANCH  34  37
ENDBRANCH  30  31
ENDBRANCH  12  29
TORSDOF 5
ENDMDL
MODEL 4
REMARK VINA RESULT:      -9.2      5.119      9.903
REMARK  5 active torsions:
REMARK  status: ('A' for Active; 'I' for Inactive)
REMARK    1  A    between atoms: C_6  and  C_7 
REMARK       I    between atoms: C_7  and  N_8 
REMARK    2  A    between atoms: N_8  and  C_9 
REMARK    3  A    between atoms: C_20  and  C_21 
REMARK    4  A    between atoms: C_22  and  C_23 
REMARK    5  A    between atoms: C_26  and  O_27 
ROOT
HETATM    1  C   UNL     1      39.784  -9.743   3.583  1.00  0.00     0.118 C 
HETATM    2  C   UNL     1      39.812 -11.170   2.987  1.00  0.00     0.202 C 
HETATM    3  N   UNL     1      40.873 -11.161   1.999  1.00  0.00    -0.332 N 
HETATM    4  C   UNL     1      41.436 -12.280   1.446  1.00  0.00     0.257 C 
HETATM    5  O   UNL     1      42.406 -12.235   0.694  1.00  0.00    -0.267 OA
HETATM    6  C   UNL     1      40.839 -13.600   1.786  1.00  0.00     0.059 A 
HETATM    7  C   UNL     1      39.453 -13.839   1.834  1.00  0.00     0.050 A 
HETATM    8  N   UNL     1      38.455 -12.847   1.773  1.00  0.00    -0.324 N 
HETATM    9  C   UNL     1      38.535 -11.553   2.236  1.00  0.00     0.247 C 
HETATM   10  O   UNL     1      37.581 -10.794   2.065  1.00  0.00    -0.271 OA
HETATM   11  C   UNL     1      41.740 -14.668   1.937  1.00  0.00     0.030 A 
HETATM   12  C   UNL     1      41.281 -15.971   2.154  1.00  0.00    -0.035 A 
HETATM   13  C   UNL     1      39.905 -16.214   2.112  1.00  0.00     0.013 A 
HETATM   14  C   UNL     1      39.002 -15.160   1.942  1.00  0.00     0.031 A 
HETATM   15  C   UNL     1      41.223  -9.817   1.613  1.00  0.00     0.129 C 
HETATM   16  C   UNL     1      40.902  -8.985   2.840  1.00  0.00     0.047 C 
HETATM   17  H   UNL     1      37.512 -13.116   1.517  1.00  0.00     0.169 HD
ENDROOT
BRANCH   1  18
HETATM   18  N   UNL     1      40.055  -9.717   5.027  1.00  0.00    -0.350 N 
HETATM   19  C   UNL     1      39.074  -9.373   5.934  1.00  0.00     0.252 C 
HETATM   20  O   UNL     1      37.924  -9.103   5.609  1.00  0.00    -0.268 OA
HETATM   21  H   UNL     1      41.019  -9.628   5.322  1.00  0.00     0.163 HD
BRANCH  19  22
HETATM   22  C   UNL     1      39.471  -9.359   7.367  1.00  0.00     0.035 A 
HETATM   23  C   UNL     1      39.505 -10.533   8.129  1.00  0.00     0.059 A 
HETATM   24  C   UNL     1      39.844 -10.459   9.475  1.00  0.00     0.117 A 
HETATM   25  C   UNL     1      40.144  -9.243  10.080  1.00  0.00     0.042 A 
HETATM   26  F   UNL     1      39.871 -11.581  10.206  1.00  0.00    -0.206 F 
HETATM   27  C   UNL     1      40.097  -8.071   9.327  1.00  0.00     0.004 A 
HETATM   28  C   UNL     1      39.756  -8.128   7.974  1.00  0.00     0.017 A 
ENDBRANCH  19  22
ENDBRANCH   1  18
BRANCH  12  29
HETATM   29  C   UNL     1      42.200 -17.088   2.400  1.00  0.00     0.012 C 
HETATM   30  C   UNL     1      42.407 -17.587   3.630  1.00  0.00     0.012 C 
BRANCH  30  31
HETATM   31  C   UNL     1      43.276 -18.734   3.924  1.00  0.00    -0.036 A 
HETATM   32  C   UNL     1      43.549 -19.048   5.262  1.00  0.00     0.014 A 
HETATM   33  C   UNL     1      44.326 -20.162   5.590  1.00  0.00     0.037 A 
HETATM   34  C   UNL     1      44.822 -20.970   4.573  1.00  0.00     0.065 A 
HETATM   35  C   UNL     1      44.552 -20.683   3.241  1.00  0.00     0.037 A 
HETATM   36  C   UNL     1      43.776 -19.568   2.916  1.00  0.00     0.014 A 
BRANCH  34  37
HETATM   37  O   UNL     1      45.578 -22.071   4.846  1.00  0.00    -0.361 OA
HETATM   38  H   UNL     1      45.356 -22.767   4.206  1.00  0.00     0.217 HD
ENDBRANCH  34  37
ENDBRANCH  30  31
ENDBRANCH  12  29
TORSDOF 5
ENDMDL
MODEL 5
REMARK VINA RESULT:      -9.1      5.389     11.090
REMARK  5 active torsions:
REMARK  status: ('A' for Active; 'I' for Inactive)
REMARK    1  A    between atoms: C_6  and  C_7 
REMARK       I    between atoms: C_7  and  N_8 
REMARK    2  A    between atoms: N_8  and  C_9 
REMARK    3  A    between atoms: C_20  and  C_21 
REMARK    4  A    between atoms: C_22  and  C_23 
REMARK    5  A    between atoms: C_26  and  O_27 
ROOT
HETATM    1  C   UNL     1      38.649 -11.823  -1.936  1.00  0.00     0.118 C 
HETATM    2  C   UNL     1      39.540 -12.927  -1.321  1.00  0.00     0.202 C 
HETATM    3  N   UNL     1      40.783 -12.274  -0.962  1.00  0.00    -0.332 N 
HETATM    4  C   UNL     1      41.732 -12.804  -0.129  1.00  0.00     0.257 C 
HETATM    5  O   UNL     1      42.721 -12.176   0.237  1.00  0.00    -0.267 OA
HETATM    6  C   UNL     1      41.539 -14.200   0.348  1.00  0.00     0.059 A 
HETATM    7  C   UNL     1      41.109 -15.254  -0.479  1.00  0.00     0.050 A 
HETATM    8  N   UNL     1      40.615 -15.108  -1.790  1.00  0.00    -0.324 N 
HETATM    9  C   UNL     1      39.912 -14.040  -2.304  1.00  0.00     0.247 C 
HETATM   10  O   UNL     1      39.587 -14.049  -3.491  1.00  0.00    -0.271 OA
HETATM   11  C   UNL     1      41.936 -14.465   1.670  1.00  0.00     0.030 A 
HETATM   12  C   UNL     1      41.896 -15.764   2.187  1.00  0.00    -0.035 A 
HETATM   13  C   UNL     1      41.553 -16.816   1.333  1.00  0.00     0.013 A 
HETATM   14  C   UNL     1      41.175 -16.564   0.010  1.00  0.00     0.031 A 
HETATM   15  C   UNL     1      40.934 -11.015  -1.647  1.00  0.00     0.129 C 
HETATM   16  C   UNL     1      39.510 -10.545  -1.875  1.00  0.00     0.047 C 
HETATM   17  H   UNL     1      40.611 -15.913  -2.405  1.00  0.00     0.169 HD
ENDROOT
BRANCH   1  18
HETATM   18  N   UNL     1      37.403 -11.605  -1.187  1.00  0.00    -0.350 N 
HETATM   19  C   UNL     1      36.285 -11.074  -1.797  1.00  0.00     0.252 C 
HETATM   20  O   UNL     1      36.243 -10.784  -2.987  1.00  0.00    -0.268 OA
HETATM   21  H   UNL     1      37.467 -11.533  -0.180  1.00  0.00     0.163 HD
BRANCH  19  22
HETATM   22  C   UNL     1      35.090 -10.878  -0.935  1.00  0.00     0.035 A 
HETATM   23  C   UNL     1      33.813 -10.701  -1.481  1.00  0.00     0.059 A 
HETATM   24  C   UNL     1      32.735 -10.480  -0.631  1.00  0.00     0.117 A 
HETATM   25  C   UNL     1      32.902 -10.426   0.749  1.00  0.00     0.042 A 
HETATM   26  F   UNL     1      31.514 -10.306  -1.154  1.00  0.00    -0.206 F 
HETATM   27  C   UNL     1      34.173 -10.587   1.295  1.00  0.00     0.004 A 
HETATM   28  C   UNL     1      35.267 -10.807   0.455  1.00  0.00     0.017 A 
ENDBRANCH  19  22
ENDBRANCH   1  18
BRANCH  12  29
HETATM   29  C   UNL     1      42.224 -16.054   3.587  1.00  0.00     0.012 C 
HETATM   30  C   UNL     1      42.872 -17.172   3.953  1.00  0.00     0.012 C 
BRANCH  30  31
HETATM   31  C   UNL     1      43.268 -17.487   5.332  1.00  0.00    -0.036 A 
HETATM   32  C   UNL     1      42.437 -17.077   6.383  1.00  0.00     0.014 A 
HETATM   33  C   UNL     1      42.748 -17.403   7.707  1.00  0.00     0.037 A 
HETATM   34  C   UNL     1      43.889 -18.150   7.976  1.00  0.00     0.065 A 
HETATM   35  C   UNL     1      44.719 -18.576   6.946  1.00  0.00     0.037 A 
HETATM   36  C   UNL     1      44.407 -18.248   5.625  1.00  0.00     0.014 A 
BRANCH  34  37
HETATM   37  O   UNL     1      44.227 -18.496   9.250  1.00  0.00    -0.361 OA
HETATM   38  H   UNL     1      44.541 -19.415   9.248  1.00  0.00     0.217 HD
ENDBRANCH  34  37
ENDBRANCH  30  31
ENDBRANCH  12  29
TORSDOF 5
ENDMDL
MODEL 6
REMARK VINA RESULT:      -9.1      5.038      8.996
REMARK  5 active torsions:
REMARK  status: ('A' for Active; 'I' for Inactive)
REMARK    1  A    between atoms: C_6  and  C_7 
REMARK       I    between atoms: C_7  and  N_8 
REMARK    2  A    between atoms: N_8  and  C_9 
REMARK    3  A    between atoms: C_20  and  C_21 
REMARK    4  A    between atoms: C_22  and  C_23 
REMARK    5  A    between atoms: C_26  and  O_27 
ROOT
HETATM    1  C   UNL     1      41.197 -14.666   2.620  1.00  0.00     0.118 C 
HETATM    2  C   UNL     1      41.155 -13.446   3.570  1.00  0.00     0.202 C 
HETATM    3  N   UNL     1      39.776 -13.331   4.000  1.00  0.00    -0.332 N 
HETATM    4  C   UNL     1      39.349 -12.581   5.063  1.00  0.00     0.257 C 
HETATM    5  O   UNL     1      38.188 -12.594   5.463  1.00  0.00    -0.267 OA
HETATM    6  C   UNL     1      40.348 -11.722   5.756  1.00  0.00     0.059 A 
HETATM    7  C   UNL     1      41.304 -10.941   5.082  1.00  0.00     0.050 A 
HETATM    8  N   UNL     1      41.586 -11.012   3.703  1.00  0.00    -0.324 N 
HETATM    9  C   UNL     1      41.502 -12.120   2.890  1.00  0.00     0.247 C 
HETATM   10  O   UNL     1      41.743 -12.003   1.688  1.00  0.00    -0.271 OA
HETATM   11  C   UNL     1      40.214 -11.618   7.151  1.00  0.00     0.030 A 
HETATM   12  C   UNL     1      41.033 -10.757   7.889  1.00  0.00    -0.035 A 
HETATM   13  C   UNL     1      41.919  -9.921   7.204  1.00  0.00     0.013 A 
HETATM   14  C   UNL     1      42.044 -10.004   5.813  1.00  0.00     0.031 A 
HETATM   15  C   UNL     1      38.889 -14.055   3.125  1.00  0.00     0.129 C 
HETATM   16  C   UNL     1      39.745 -15.182   2.581  1.00  0.00     0.047 C 
HETATM   17  H   UNL     1      42.057 -10.233   3.259  1.00  0.00     0.169 HD
ENDROOT
BRANCH   1  18
HETATM   18  N   UNL     1      42.082 -15.738   3.097  1.00  0.00    -0.350 N 
HETATM   19  C   UNL     1      42.333 -16.855   2.327  1.00  0.00     0.252 C 
HETATM   20  O   UNL     1      41.874 -17.012   1.202  1.00  0.00    -0.268 OA
HETATM   21  H   UNL     1      42.233 -15.812   4.095  1.00  0.00     0.163 HD
BRANCH  19  22
HETATM   22  C   UNL     1      43.226 -17.884   2.924  1.00  0.00     0.035 A 
HETATM   23  C   UNL     1      43.629 -19.012   2.201  1.00  0.00     0.059 A 
HETATM   24  C   UNL     1      44.431 -19.965   2.819  1.00  0.00     0.117 A 
HETATM   25  C   UNL     1      44.834 -19.822   4.143  1.00  0.00     0.042 A 
HETATM   26  F   UNL     1      44.813 -21.047   2.129  1.00  0.00    -0.206 F 
HETATM   27  C   UNL     1      44.422 -18.707   4.870  1.00  0.00     0.004 A 
HETATM   28  C   UNL     1      43.615 -17.742   4.264  1.00  0.00     0.017 A 
ENDBRANCH  19  22
ENDBRANCH   1  18
BRANCH  12  29
HETATM   29  C   UNL     1      40.972 -10.692   9.354  1.00  0.00     0.012 C 
HETATM   30  C   UNL     1      42.077 -10.628  10.114  1.00  0.00     0.012 C 
BRANCH  30  31
HETATM   31  C   UNL     1      42.071 -10.512  11.578  1.00  0.00    -0.036 A 
HETATM   32  C   UNL     1      43.171  -9.918  12.212  1.00  0.00     0.014 A 
HETATM   33  C   UNL     1      43.183  -9.737  13.598  1.00  0.00     0.037 A 
HETATM   34  C   UNL     1      42.086 -10.142  14.349  1.00  0.00     0.065 A 
HETATM   35  C   UNL     1      40.980 -10.720  13.737  1.00  0.00     0.037 A 
HETATM   36  C   UNL     1      40.970 -10.901  12.352  1.00  0.00     0.014 A 
BRANCH  34  37
HETATM   37  O   UNL     1      42.051  -9.979  15.702  1.00  0.00    -0.361 OA
HETATM   38  H   UNL     1      42.731 -10.545  16.100  1.00  0.00     0.217 HD
ENDBRANCH  34  37
ENDBRANCH  30  31
ENDBRANCH  12  29
TORSDOF 5
ENDMDL
MODEL 7
REMARK VINA RESULT:      -8.8      3.472      4.100
REMARK  5 active torsions:
REMARK  status: ('A' for Active; 'I' for Inactive)
REMARK    1  A    between atoms: C_6  and  C_7 
REMARK       I    between atoms: C_7  and  N_8 
REMARK    2  A    between atoms: N_8  and  C_9 
REMARK    3  A    between atoms: C_20  and  C_21 
REMARK    4  A    between atoms: C_22  and  C_23 
REMARK    5  A    between atoms: C_26  and  O_27 
ROOT
HETATM    1  C   UNL     1      42.809 -15.908   3.861  1.00  0.00     0.118 C 
HETATM    2  C   UNL     1      41.670 -15.142   3.149  1.00  0.00     0.202 C 
HETATM    3  N   UNL     1      42.298 -13.987   2.538  1.00  0.00    -0.332 N 
HETATM    4  C   UNL     1      41.722 -13.204   1.572  1.00  0.00     0.257 C 
HETATM    5  O   UNL     1      42.326 -12.300   1.002  1.00  0.00    -0.267 OA
HETATM    6  C   UNL     1      40.306 -13.477   1.207  1.00  0.00     0.059 A 
HETATM    7  C   UNL     1      39.296 -13.746   2.149  1.00  0.00     0.050 A 
HETATM    8  N   UNL     1      39.509 -13.993   3.519  1.00  0.00    -0.324 N 
HETATM    9  C   UNL     1      40.604 -14.594   4.100  1.00  0.00     0.247 C 
HETATM   10  O   UNL     1      40.654 -14.696   5.325  1.00  0.00    -0.271 OA
HETATM   11  C   UNL     1      39.976 -13.326  -0.151  1.00  0.00     0.030 A 
HETATM   12  C   UNL     1      38.654 -13.457  -0.588  1.00  0.00    -0.035 A 
HETATM   13  C   UNL     1      37.646 -13.635   0.364  1.00  0.00     0.013 A 
HETATM   14  C   UNL     1      37.964 -13.766   1.720  1.00  0.00     0.031 A 
HETATM   15  C   UNL     1      43.588 -13.717   3.122  1.00  0.00     0.129 C 
HETATM   16  C   UNL     1      44.076 -15.076   3.582  1.00  0.00     0.047 C 
HETATM   17  H   UNL     1      38.734 -13.882   4.163  1.00  0.00     0.169 HD
ENDROOT
BRANCH   1  18
HETATM   18  N   UNL     1      42.998 -17.271   3.343  1.00  0.00    -0.350 N 
HETATM   19  C   UNL     1      43.721 -18.211   4.048  1.00  0.00     0.252 C 
HETATM   20  O   UNL     1      44.217 -17.991   5.146  1.00  0.00    -0.268 OA
HETATM   21  H   UNL     1      42.886 -17.414   2.348  1.00  0.00     0.163 HD
BRANCH  19  22
HETATM   22  C   UNL     1      43.864 -19.549   3.414  1.00  0.00     0.035 A 
HETATM   23  C   UNL     1      44.456 -20.621   4.091  1.00  0.00     0.059 A 
HETATM   24  C   UNL     1      44.603 -21.839   3.438  1.00  0.00     0.117 A 
HETATM   25  C   UNL     1      44.179 -22.011   2.124  1.00  0.00     0.042 A 
HETATM   26  F   UNL     1      45.174 -22.864   4.084  1.00  0.00    -0.206 F 
HETATM   27  C   UNL     1      43.602 -20.942   1.442  1.00  0.00     0.004 A 
HETATM   28  C   UNL     1      43.450 -19.710   2.084  1.00  0.00     0.017 A 
ENDBRANCH  19  22
ENDBRANCH   1  18
BRANCH  12  29
HETATM   29  C   UNL     1      38.295 -13.388  -2.009  1.00  0.00     0.012 C 
HETATM   30  C   UNL     1      37.112 -12.907  -2.426  1.00  0.00     0.012 C 
BRANCH  30  31
HETATM   31  C   UNL     1      36.723 -12.770  -3.835  1.00  0.00    -0.036 A 
HETATM   32  C   UNL     1      36.180 -13.880  -4.496  1.00  0.00     0.014 A 
HETATM   33  C   UNL     1      35.746 -13.780  -5.821  1.00  0.00     0.037 A 
HETATM   34  C   UNL     1      35.845 -12.560  -6.481  1.00  0.00     0.065 A 
HETATM   35  C   UNL     1      36.369 -11.445  -5.839  1.00  0.00     0.037 A 
HETATM   36  C   UNL     1      36.804 -11.548  -4.516  1.00  0.00     0.014 A 
BRANCH  34  37
HETATM   37  O   UNL     1      35.428 -12.414  -7.771  1.00  0.00    -0.361 OA
HETATM   38  H   UNL     1      35.629 -13.231  -8.256  1.00  0.00     0.217 HD
ENDBRANCH  34  37
ENDBRANCH  30  31
ENDBRANCH  12  29
TORSDOF 5
ENDMDL
MODEL 8
REMARK VINA RESULT:      -8.8      5.521      9.343
REMARK  5 active torsions:
REMARK  status: ('A' for Active; 'I' for Inactive)
REMARK    1  A    between atoms: C_6  and  C_7 
REMARK       I    between atoms: C_7  and  N_8 
REMARK    2  A    between atoms: N_8  and  C_9 
REMARK    3  A    between atoms: C_20  and  C_21 
REMARK    4  A    between atoms: C_22  and  C_23 
REMARK    5  A    between atoms: C_26  and  O_27 
ROOT
HETATM    1  C   UNL     1      40.261 -13.103   1.636  1.00  0.00     0.118 C 
HETATM    2  C   UNL     1      40.408 -11.953   2.659  1.00  0.00     0.202 C 
HETATM    3  N   UNL     1      39.060 -11.627   3.080  1.00  0.00    -0.332 N 
HETATM    4  C   UNL     1      38.745 -10.879   4.182  1.00  0.00     0.257 C 
HETATM    5  O   UNL     1      37.591 -10.715   4.568  1.00  0.00    -0.267 OA
HETATM    6  C   UNL     1      39.861 -10.248   4.938  1.00  0.00     0.059 A 
HETATM    7  C   UNL     1      40.952  -9.605   4.324  1.00  0.00     0.050 A 
HETATM    8  N   UNL     1      41.247  -9.642   2.947  1.00  0.00    -0.324 N 
HETATM    9  C   UNL     1      40.992 -10.669   2.066  1.00  0.00     0.247 C 
HETATM   10  O   UNL     1      41.276 -10.525   0.877  1.00  0.00    -0.271 OA
HETATM   11  C   UNL     1      39.717 -10.204   6.335  1.00  0.00     0.030 A 
HETATM   12  C   UNL     1      40.656  -9.542   7.134  1.00  0.00    -0.035 A 
HETATM   13  C   UNL     1      41.686  -8.832   6.512  1.00  0.00     0.013 A 
HETATM   14  C   UNL     1      41.825  -8.854   5.120  1.00  0.00     0.031 A 
HETATM   15  C   UNL     1      38.081 -12.135   2.152  1.00  0.00     0.129 C 
HETATM   16  C   UNL     1      38.743 -13.358   1.549  1.00  0.00     0.047 C 
HETATM   17  H   UNL     1      41.854  -8.931   2.557  1.00  0.00     0.169 HD
ENDROOT
BRANCH   1  18
HETATM   18  N   UNL     1      40.938 -14.339   2.056  1.00  0.00    -0.350 N 
HETATM   19  C   UNL     1      41.538 -15.175   1.137  1.00  0.00     0.252 C 
HETATM   20  O   UNL     1      41.576 -14.935  -0.064  1.00  0.00    -0.268 OA
HETATM   21  H   UNL     1      40.682 -14.732   2.952  1.00  0.00     0.163 HD
BRANCH  19  22
HETATM   22  C   UNL     1      42.172 -16.407   1.677  1.00  0.00     0.035 A 
HETATM   23  C   UNL     1      41.811 -16.930   2.924  1.00  0.00     0.059 A 
HETATM   24  C   UNL     1      42.464 -18.061   3.401  1.00  0.00     0.117 A 
HETATM   25  C   UNL     1      43.471 -18.678   2.667  1.00  0.00     0.042 A 
HETATM   26  F   UNL     1      42.123 -18.559   4.597  1.00  0.00    -0.206 F 
HETATM   27  C   UNL     1      43.842 -18.152   1.431  1.00  0.00     0.004 A 
HETATM   28  C   UNL     1      43.198 -17.014   0.939  1.00  0.00     0.017 A 
ENDBRANCH  19  22
ENDBRANCH   1  18
BRANCH  12  29
HETATM   29  C   UNL     1      40.574  -9.554   8.599  1.00  0.00     0.012 C 
HETATM   30  C   UNL     1      41.482 -10.186   9.361  1.00  0.00     0.012 C 
BRANCH  30  31
HETATM   31  C   UNL     1      41.476 -10.187  10.829  1.00  0.00    -0.036 A 
HETATM   32  C   UNL     1      40.668 -11.115  11.500  1.00  0.00     0.014 A 
HETATM   33  C   UNL     1      40.672 -11.188  12.896  1.00  0.00     0.037 A 
HETATM   34  C   UNL     1      41.497 -10.336  13.621  1.00  0.00     0.065 A 
HETATM   35  C   UNL     1      42.315  -9.418  12.974  1.00  0.00     0.037 A 
HETATM   36  C   UNL     1      42.308  -9.346  11.579  1.00  0.00     0.014 A 
BRANCH  34  37
HETATM   37  O   UNL     1      41.539 -10.377  14.983  1.00  0.00    -0.361 OA
HETATM   38  H   UNL     1      40.638 -10.513  15.317  1.00  0.00     0.217 HD
ENDBRANCH  34  37
ENDBRANCH  30  31
ENDBRANCH  12  29
TORSDOF 5
ENDMDL
MODEL 9
REMARK VINA RESULT:      -8.6      5.400     10.988
REMARK  5 active torsions:
REMARK  status: ('A' for Active; 'I' for Inactive)
REMARK    1  A    between atoms: C_6  and  C_7 
REMARK       I    between atoms: C_7  and  N_8 
REMARK    2  A    between atoms: N_8  and  C_9 
REMARK    3  A    between atoms: C_20  and  C_21 
REMARK    4  A    between atoms: C_22  and  C_23 
REMARK    5  A    between atoms: C_26  and  O_27 
ROOT
HETATM    1  C   UNL     1      38.747  -9.821  -1.440  1.00  0.00     0.118 C 
HETATM    2  C   UNL     1      39.520 -11.160  -1.476  1.00  0.00     0.202 C 
HETATM    3  N   UNL     1      40.882 -10.837  -1.101  1.00  0.00    -0.332 N 
HETATM    4  C   UNL     1      41.826 -11.753  -0.720  1.00  0.00     0.257 C 
HETATM    5  O   UNL     1      42.936 -11.432  -0.306  1.00  0.00    -0.267 OA
HETATM    6  C   UNL     1      41.474 -13.196  -0.814  1.00  0.00     0.059 A 
HETATM    7  C   UNL     1      40.794 -13.762  -1.908  1.00  0.00     0.050 A 
HETATM    8  N   UNL     1      40.182 -13.036  -2.949  1.00  0.00    -0.324 N 
HETATM    9  C   UNL     1      39.599 -11.791  -2.868  1.00  0.00     0.247 C 
HETATM   10  O   UNL     1      39.144 -11.273  -3.887  1.00  0.00    -0.271 OA
HETATM   11  C   UNL     1      41.974 -14.024   0.206  1.00  0.00     0.030 A 
HETATM   12  C   UNL     1      41.791 -15.410   0.161  1.00  0.00    -0.035 A 
HETATM   13  C   UNL     1      41.194 -15.972  -0.971  1.00  0.00     0.013 A 
HETATM   14  C   UNL     1      40.711 -15.157  -2.000  1.00  0.00     0.031 A 
HETATM   15  C   UNL     1      41.148  -9.427  -1.242  1.00  0.00     0.129 C 
HETATM   16  C   UNL     1      39.798  -8.773  -1.021  1.00  0.00     0.047 C 
HETATM   17  H   UNL     1      39.984 -13.507  -3.823  1.00  0.00     0.169 HD
ENDROOT
BRANCH   1  18
HETATM   18  N   UNL     1      37.644  -9.818  -0.469  1.00  0.00    -0.350 N 
HETATM   19  C   UNL     1      36.339 -10.026  -0.868  1.00  0.00     0.252 C 
HETATM   20  O   UNL     1      36.020 -10.254  -2.029  1.00  0.00    -0.268 OA
HETATM   21  H   UNL     1      37.796  -9.347   0.413  1.00  0.00     0.163 HD
BRANCH  19  22
HETATM   22  C   UNL     1      35.305  -9.978   0.200  1.00  0.00     0.035 A 
HETATM   23  C   UNL     1      35.581  -9.446   1.464  1.00  0.00     0.059 A 
HETATM   24  C   UNL     1      34.591  -9.463   2.440  1.00  0.00     0.117 A 
HETATM   25  C   UNL     1      33.334 -10.003   2.186  1.00  0.00     0.042 A 
HETATM   26  F   UNL     1      34.857  -8.959   3.652  1.00  0.00    -0.206 F 
HETATM   27  C   UNL     1      33.060 -10.546   0.932  1.00  0.00     0.004 A 
HETATM   28  C   UNL     1      34.045 -10.539  -0.058  1.00  0.00     0.017 A 
ENDBRANCH  19  22
ENDBRANCH   1  18
BRANCH  12  29
HETATM   29  C   UNL     1      42.229 -16.287   1.253  1.00  0.00     0.012 C 
HETATM   30  C   UNL     1      43.027 -17.347   1.043  1.00  0.00     0.012 C 
BRANCH  30  31
HETATM   31  C   UNL     1      43.534 -18.226   2.104  1.00  0.00    -0.036 A 
HETATM   32  C   UNL     1      43.690 -17.704   3.396  1.00  0.00     0.014 A 
HETATM   33  C   UNL     1      44.117 -18.518   4.448  1.00  0.00     0.037 A 
HETATM   34  C   UNL     1      44.377 -19.863   4.208  1.00  0.00     0.065 A 
HETATM   35  C   UNL     1      44.216 -20.402   2.938  1.00  0.00     0.037 A 
HETATM   36  C   UNL     1      43.790 -19.586   1.887  1.00  0.00     0.014 A 
BRANCH  34  37
HETATM   37  O   UNL     1      44.789 -20.696   5.205  1.00  0.00    -0.361 OA
HETATM   38  H   UNL     1      45.580 -20.315   5.620  1.00  0.00     0.217 HD
ENDBRANCH  34  37
ENDBRANCH  30  31
ENDBRANCH  12  29
TORSDOF 5
ENDMDL
MODEL 10
REMARK VINA RESULT:      -8.3      5.300      9.360
REMARK  5 active torsions:
REMARK  status: ('A' for Active; 'I' for Inactive)
REMARK    1  A    between atoms: C_6  and  C_7 
REMARK       I    between atoms: C_7  and  N_8 
REMARK    2  A    between atoms: N_8  and  C_9 
REMARK    3  A    between atoms: C_20  and  C_21 
REMARK    4  A    between atoms: C_22  and  C_23 
REMARK    5  A    between atoms: C_26  and  O_27 
ROOT
HETATM    1  C   UNL     1      40.963  -8.901   6.532  1.00  0.00     0.118 C 
HETATM    2  C   UNL     1      40.631 -10.199   5.761  1.00  0.00     0.202 C 
HETATM    3  N   UNL     1      41.167 -10.011   4.428  1.00  0.00    -0.332 N 
HETATM    4  C   UNL     1      41.357 -11.013   3.513  1.00  0.00     0.257 C 
HETATM    5  O   UNL     1      41.913 -10.831   2.433  1.00  0.00    -0.267 OA
HETATM    6  C   UNL     1      40.867 -12.374   3.859  1.00  0.00     0.059 A 
HETATM    7  C   UNL     1      39.621 -12.624   4.463  1.00  0.00     0.050 A 
HETATM    8  N   UNL     1      38.767 -11.641   5.001  1.00  0.00    -0.324 N 
HETATM    9  C   UNL     1      39.131 -10.448   5.586  1.00  0.00     0.247 C 
HETATM   10  O   UNL     1      38.254  -9.675   5.970  1.00  0.00    -0.271 OA
HETATM   11  C   UNL     1      41.666 -13.448   3.431  1.00  0.00     0.030 A 
HETATM   12  C   UNL     1      41.249 -14.771   3.612  1.00  0.00    -0.035 A 
HETATM   13  C   UNL     1      39.974 -15.008   4.131  1.00  0.00     0.013 A 
HETATM   14  C   UNL     1      39.163 -13.945   4.541  1.00  0.00     0.031 A 
HETATM   15  C   UNL     1      41.416  -8.619   4.151  1.00  0.00     0.129 C 
HETATM   16  C   UNL     1      41.710  -8.019   5.512  1.00  0.00     0.047 C 
HETATM   17  H   UNL     1      37.789 -11.864   5.139  1.00  0.00     0.169 HD
ENDROOT
BRANCH   1  18
HETATM   18  N   UNL     1      41.826  -9.130   7.700  1.00  0.00    -0.350 N 
HETATM   19  C   UNL     1      41.357  -9.787   8.819  1.00  0.00     0.252 C 
HETATM   20  O   UNL     1      40.223 -10.245   8.903  1.00  0.00    -0.268 OA
HETATM   21  H   UNL     1      42.633  -8.531   7.812  1.00  0.00     0.163 HD
BRANCH  19  22
HETATM   22  C   UNL     1      42.314  -9.940   9.948  1.00  0.00     0.035 A 
HETATM   23  C   UNL     1      43.299 -10.934   9.942  1.00  0.00     0.059 A 
HETATM   24  C   UNL     1      44.142 -11.060  11.041  1.00  0.00     0.117 A 
HETATM   25  C   UNL     1      44.021 -10.223  12.145  1.00  0.00     0.042 A 
HETATM   26  F   UNL     1      45.083 -12.014  11.039  1.00  0.00    -0.206 F 
HETATM   27  C   UNL     1      43.031  -9.243  12.160  1.00  0.00     0.004 A 
HETATM   28  C   UNL     1      42.175  -9.104  11.065  1.00  0.00     0.017 A 
ENDBRANCH  19  22
ENDBRANCH   1  18
BRANCH  12  29
HETATM   29  C   UNL     1      42.102 -15.910   3.252  1.00  0.00     0.012 C 
HETATM   30  C   UNL     1      41.955 -17.120   3.817  1.00  0.00     0.012 C 
BRANCH  30  31
HETATM   31  C   UNL     1      42.746 -18.303   3.458  1.00  0.00    -0.036 A 
HETATM   32  C   UNL     1      42.653 -18.807   2.153  1.00  0.00     0.014 A 
HETATM   33  C   UNL     1      43.429 -19.899   1.752  1.00  0.00     0.037 A 
HETATM   34  C   UNL     1      44.309 -20.479   2.658  1.00  0.00     0.065 A 
HETATM   35  C   UNL     1      44.426 -19.986   3.952  1.00  0.00     0.037 A 
HETATM   36  C   UNL     1      43.648 -18.897   4.351  1.00  0.00     0.014 A 
BRANCH  34  37
HETATM   37  O   UNL     1      45.090 -21.540   2.309  1.00  0.00    -0.361 OA
HETATM   38  H   UNL     1      45.414 -21.402   1.404  1.00  0.00     0.217 HD
ENDBRANCH  34  37
ENDBRANCH  30  31
ENDBRANCH  12  29
TORSDOF 5
ENDMDL
