MODEL 1
REMARK VINA RESULT:      -9.7      0.000      0.000
REMARK  4 active torsions:
REMARK  status: ('A' for Active; 'I' for Inactive)
REMARK    1  A    between atoms: C_7  and  C_8 
REMARK    2  A    between atoms: N_9  and  N_10 
REMARK       I    between atoms: N_10  and  C_11 
REMARK    3  A    between atoms: C_11  and  C_12 
REMARK    4  A    between atoms: C_16  and  C_17 
ROOT
HETATM    1  N   UNL     1      44.424 -14.555   7.481  1.00  0.00    -0.242 N 
HETATM    2  C   UNL     1      45.270 -13.459   7.405  1.00  0.00     0.289 C 
HETATM    3  O   UNL     1      46.189 -13.345   6.598  1.00  0.00    -0.264 OA
HETATM    4  H   UNL     1      43.714 -14.606   8.198  1.00  0.00     0.192 HD
ENDROOT
BRANCH   1   5
HETATM    5  N   UNL     1      44.596 -15.612   6.630  1.00  0.00    -0.183 NA
HETATM    6  C   UNL     1      43.548 -16.335   6.405  1.00  0.00     0.153 C 
BRANCH   6   7
HETATM    7  C   UNL     1      43.625 -17.485   5.522  1.00  0.00     0.018 A 
HETATM    8  C   UNL     1      43.719 -18.821   5.890  1.00  0.00     0.018 A 
HETATM    9  C   UNL     1      43.768 -19.467   7.231  1.00  0.00     0.069 C 
HETATM   10  N   UNL     1      43.767 -19.570   4.742  1.00  0.00    -0.358 N 
HETATM   11  H   UNL     1      43.837 -20.577   4.709  1.00  0.00     0.166 HD
HETATM   12  C   UNL     1      43.705 -18.762   3.633  1.00  0.00     0.043 A 
HETATM   13  C   UNL     1      43.615 -17.447   4.086  1.00  0.00     0.004 A 
HETATM   14  C   UNL     1      43.723 -19.099   2.273  1.00  0.00     0.030 A 
HETATM   15  C   UNL     1      43.537 -16.414   3.126  1.00  0.00     0.014 A 
HETATM   16  C   UNL     1      43.552 -16.734   1.763  1.00  0.00     0.001 A 
HETATM   17  C   UNL     1      43.644 -18.057   1.345  1.00  0.00     0.002 A 
ENDBRANCH   6   7
ENDBRANCH   1   5
BRANCH   2  18
HETATM   18  C   UNL     1      45.005 -12.429   8.380  1.00  0.00     0.121 A 
HETATM   19  N   UNL     1      45.961 -11.510   8.713  1.00  0.00    -0.272 N 
HETATM   20  H   UNL     1      46.901 -11.448   8.332  1.00  0.00     0.189 HD
HETATM   21  N   UNL     1      45.570 -10.621   9.639  1.00  0.00    -0.174 NA
HETATM   22  C   UNL     1      44.311 -10.978   9.942  1.00  0.00     0.091 A 
HETATM   23  C   UNL     1      43.909 -12.087   9.146  1.00  0.00     0.071 A 
BRANCH  22  24
HETATM   24  C   UNL     1      43.531 -10.226  10.927  1.00  0.00     0.016 A 
HETATM   25  C   UNL     1      42.377  -9.488  10.612  1.00  0.00     0.046 A 
HETATM   26 CL   UNL     1      41.691  -9.426   9.023  1.00  0.00    -0.083 Cl
HETATM   27  C   UNL     1      41.693  -8.781  11.612  1.00  0.00     0.025 A 
HETATM   28  C   UNL     1      42.143  -8.807  12.932  1.00  0.00     0.002 A 
HETATM   29  C   UNL     1      43.275  -9.545  13.261  1.00  0.00     0.001 A 
HETATM   30  C   UNL     1      43.960 -10.248  12.268  1.00  0.00     0.015 A 
ENDBRANCH  22  24
ENDBRANCH   2  18
TORSDOF 4
ENDMDL
MODEL 2
REMARK VINA RESULT:      -9.3      6.728     10.471
REMARK  4 active torsions:
REMARK  status: ('A' for Active; 'I' for Inactive)
REMARK    1  A    between atoms: C_7  and  C_8 
REMARK    2  A    between atoms: N_9  and  N_10 
REMARK       I    between atoms: N_10  and  C_11 
REMARK    3  A    between atoms: C_11  and  C_12 
REMARK    4  A    between atoms: C_16  and  C_17 
ROOT
HETATM    1  N   UNL     1      42.376 -16.840   0.292  1.00  0.00    -0.242 N 
HETATM    2  C   UNL     1      41.358 -15.899   0.245  1.00  0.00     0.289 C 
HETATM    3  O   UNL     1      40.539 -15.716   1.142  1.00  0.00    -0.264 OA
HETATM    4  H   UNL     1      42.990 -16.971  -0.500  1.00  0.00     0.192 HD
ENDROOT
BRANCH   1   5
HETATM    5  N   UNL     1      42.506 -17.653   1.385  1.00  0.00    -0.183 NA
HETATM    6  C   UNL     1      43.649 -17.612   1.989  1.00  0.00     0.153 C 
BRANCH   6   7
HETATM    7  C   UNL     1      43.893 -18.441   3.155  1.00  0.00     0.018 A 
HETATM    8  C   UNL     1      43.925 -18.032   4.482  1.00  0.00     0.018 A 
HETATM    9  C   UNL     1      43.731 -16.692   5.101  1.00  0.00     0.069 C 
HETATM   10  N   UNL     1      44.186 -19.137   5.254  1.00  0.00    -0.358 N 
HETATM   11  H   UNL     1      44.266 -19.134   6.261  1.00  0.00     0.166 HD
HETATM   12  C   UNL     1      44.324 -20.255   4.470  1.00  0.00     0.043 A 
HETATM   13  C   UNL     1      44.145 -19.855   3.146  1.00  0.00     0.004 A 
HETATM   14  C   UNL     1      44.591 -21.581   4.835  1.00  0.00     0.030 A 
HETATM   15  C   UNL     1      44.239 -20.835   2.135  1.00  0.00     0.014 A 
HETATM   16  C   UNL     1      44.504 -22.165   2.482  1.00  0.00     0.001 A 
HETATM   17  C   UNL     1      44.678 -22.530   3.813  1.00  0.00     0.002 A 
ENDBRANCH   6   7
ENDBRANCH   1   5
BRANCH   2  18
HETATM   18  C   UNL     1      41.308 -15.131  -0.975  1.00  0.00     0.121 A 
HETATM   19  N   UNL     1      41.364 -15.741  -2.196  1.00  0.00    -0.272 N 
HETATM   20  H   UNL     1      41.435 -16.740  -2.372  1.00  0.00     0.189 HD
HETATM   21  N   UNL     1      41.316 -14.895  -3.236  1.00  0.00    -0.174 NA
HETATM   22  C   UNL     1      41.242 -13.676  -2.679  1.00  0.00     0.091 A 
HETATM   23  C   UNL     1      41.199 -13.784  -1.261  1.00  0.00     0.071 A 
BRANCH  22  24
HETATM   24  C   UNL     1      41.162 -12.471  -3.509  1.00  0.00     0.016 A 
HETATM   25  C   UNL     1      39.955 -11.907  -3.955  1.00  0.00     0.046 A 
HETATM   26 CL   UNL     1      38.397 -12.531  -3.525  1.00  0.00    -0.083 Cl
HETATM   27  C   UNL     1      39.964 -10.759  -4.761  1.00  0.00     0.025 A 
HETATM   28  C   UNL     1      41.169 -10.157  -5.123  1.00  0.00     0.002 A 
HETATM   29  C   UNL     1      42.371 -10.695  -4.676  1.00  0.00     0.001 A 
HETATM   30  C   UNL     1      42.367 -11.840  -3.876  1.00  0.00     0.015 A 
ENDBRANCH  22  24
ENDBRANCH   2  18
TORSDOF 4
ENDMDL
MODEL 3
REMARK VINA RESULT:      -9.1      8.323     11.356
REMARK  4 active torsions:
REMARK  status: ('A' for Active; 'I' for Inactive)
REMARK    1  A    between atoms: C_7  and  C_8 
REMARK    2  A    between atoms: N_9  and  N_10 
REMARK       I    between atoms: N_10  and  C_11 
REMARK    3  A    between atoms: C_11  and  C_12 
REMARK    4  A    between atoms: C_16  and  C_17 
ROOT
HETATM    1  N   UNL     1      41.635 -15.682  -0.678  1.00  0.00    -0.242 N 
HETATM    2  C   UNL     1      41.420 -16.033   0.647  1.00  0.00     0.289 C 
HETATM    3  O   UNL     1      40.531 -15.565   1.353  1.00  0.00    -0.264 OA
HETATM    4  H   UNL     1      42.414 -16.072  -1.192  1.00  0.00     0.192 HD
ENDROOT
BRANCH   1   5
HETATM    5  N   UNL     1      40.839 -14.744  -1.275  1.00  0.00    -0.183 NA
HETATM    6  C   UNL     1      41.221 -14.336  -2.442  1.00  0.00     0.153 C 
BRANCH   6   7
HETATM    7  C   UNL     1      40.449 -13.337  -3.159  1.00  0.00     0.018 A 
HETATM    8  C   UNL     1      39.073 -13.315  -3.343  1.00  0.00     0.018 A 
HETATM    9  C   UNL     1      38.007 -14.252  -2.892  1.00  0.00     0.069 C 
HETATM   10  N   UNL     1      38.766 -12.196  -4.077  1.00  0.00    -0.358 N 
HETATM   11  H   UNL     1      37.835 -11.926  -4.360  1.00  0.00     0.166 HD
HETATM   12  C   UNL     1      39.903 -11.485  -4.375  1.00  0.00     0.043 A 
HETATM   13  C   UNL     1      40.978 -12.174  -3.813  1.00  0.00     0.004 A 
HETATM   14  C   UNL     1      40.055 -10.293  -5.095  1.00  0.00     0.030 A 
HETATM   15  C   UNL     1      42.274 -11.638  -3.982  1.00  0.00     0.014 A 
HETATM   16  C   UNL     1      42.443 -10.448  -4.698  1.00  0.00     0.001 A 
HETATM   17  C   UNL     1      41.348  -9.787  -5.246  1.00  0.00     0.002 A 
ENDBRANCH   6   7
ENDBRANCH   1   5
BRANCH   2  18
HETATM   18  C   UNL     1      42.349 -17.005   1.168  1.00  0.00     0.121 A 
HETATM   19  N   UNL     1      43.694 -16.882   0.954  1.00  0.00    -0.272 N 
HETATM   20  H   UNL     1      44.160 -16.137   0.443  1.00  0.00     0.189 HD
HETATM   21  N   UNL     1      44.429 -17.867   1.492  1.00  0.00    -0.174 NA
HETATM   22  C   UNL     1      43.532 -18.682   2.071  1.00  0.00     0.091 A 
HETATM   23  C   UNL     1      42.219 -18.156   1.918  1.00  0.00     0.071 A 
BRANCH  22  24
HETATM   24  C   UNL     1      43.960 -19.889   2.783  1.00  0.00     0.016 A 
HETATM   25  C   UNL     1      44.378 -19.898   4.124  1.00  0.00     0.046 A 
HETATM   26 CL   UNL     1      44.379 -18.489   5.131  1.00  0.00    -0.083 Cl
HETATM   27  C   UNL     1      44.787 -21.094   4.731  1.00  0.00     0.025 A 
HETATM   28  C   UNL     1      44.777 -22.291   4.015  1.00  0.00     0.002 A 
HETATM   29  C   UNL     1      44.352 -22.300   2.691  1.00  0.00     0.001 A 
HETATM   30  C   UNL     1      43.946 -21.111   2.082  1.00  0.00     0.015 A 
ENDBRANCH  22  24
ENDBRANCH   2  18
TORSDOF 4
ENDMDL
MODEL 4
REMARK VINA RESULT:      -9.1      0.969      2.196
REMARK  4 active torsions:
REMARK  status: ('A' for Active; 'I' for Inactive)
REMARK    1  A    between atoms: C_7  and  C_8 
REMARK    2  A    between atoms: N_9  and  N_10 
REMARK       I    between atoms: N_10  and  C_11 
REMARK    3  A    between atoms: C_11  and  C_12 
REMARK    4  A    between atoms: C_16  and  C_17 
ROOT
HETATM    1  N   UNL     1      44.214 -14.355   7.459  1.00  0.00    -0.242 N 
HETATM    2  C   UNL     1      45.142 -13.324   7.472  1.00  0.00     0.289 C 
HETATM    3  O   UNL     1      46.102 -13.246   6.710  1.00  0.00    -0.264 OA
HETATM    4  H   UNL     1      43.469 -14.383   8.143  1.00  0.00     0.192 HD
ENDROOT
BRANCH   1   5
HETATM    5  N   UNL     1      44.345 -15.383   6.567  1.00  0.00    -0.183 NA
HETATM    6  C   UNL     1      43.482 -15.412   5.604  1.00  0.00     0.153 C 
BRANCH   6   7
HETATM    7  C   UNL     1      43.530 -16.467   4.607  1.00  0.00     0.018 A 
HETATM    8  C   UNL     1      43.232 -16.357   3.255  1.00  0.00     0.018 A 
HETATM    9  C   UNL     1      42.794 -15.191   2.439  1.00  0.00     0.069 C 
HETATM   10  N   UNL     1      43.409 -17.593   2.686  1.00  0.00    -0.358 N 
HETATM   11  H   UNL     1      43.263 -17.807   1.709  1.00  0.00     0.166 HD
HETATM   12  C   UNL     1      43.816 -18.507   3.626  1.00  0.00     0.043 A 
HETATM   13  C   UNL     1      43.902 -17.833   4.844  1.00  0.00     0.004 A 
HETATM   14  C   UNL     1      44.110 -19.869   3.487  1.00  0.00     0.030 A 
HETATM   15  C   UNL     1      44.306 -18.564   5.983  1.00  0.00     0.014 A 
HETATM   16  C   UNL     1      44.605 -19.926   5.861  1.00  0.00     0.001 A 
HETATM   17  C   UNL     1      44.508 -20.567   4.630  1.00  0.00     0.002 A 
ENDBRANCH   6   7
ENDBRANCH   1   5
BRANCH   2  18
HETATM   18  C   UNL     1      44.910 -12.321   8.482  1.00  0.00     0.121 A 
HETATM   19  N   UNL     1      45.899 -11.455   8.856  1.00  0.00    -0.272 N 
HETATM   20  H   UNL     1      46.845 -11.418   8.485  1.00  0.00     0.189 HD
HETATM   21  N   UNL     1      45.536 -10.586   9.811  1.00  0.00    -0.174 NA
HETATM   22  C   UNL     1      44.262 -10.901  10.091  1.00  0.00     0.091 A 
HETATM   23  C   UNL     1      43.822 -11.963   9.252  1.00  0.00     0.071 A 
BRANCH  22  24
HETATM   24  C   UNL     1      43.503 -10.154  11.098  1.00  0.00     0.016 A 
HETATM   25  C   UNL     1      42.358  -9.395  10.809  1.00  0.00     0.046 A 
HETATM   26 CL   UNL     1      41.654  -9.296   9.229  1.00  0.00    -0.083 Cl
HETATM   27  C   UNL     1      41.695  -8.694  11.828  1.00  0.00     0.025 A 
HETATM   28  C   UNL     1      42.160  -8.750  13.142  1.00  0.00     0.002 A 
HETATM   29  C   UNL     1      43.284  -9.510  13.446  1.00  0.00     0.001 A 
HETATM   30  C   UNL     1      43.948 -10.206  12.434  1.00  0.00     0.015 A 
ENDBRANCH  22  24
ENDBRANCH   2  18
TORSDOF 4
ENDMDL
MODEL 5
REMARK VINA RESULT:      -9.0      6.726     10.902
REMARK  4 active torsions:
REMARK  status: ('A' for Active; 'I' for Inactive)
REMARK    1  A    between atoms: C_7  and  C_8 
REMARK    2  A    between atoms: N_9  and  N_10 
REMARK       I    between atoms: N_10  and  C_11 
REMARK    3  A    between atoms: C_11  and  C_12 
REMARK    4  A    between atoms: C_16  and  C_17 
ROOT
HETATM    1  N   UNL     1      42.249 -16.541  -0.143  1.00  0.00    -0.242 N 
HETATM    2  C   UNL     1      41.728 -15.256  -0.099  1.00  0.00     0.289 C 
HETATM    3  O   UNL     1      41.922 -14.460   0.816  1.00  0.00    -0.264 OA
HETATM    4  H   UNL     1      42.015 -17.163  -0.905  1.00  0.00     0.192 HD
ENDROOT
BRANCH   1   5
HETATM    5  N   UNL     1      43.024 -17.001   0.885  1.00  0.00    -0.183 NA
HETATM    6  C   UNL     1      42.464 -17.856   1.678  1.00  0.00     0.153 C 
BRANCH   6   7
HETATM    7  C   UNL     1      43.198 -18.401   2.806  1.00  0.00     0.018 A 
HETATM    8  C   UNL     1      43.538 -17.745   3.981  1.00  0.00     0.018 A 
HETATM    9  C   UNL     1      43.274 -16.352   4.439  1.00  0.00     0.069 C 
HETATM   10  N   UNL     1      44.227 -18.630   4.771  1.00  0.00    -0.358 N 
HETATM   11  H   UNL     1      44.598 -18.422   5.688  1.00  0.00     0.166 HD
HETATM   12  C   UNL     1      44.346 -19.848   4.147  1.00  0.00     0.043 A 
HETATM   13  C   UNL     1      43.710 -19.739   2.910  1.00  0.00     0.004 A 
HETATM   14  C   UNL     1      44.965 -21.026   4.584  1.00  0.00     0.030 A 
HETATM   15  C   UNL     1      43.694 -20.872   2.068  1.00  0.00     0.014 A 
HETATM   16  C   UNL     1      44.306 -22.057   2.489  1.00  0.00     0.001 A 
HETATM   17  C   UNL     1      44.932 -22.131   3.729  1.00  0.00     0.002 A 
ENDBRANCH   6   7
ENDBRANCH   1   5
BRANCH   2  18
HETATM   18  C   UNL     1      40.900 -14.906  -1.226  1.00  0.00     0.121 A 
HETATM   19  N   UNL     1      41.313 -15.145  -2.507  1.00  0.00    -0.272 N 
HETATM   20  H   UNL     1      42.189 -15.576  -2.790  1.00  0.00     0.189 HD
HETATM   21  N   UNL     1      40.440 -14.757  -3.448  1.00  0.00    -0.174 NA
HETATM   22  C   UNL     1      39.416 -14.224  -2.763  1.00  0.00     0.091 A 
HETATM   23  C   UNL     1      39.652 -14.331  -1.363  1.00  0.00     0.071 A 
BRANCH  22  24
HETATM   24  C   UNL     1      38.242 -13.688  -3.456  1.00  0.00     0.016 A 
HETATM   25  C   UNL     1      37.998 -12.316  -3.633  1.00  0.00     0.046 A 
HETATM   26 CL   UNL     1      39.091 -11.079  -3.109  1.00  0.00    -0.083 Cl
HETATM   27  C   UNL     1      36.841 -11.881  -4.296  1.00  0.00     0.025 A 
HETATM   28  C   UNL     1      35.922 -12.804  -4.795  1.00  0.00     0.002 A 
HETATM   29  C   UNL     1      36.157 -14.166  -4.640  1.00  0.00     0.001 A 
HETATM   30  C   UNL     1      37.307 -14.603  -3.978  1.00  0.00     0.015 A 
ENDBRANCH  22  24
ENDBRANCH   2  18
TORSDOF 4
ENDMDL
MODEL 6
REMARK VINA RESULT:      -9.0      6.946     10.536
REMARK  4 active torsions:
REMARK  status: ('A' for Active; 'I' for Inactive)
REMARK    1  A    between atoms: C_7  and  C_8 
REMARK    2  A    between atoms: N_9  and  N_10 
REMARK       I    between atoms: N_10  and  C_11 
REMARK    3  A    between atoms: C_11  and  C_12 
REMARK    4  A    between atoms: C_16  and  C_17 
ROOT
HETATM    1  N   UNL     1      42.390 -16.841   0.256  1.00  0.00    -0.242 N 
HETATM    2  C   UNL     1      41.361 -15.913   0.193  1.00  0.00     0.289 C 
HETATM    3  O   UNL     1      40.526 -15.742   1.078  1.00  0.00    -0.264 OA
HETATM    4  H   UNL     1      43.018 -16.963  -0.527  1.00  0.00     0.192 HD
ENDROOT
BRANCH   1   5
HETATM    5  N   UNL     1      42.515 -17.652   1.350  1.00  0.00    -0.183 NA
HETATM    6  C   UNL     1      43.698 -18.124   1.573  1.00  0.00     0.153 C 
BRANCH   6   7
HETATM    7  C   UNL     1      43.937 -19.001   2.705  1.00  0.00     0.018 A 
HETATM    8  C   UNL     1      44.123 -20.377   2.676  1.00  0.00     0.018 A 
HETATM    9  C   UNL     1      44.138 -21.341   1.541  1.00  0.00     0.069 C 
HETATM   10  N   UNL     1      44.316 -20.801   3.967  1.00  0.00    -0.358 N 
HETATM   11  H   UNL     1      44.476 -21.760   4.243  1.00  0.00     0.166 HD
HETATM   12  C   UNL     1      44.263 -19.742   4.839  1.00  0.00     0.043 A 
HETATM   13  C   UNL     1      44.027 -18.596   4.080  1.00  0.00     0.004 A 
HETATM   14  C   UNL     1      44.406 -19.717   6.232  1.00  0.00     0.030 A 
HETATM   15  C   UNL     1      43.929 -17.359   4.754  1.00  0.00     0.014 A 
HETATM   16  C   UNL     1      44.071 -17.316   6.146  1.00  0.00     0.001 A 
HETATM   17  C   UNL     1      44.305 -18.479   6.872  1.00  0.00     0.002 A 
ENDBRANCH   6   7
ENDBRANCH   1   5
BRANCH   2  18
HETATM   18  C   UNL     1      41.318 -15.146  -1.027  1.00  0.00     0.121 A 
HETATM   19  N   UNL     1      41.371 -15.757  -2.248  1.00  0.00    -0.272 N 
HETATM   20  H   UNL     1      41.435 -16.756  -2.423  1.00  0.00     0.189 HD
HETATM   21  N   UNL     1      41.331 -14.912  -3.289  1.00  0.00    -0.174 NA
HETATM   22  C   UNL     1      41.266 -13.691  -2.733  1.00  0.00     0.091 A 
HETATM   23  C   UNL     1      41.221 -13.799  -1.314  1.00  0.00     0.071 A 
BRANCH  22  24
HETATM   24  C   UNL     1      41.197 -12.487  -3.563  1.00  0.00     0.016 A 
HETATM   25  C   UNL     1      39.995 -11.905  -4.000  1.00  0.00     0.046 A 
HETATM   26 CL   UNL     1      38.431 -12.505  -3.556  1.00  0.00    -0.083 Cl
HETATM   27  C   UNL     1      40.013 -10.759  -4.807  1.00  0.00     0.025 A 
HETATM   28  C   UNL     1      41.224 -10.175  -5.180  1.00  0.00     0.002 A 
HETATM   29  C   UNL     1      42.422 -10.730  -4.743  1.00  0.00     0.001 A 
HETATM   30  C   UNL     1      42.408 -11.873  -3.942  1.00  0.00     0.015 A 
ENDBRANCH  22  24
ENDBRANCH   2  18
TORSDOF 4
ENDMDL
MODEL 7
REMARK VINA RESULT:      -8.8      6.453     10.871
REMARK  4 active torsions:
REMARK  status: ('A' for Active; 'I' for Inactive)
REMARK    1  A    between atoms: C_7  and  C_8 
REMARK    2  A    between atoms: N_9  and  N_10 
REMARK       I    between atoms: N_10  and  C_11 
REMARK    3  A    between atoms: C_11  and  C_12 
REMARK    4  A    between atoms: C_16  and  C_17 
ROOT
HETATM    1  N   UNL     1      42.232 -16.641   0.004  1.00  0.00    -0.242 N 
HETATM    2  C   UNL     1      41.767 -15.335  -0.030  1.00  0.00     0.289 C 
HETATM    3  O   UNL     1      42.019 -14.486   0.821  1.00  0.00    -0.264 OA
HETATM    4  H   UNL     1      41.950 -17.304  -0.706  1.00  0.00     0.192 HD
ENDROOT
BRANCH   1   5
HETATM    5  N   UNL     1      43.013 -17.062   1.044  1.00  0.00    -0.183 NA
HETATM    6  C   UNL     1      42.583 -18.094   1.696  1.00  0.00     0.153 C 
BRANCH   6   7
HETATM    7  C   UNL     1      43.335 -18.617   2.821  1.00  0.00     0.018 A 
HETATM    8  C   UNL     1      43.923 -19.871   2.926  1.00  0.00     0.018 A 
HETATM    9  C   UNL     1      43.970 -21.016   1.975  1.00  0.00     0.069 C 
HETATM   10  N   UNL     1      44.531 -19.947   4.154  1.00  0.00    -0.358 N 
HETATM   11  H   UNL     1      45.039 -20.749   4.501  1.00  0.00     0.166 HD
HETATM   12  C   UNL     1      44.359 -18.778   4.854  1.00  0.00     0.043 A 
HETATM   13  C   UNL     1      43.613 -17.921   4.046  1.00  0.00     0.004 A 
HETATM   14  C   UNL     1      44.807 -18.421   6.133  1.00  0.00     0.030 A 
HETATM   15  C   UNL     1      43.299 -16.638   4.546  1.00  0.00     0.014 A 
HETATM   16  C   UNL     1      43.739 -16.265   5.821  1.00  0.00     0.001 A 
HETATM   17  C   UNL     1      44.482 -17.146   6.601  1.00  0.00     0.002 A 
ENDBRANCH   6   7
ENDBRANCH   1   5
BRANCH   2  18
HETATM   18  C   UNL     1      40.925 -15.027  -1.160  1.00  0.00     0.121 A 
HETATM   19  N   UNL     1      41.302 -15.356  -2.432  1.00  0.00    -0.272 N 
HETATM   20  H   UNL     1      42.159 -15.830  -2.706  1.00  0.00     0.189 HD
HETATM   21  N   UNL     1      40.420 -14.999  -3.377  1.00  0.00    -0.174 NA
HETATM   22  C   UNL     1      39.428 -14.394  -2.704  1.00  0.00     0.091 A 
HETATM   23  C   UNL     1      39.692 -14.423  -1.306  1.00  0.00     0.071 A 
BRANCH  22  24
HETATM   24  C   UNL     1      38.255 -13.864  -3.404  1.00  0.00     0.016 A 
HETATM   25  C   UNL     1      38.001 -12.493  -3.578  1.00  0.00     0.046 A 
HETATM   26 CL   UNL     1      39.081 -11.250  -3.040  1.00  0.00    -0.083 Cl
HETATM   27  C   UNL     1      36.846 -12.065  -4.248  1.00  0.00     0.025 A 
HETATM   28  C   UNL     1      35.939 -12.994  -4.758  1.00  0.00     0.002 A 
HETATM   29  C   UNL     1      36.184 -14.354  -4.607  1.00  0.00     0.001 A 
HETATM   30  C   UNL     1      37.332 -14.784  -3.938  1.00  0.00     0.015 A 
ENDBRANCH  22  24
ENDBRANCH   2  18
TORSDOF 4
ENDMDL
MODEL 8
REMARK VINA RESULT:      -8.3      6.646      9.051
REMARK  4 active torsions:
REMARK  status: ('A' for Active; 'I' for Inactive)
REMARK    1  A    between atoms: C_7  and  C_8 
REMARK    2  A    between atoms: N_9  and  N_10 
REMARK       I    between atoms: N_10  and  C_11 
REMARK    3  A    between atoms: C_11  and  C_12 
REMARK    4  A    between atoms: C_16  and  C_17 
ROOT
HETATM    1  N   UNL     1      41.554 -16.012   2.252  1.00  0.00    -0.242 N 
HETATM    2  C   UNL     1      41.444 -16.038   0.870  1.00  0.00     0.289 C 
HETATM    3  O   UNL     1      41.699 -17.016   0.172  1.00  0.00    -0.264 OA
HETATM    4  H   UNL     1      41.371 -15.160   2.765  1.00  0.00     0.192 HD
ENDROOT
BRANCH   1   5
HETATM    5  N   UNL     1      41.987 -17.121   2.925  1.00  0.00    -0.183 NA
HETATM    6  C   UNL     1      43.252 -17.163   3.194  1.00  0.00     0.153 C 
BRANCH   6   7
HETATM    7  C   UNL     1      43.815 -18.300   3.900  1.00  0.00     0.018 A 
HETATM    8  C   UNL     1      44.299 -18.323   5.201  1.00  0.00     0.018 A 
HETATM    9  C   UNL     1      44.393 -17.252   6.232  1.00  0.00     0.069 C 
HETATM   10  N   UNL     1      44.735 -19.597   5.464  1.00  0.00    -0.358 N 
HETATM   11  H   UNL     1      45.138 -19.903   6.338  1.00  0.00     0.166 HD
HETATM   12  C   UNL     1      44.547 -20.409   4.372  1.00  0.00     0.043 A 
HETATM   13  C   UNL     1      43.971 -19.626   3.372  1.00  0.00     0.004 A 
HETATM   14  C   UNL     1      44.844 -21.767   4.200  1.00  0.00     0.030 A 
HETATM   15  C   UNL     1      43.675 -20.238   2.134  1.00  0.00     0.014 A 
HETATM   16  C   UNL     1      43.964 -21.595   1.946  1.00  0.00     0.001 A 
HETATM   17  C   UNL     1      44.541 -22.346   2.965  1.00  0.00     0.002 A 
ENDBRANCH   6   7
ENDBRANCH   1   5
BRANCH   2  18
HETATM   18  C   UNL     1      41.011 -14.796   0.279  1.00  0.00     0.121 A 
HETATM   19  N   UNL     1      39.693 -14.568   0.000  1.00  0.00    -0.272 N 
HETATM   20  H   UNL     1      38.919 -15.204   0.174  1.00  0.00     0.189 HD
HETATM   21  N   UNL     1      39.447 -13.372  -0.554  1.00  0.00    -0.174 NA
HETATM   22  C   UNL     1      40.653 -12.793  -0.663  1.00  0.00     0.091 A 
HETATM   23  C   UNL     1      41.657 -13.642  -0.118  1.00  0.00     0.071 A 
BRANCH  22  24
HETATM   24  C   UNL     1      40.796 -11.448  -1.226  1.00  0.00     0.016 A 
HETATM   25  C   UNL     1      41.582 -11.152  -2.352  1.00  0.00     0.046 A 
HETATM   26 CL   UNL     1      42.434 -12.355  -3.262  1.00  0.00    -0.083 Cl
HETATM   27  C   UNL     1      41.680  -9.834  -2.822  1.00  0.00     0.025 A 
HETATM   28  C   UNL     1      40.993  -8.802  -2.183  1.00  0.00     0.002 A 
HETATM   29  C   UNL     1      40.199  -9.082  -1.076  1.00  0.00     0.001 A 
HETATM   30  C   UNL     1      40.101 -10.393  -0.604  1.00  0.00     0.015 A 
ENDBRANCH  22  24
ENDBRANCH   2  18
TORSDOF 4
ENDMDL
MODEL 9
REMARK VINA RESULT:      -8.3      2.934      3.662
REMARK  4 active torsions:
REMARK  status: ('A' for Active; 'I' for Inactive)
REMARK    1  A    between atoms: C_7  and  C_8 
REMARK    2  A    between atoms: N_9  and  N_10 
REMARK       I    between atoms: N_10  and  C_11 
REMARK    3  A    between atoms: C_11  and  C_12 
REMARK    4  A    between atoms: C_16  and  C_17 
ROOT
HETATM    1  N   UNL     1      41.380 -13.608   5.898  1.00  0.00    -0.242 N 
HETATM    2  C   UNL     1      41.446 -12.224   5.836  1.00  0.00     0.289 C 
HETATM    3  O   UNL     1      41.632 -11.584   4.805  1.00  0.00    -0.264 OA
HETATM    4  H   UNL     1      41.268 -14.077   6.787  1.00  0.00     0.192 HD
ENDROOT
BRANCH   1   5
HETATM    5  N   UNL     1      41.544 -14.353   4.763  1.00  0.00    -0.183 NA
HETATM    6  C   UNL     1      41.386 -15.630   4.895  1.00  0.00     0.153 C 
BRANCH   6   7
HETATM    7  C   UNL     1      41.544 -16.511   3.752  1.00  0.00     0.018 A 
HETATM    8  C   UNL     1      40.827 -16.479   2.563  1.00  0.00     0.018 A 
HETATM    9  C   UNL     1      39.728 -15.584   2.104  1.00  0.00     0.069 C 
HETATM   10  N   UNL     1      41.300 -17.486   1.760  1.00  0.00    -0.358 N 
HETATM   11  H   UNL     1      40.960 -17.697   0.833  1.00  0.00     0.166 HD
HETATM   12  C   UNL     1      42.308 -18.174   2.390  1.00  0.00     0.043 A 
HETATM   13  C   UNL     1      42.488 -17.588   3.642  1.00  0.00     0.004 A 
HETATM   14  C   UNL     1      43.067 -19.264   1.943  1.00  0.00     0.030 A 
HETATM   15  C   UNL     1      43.481 -18.121   4.492  1.00  0.00     0.014 A 
HETATM   16  C   UNL     1      44.249 -19.209   4.062  1.00  0.00     0.001 A 
HETATM   17  C   UNL     1      44.043 -19.771   2.806  1.00  0.00     0.002 A 
ENDBRANCH   6   7
ENDBRANCH   1   5
BRANCH   2  18
HETATM   18  C   UNL     1      41.292 -11.559   7.106  1.00  0.00     0.121 A 
HETATM   19  N   UNL     1      40.101 -11.580   7.775  1.00  0.00    -0.272 N 
HETATM   20  H   UNL     1      39.246 -12.043   7.476  1.00  0.00     0.189 HD
HETATM   21  N   UNL     1      40.111 -10.911   8.938  1.00  0.00    -0.174 NA
HETATM   22  C   UNL     1      41.354 -10.413   9.033  1.00  0.00     0.091 A 
HETATM   23  C   UNL     1      42.136 -10.828   7.918  1.00  0.00     0.071 A 
BRANCH  22  24
HETATM   24  C   UNL     1      41.760  -9.615  10.192  1.00  0.00     0.016 A 
HETATM   25  C   UNL     1      42.680 -10.054  11.159  1.00  0.00     0.046 A 
HETATM   26 CL   UNL     1      43.504 -11.575  11.069  1.00  0.00    -0.083 Cl
HETATM   27  C   UNL     1      43.006  -9.235  12.251  1.00  0.00     0.025 A 
HETATM   28  C   UNL     1      42.429  -7.973  12.386  1.00  0.00     0.002 A 
HETATM   29  C   UNL     1      41.528  -7.519  11.429  1.00  0.00     0.001 A 
HETATM   30  C   UNL     1      41.199  -8.332  10.342  1.00  0.00     0.015 A 
ENDBRANCH  22  24
ENDBRANCH   2  18
TORSDOF 4
ENDMDL
MODEL 10
REMARK VINA RESULT:      -8.2      2.992     10.504
REMARK  4 active torsions:
REMARK  status: ('A' for Active; 'I' for Inactive)
REMARK    1  A    between atoms: C_7  and  C_8 
REMARK    2  A    between atoms: N_9  and  N_10 
REMARK       I    between atoms: N_10  and  C_11 
REMARK    3  A    between atoms: C_11  and  C_12 
REMARK    4  A    between atoms: C_16  and  C_17 
ROOT
HETATM    1  N   UNL     1      42.828 -11.895   7.484  1.00  0.00    -0.242 N 
HETATM    2  C   UNL     1      42.123 -12.260   6.347  1.00  0.00     0.289 C 
HETATM    3  O   UNL     1      41.232 -11.587   5.836  1.00  0.00    -0.264 OA
HETATM    4  H   UNL     1      43.521 -12.517   7.880  1.00  0.00     0.192 HD
ENDROOT
BRANCH   1   5
HETATM    5  N   UNL     1      42.534 -10.723   8.124  1.00  0.00    -0.183 NA
HETATM    6  C   UNL     1      42.181 -10.827   9.365  1.00  0.00     0.153 C 
BRANCH   6   7
HETATM    7  C   UNL     1      41.842  -9.643  10.133  1.00  0.00     0.018 A 
HETATM    8  C   UNL     1      41.028  -8.591   9.735  1.00  0.00     0.018 A 
HETATM    9  C   UNL     1      40.284  -8.350   8.467  1.00  0.00     0.069 C 
HETATM   10  N   UNL     1      40.979  -7.686  10.766  1.00  0.00    -0.358 N 
HETATM   11  H   UNL     1      40.458  -6.820  10.753  1.00  0.00     0.166 HD
HETATM   12  C   UNL     1      41.736  -8.118  11.827  1.00  0.00     0.043 A 
HETATM   13  C   UNL     1      42.291  -9.345  11.464  1.00  0.00     0.004 A 
HETATM   14  C   UNL     1      41.966  -7.517  13.071  1.00  0.00     0.030 A 
HETATM   15  C   UNL     1      43.121 -10.003  12.397  1.00  0.00     0.014 A 
HETATM   16  C   UNL     1      43.361  -9.417  13.645  1.00  0.00     0.001 A 
HETATM   17  C   UNL     1      42.791  -8.192  13.975  1.00  0.00     0.002 A 
ENDBRANCH   6   7
ENDBRANCH   1   5
BRANCH   2  18
HETATM   18  C   UNL     1      42.505 -13.534   5.788  1.00  0.00     0.121 A 
HETATM   19  N   UNL     1      43.209 -14.446   6.524  1.00  0.00    -0.272 N 
HETATM   20  H   UNL     1      43.516 -14.339   7.487  1.00  0.00     0.189 HD
HETATM   21  N   UNL     1      43.497 -15.579   5.867  1.00  0.00    -0.174 NA
HETATM   22  C   UNL     1      42.978 -15.402   4.641  1.00  0.00     0.091 A 
HETATM   23  C   UNL     1      42.317 -14.144   4.564  1.00  0.00     0.071 A 
BRANCH  22  24
HETATM   24  C   UNL     1      43.085 -16.446   3.619  1.00  0.00     0.016 A 
HETATM   25  C   UNL     1      42.461 -17.701   3.715  1.00  0.00     0.046 A 
HETATM   26 CL   UNL     1      41.428 -18.152   5.030  1.00  0.00    -0.083 Cl
HETATM   27  C   UNL     1      42.625 -18.654   2.700  1.00  0.00     0.025 A 
HETATM   28  C   UNL     1      43.402 -18.366   1.577  1.00  0.00     0.002 A 
HETATM   29  C   UNL     1      44.013 -17.123   1.461  1.00  0.00     0.001 A 
HETATM   30  C   UNL     1      43.855 -16.172   2.472  1.00  0.00     0.015 A 
ENDBRANCH  22  24
ENDBRANCH   2  18
TORSDOF 4
ENDMDL
