MODEL 1
REMARK VINA RESULT:     -10.2      0.000      0.000
REMARK  9 active torsions:
REMARK  status: ('A' for Active; 'I' for Inactive)
REMARK    1  A    between atoms: O_2  and  C_3 
REMARK    2  A    between atoms: C_6  and  C_7 
REMARK    3  A    between atoms: C_7  and  C_8 
REMARK    4  A    between atoms: C_8  and  N_9 
REMARK       I    between atoms: N_9  and  C_10 
REMARK    5  A    between atoms: C_10  and  C_11 
REMARK    6  A    between atoms: C_12  and  N_13 
REMARK    7  A    between atoms: N_14  and  C_15 
REMARK    8  A    between atoms: C_18  and  S_19 
REMARK    9  A    between atoms: S_19  and  N_20 
ROOT
HETATM    1  C   UNL     1      42.712 -15.876   5.984  1.00  0.00     0.103 C 
HETATM    2  C   UNL     1      41.491 -15.363   5.556  1.00  0.00     0.105 C 
HETATM    3  N   UNL     1      41.398 -15.640   4.185  1.00  0.00    -0.284 N 
HETATM    4  C   UNL     1      42.123 -16.812   3.998  1.00  0.00     0.166 A 
HETATM    5  C   UNL     1      43.014 -16.912   5.067  1.00  0.00     0.123 A 
HETATM    6  N   UNL     1      43.962 -17.881   5.105  1.00  0.00    -0.242 NA
HETATM    7  C   UNL     1      43.907 -18.769   4.104  1.00  0.00     0.086 A 
HETATM    8  C   UNL     1      42.965 -18.678   3.049  1.00  0.00     0.088 A 
HETATM    9  N   UNL     1      42.069 -17.679   2.959  1.00  0.00    -0.226 NA
HETATM   10  C   UNL     1      44.802 -19.833   4.116  1.00  0.00     0.034 A 
HETATM   11  C   UNL     1      44.785 -20.814   3.123  1.00  0.00     0.002 A 
HETATM   12  C   UNL     1      43.858 -20.728   2.094  1.00  0.00     0.002 A 
HETATM   13  C   UNL     1      42.961 -19.659   2.065  1.00  0.00     0.034 A 
ENDROOT
BRANCH   3  14
HETATM   14  C   UNL     1      40.803 -14.803   3.171  1.00  0.00     0.042 A 
HETATM   15  C   UNL     1      39.566 -15.132   2.592  1.00  0.00     0.031 A 
HETATM   16  C   UNL     1      39.073 -14.418   1.492  1.00  0.00     0.027 A 
HETATM   17  C   UNL     1      39.809 -13.354   0.971  1.00  0.00     0.074 A 
HETATM   18  C   UNL     1      41.023 -12.992   1.542  1.00  0.00     0.027 A 
HETATM   19  C   UNL     1      41.523 -13.724   2.622  1.00  0.00     0.031 A 
BRANCH  17  20
HETATM   20  S   UNL     1      39.230 -12.491  -0.465  1.00  0.00     0.243 S 
HETATM   21  O   UNL     1      37.807 -12.274  -0.316  1.00  0.00    -0.206 OA
HETATM   22  O   UNL     1      40.136 -11.386  -0.692  1.00  0.00    -0.206 OA
BRANCH  20  23
HETATM   23  N   UNL     1      39.445 -13.617  -1.722  1.00  0.00    -0.202 NA
HETATM   24  C   UNL     1      39.133 -13.161  -3.114  1.00  0.00     0.134 C 
HETATM   25  C   UNL     1      40.303 -12.405  -3.755  1.00  0.00     0.183 C 
HETATM   26  O   UNL     1      41.512 -13.174  -3.713  1.00  0.00    -0.389 OA
HETATM   27  C   UNL     1      41.863 -13.484  -2.357  1.00  0.00     0.183 C 
HETATM   28  C   UNL     1      40.766 -14.324  -1.694  1.00  0.00     0.134 C 
ENDBRANCH  20  23
ENDBRANCH  17  20
ENDBRANCH   3  14
BRANCH   2  29
HETATM   29  N   UNL     1      40.559 -14.665   6.267  1.00  0.00    -0.287 NA
HETATM   30  H   UNL     1      39.892 -14.101   5.736  1.00  0.00     0.125 HD
HETATM   31  H   UNL     1      40.885 -14.130   7.075  1.00  0.00     0.125 HD
ENDBRANCH   2  29
BRANCH   1  32
HETATM   32  C   UNL     1      43.460 -15.460   7.162  1.00  0.00     0.257 C 
HETATM   33  N   UNL     1      43.811 -14.121   7.136  1.00  0.00    -0.356 N 
HETATM   34  H   UNL     1      43.591 -13.620   6.281  1.00  0.00     0.162 HD
HETATM   35  O   UNL     1      43.838 -16.226   8.040  1.00  0.00    -0.267 OA
BRANCH  33  36
HETATM   36  C   UNL     1      44.926 -13.610   7.908  1.00  0.00     0.127 C 
BRANCH  36  37
HETATM   37  C   UNL     1      44.788 -12.114   8.227  1.00  0.00     0.058 C 
BRANCH  37  38
HETATM   38  C   UNL     1      44.048 -11.834   9.518  1.00  0.00    -0.057 A 
HETATM   39  C   UNL     1      44.460 -12.415  10.724  1.00  0.00     0.010 A 
HETATM   40  C   UNL     1      43.781 -12.137  11.919  1.00  0.00     0.037 A 
HETATM   41  C   UNL     1      42.684 -11.276  11.919  1.00  0.00     0.068 A 
HETATM   42  C   UNL     1      42.250 -10.723  10.715  1.00  0.00     0.037 A 
HETATM   43  C   UNL     1      42.930 -10.991   9.523  1.00  0.00     0.010 A 
BRANCH  41  44
HETATM   44  O   UNL     1      41.950 -10.918  13.017  1.00  0.00    -0.356 OA
HETATM   45  C   UNL     1      40.589 -11.332  13.028  1.00  0.00     0.210 C 
ENDBRANCH  41  44
ENDBRANCH  37  38
ENDBRANCH  36  37
ENDBRANCH  33  36
ENDBRANCH   1  32
TORSDOF 9
ENDMDL
MODEL 2
REMARK VINA RESULT:     -10.0      1.726      2.441
REMARK  9 active torsions:
REMARK  status: ('A' for Active; 'I' for Inactive)
REMARK    1  A    between atoms: O_2  and  C_3 
REMARK    2  A    between atoms: C_6  and  C_7 
REMARK    3  A    between atoms: C_7  and  C_8 
REMARK    4  A    between atoms: C_8  and  N_9 
REMARK       I    between atoms: N_9  and  C_10 
REMARK    5  A    between atoms: C_10  and  C_11 
REMARK    6  A    between atoms: C_12  and  N_13 
REMARK    7  A    between atoms: N_14  and  C_15 
REMARK    8  A    between atoms: C_18  and  S_19 
REMARK    9  A    between atoms: S_19  and  N_20 
ROOT
HETATM    1  C   UNL     1      42.058 -15.555   4.430  1.00  0.00     0.103 C 
HETATM    2  C   UNL     1      40.927 -15.334   3.650  1.00  0.00     0.105 C 
HETATM    3  N   UNL     1      41.141 -16.004   2.436  1.00  0.00    -0.284 N 
HETATM    4  C   UNL     1      41.955 -17.087   2.754  1.00  0.00     0.166 A 
HETATM    5  C   UNL     1      42.605 -16.768   3.947  1.00  0.00     0.123 A 
HETATM    6  N   UNL     1      43.577 -17.567   4.453  1.00  0.00    -0.242 NA
HETATM    7  C   UNL     1      43.784 -18.707   3.780  1.00  0.00     0.086 A 
HETATM    8  C   UNL     1      43.082 -19.035   2.594  1.00  0.00     0.088 A 
HETATM    9  N   UNL     1      42.169 -18.217   2.040  1.00  0.00    -0.226 NA
HETATM   10  C   UNL     1      44.715 -19.609   4.282  1.00  0.00     0.034 A 
HETATM   11  C   UNL     1      44.963 -20.829   3.652  1.00  0.00     0.002 A 
HETATM   12  C   UNL     1      44.270 -21.153   2.494  1.00  0.00     0.002 A 
HETATM   13  C   UNL     1      43.340 -20.251   1.975  1.00  0.00     0.034 A 
ENDROOT
BRANCH   3  14
HETATM   14  C   UNL     1      40.727 -15.571   1.124  1.00  0.00     0.042 A 
HETATM   15  C   UNL     1      41.485 -15.885  -0.017  1.00  0.00     0.031 A 
HETATM   16  C   UNL     1      41.178 -15.322  -1.263  1.00  0.00     0.027 A 
HETATM   17  C   UNL     1      40.096 -14.450  -1.381  1.00  0.00     0.074 A 
HETATM   18  C   UNL     1      39.315 -14.143  -0.272  1.00  0.00     0.027 A 
HETATM   19  C   UNL     1      39.641 -14.687   0.972  1.00  0.00     0.031 A 
BRANCH  17  20
HETATM   20  S   UNL     1      39.744 -13.675  -2.936  1.00  0.00     0.243 S 
HETATM   21  O   UNL     1      40.688 -14.176  -3.912  1.00  0.00    -0.206 OA
HETATM   22  O   UNL     1      38.318 -13.781  -3.151  1.00  0.00    -0.206 OA
BRANCH  20  23
HETATM   23  N   UNL     1      40.117 -12.038  -2.661  1.00  0.00    -0.202 NA
HETATM   24  C   UNL     1      41.192 -11.736  -1.663  1.00  0.00     0.134 C 
HETATM   25  C   UNL     1      42.595 -11.827  -2.274  1.00  0.00     0.183 C 
HETATM   26  O   UNL     1      42.716 -11.004  -3.441  1.00  0.00    -0.389 OA
HETATM   27  C   UNL     1      41.763 -11.401  -4.437  1.00  0.00     0.183 C 
HETATM   28  C   UNL     1      40.333 -11.239  -3.911  1.00  0.00     0.134 C 
ENDBRANCH  20  23
ENDBRANCH  17  20
ENDBRANCH   3  14
BRANCH   2  29
HETATM   29  N   UNL     1      39.829 -14.575   3.929  1.00  0.00    -0.287 NA
HETATM   30  H   UNL     1      38.958 -15.071   4.138  1.00  0.00     0.125 HD
HETATM   31  H   UNL     1      39.628 -13.789   3.307  1.00  0.00     0.125 HD
ENDBRANCH   2  29
BRANCH   1  32
HETATM   32  C   UNL     1      42.517 -14.732   5.541  1.00  0.00     0.257 C 
HETATM   33  N   UNL     1      43.781 -15.077   5.985  1.00  0.00    -0.356 N 
HETATM   34  H   UNL     1      44.194 -15.901   5.557  1.00  0.00     0.162 HD
HETATM   35  O   UNL     1      41.825 -13.890   6.101  1.00  0.00    -0.267 OA
BRANCH  33  36
HETATM   36  C   UNL     1      44.232 -14.760   7.325  1.00  0.00     0.127 C 
BRANCH  36  37
HETATM   37  C   UNL     1      45.162 -13.539   7.362  1.00  0.00     0.058 C 
BRANCH  37  38
HETATM   38  C   UNL     1      44.822 -12.548   8.455  1.00  0.00    -0.057 A 
HETATM   39  C   UNL     1      43.608 -11.849   8.440  1.00  0.00     0.010 A 
HETATM   40  C   UNL     1      43.290 -10.946   9.464  1.00  0.00     0.037 A 
HETATM   41  C   UNL     1      44.183 -10.734  10.515  1.00  0.00     0.068 A 
HETATM   42  C   UNL     1      45.407 -11.404  10.516  1.00  0.00     0.037 A 
HETATM   43  C   UNL     1      45.723 -12.310   9.500  1.00  0.00     0.010 A 
BRANCH  41  44
HETATM   44  O   UNL     1      43.984  -9.893  11.575  1.00  0.00    -0.356 OA
HETATM   45  C   UNL     1      43.046 -10.323  12.554  1.00  0.00     0.210 C 
ENDBRANCH  41  44
ENDBRANCH  37  38
ENDBRANCH  36  37
ENDBRANCH  33  36
ENDBRANCH   1  32
TORSDOF 9
ENDMDL
MODEL 3
REMARK VINA RESULT:      -9.8      3.682     10.318
REMARK  9 active torsions:
REMARK  status: ('A' for Active; 'I' for Inactive)
REMARK    1  A    between atoms: O_2  and  C_3 
REMARK    2  A    between atoms: C_6  and  C_7 
REMARK    3  A    between atoms: C_7  and  C_8 
REMARK    4  A    between atoms: C_8  and  N_9 
REMARK       I    between atoms: N_9  and  C_10 
REMARK    5  A    between atoms: C_10  and  C_11 
REMARK    6  A    between atoms: C_12  and  N_13 
REMARK    7  A    between atoms: N_14  and  C_15 
REMARK    8  A    between atoms: C_18  and  S_19 
REMARK    9  A    between atoms: S_19  and  N_20 
ROOT
HETATM    1  C   UNL     1      40.484 -14.884   4.094  1.00  0.00     0.103 C 
HETATM    2  C   UNL     1      40.190 -14.534   5.408  1.00  0.00     0.105 C 
HETATM    3  N   UNL     1      39.938 -13.154   5.409  1.00  0.00    -0.284 N 
HETATM    4  C   UNL     1      39.418 -12.876   4.149  1.00  0.00     0.166 A 
HETATM    5  C   UNL     1      39.840 -13.902   3.302  1.00  0.00     0.123 A 
HETATM    6  N   UNL     1      39.612 -13.850   1.966  1.00  0.00    -0.242 NA
HETATM    7  C   UNL     1      38.879 -12.807   1.555  1.00  0.00     0.086 A 
HETATM    8  C   UNL     1      38.420 -11.798   2.437  1.00  0.00     0.088 A 
HETATM    9  N   UNL     1      38.704 -11.797   3.752  1.00  0.00    -0.226 NA
HETATM   10  C   UNL     1      38.543 -12.726   0.208  1.00  0.00     0.034 A 
HETATM   11  C   UNL     1      37.758 -11.685  -0.288  1.00  0.00     0.002 A 
HETATM   12  C   UNL     1      37.304 -10.700   0.577  1.00  0.00     0.002 A 
HETATM   13  C   UNL     1      37.643 -10.764   1.930  1.00  0.00     0.034 A 
ENDROOT
BRANCH   3  14
HETATM   14  C   UNL     1      40.285 -12.211   6.444  1.00  0.00     0.042 A 
HETATM   15  C   UNL     1      41.600 -11.734   6.579  1.00  0.00     0.031 A 
HETATM   16  C   UNL     1      41.975 -10.956   7.683  1.00  0.00     0.027 A 
HETATM   17  C   UNL     1      41.028 -10.636   8.656  1.00  0.00     0.074 A 
HETATM   18  C   UNL     1      39.715 -11.075   8.533  1.00  0.00     0.027 A 
HETATM   19  C   UNL     1      39.354 -11.871   7.444  1.00  0.00     0.031 A 
BRANCH  17  20
HETATM   20  S   UNL     1      41.508  -9.715  10.094  1.00  0.00     0.243 S 
HETATM   21  O   UNL     1      42.931  -9.896  10.289  1.00  0.00    -0.206 OA
HETATM   22  O   UNL     1      40.932  -8.395   9.965  1.00  0.00    -0.206 OA
BRANCH  20  23
HETATM   23  N   UNL     1      40.713 -10.517  11.366  1.00  0.00    -0.202 NA
HETATM   24  C   UNL     1      41.553 -11.347  12.287  1.00  0.00     0.134 C 
HETATM   25  C   UNL     1      42.212 -10.508  13.388  1.00  0.00     0.183 C 
HETATM   26  O   UNL     1      41.244  -9.738  14.112  1.00  0.00    -0.389 OA
HETATM   27  C   UNL     1      40.544  -8.852  13.228  1.00  0.00     0.183 C 
HETATM   28  C   UNL     1      39.786  -9.644  12.158  1.00  0.00     0.134 C 
ENDBRANCH  20  23
ENDBRANCH  17  20
ENDBRANCH   3  14
BRANCH   2  29
HETATM   29  N   UNL     1      40.194 -15.318   6.525  1.00  0.00    -0.287 NA
HETATM   30  H   UNL     1      41.026 -15.890   6.691  1.00  0.00     0.125 HD
HETATM   31  H   UNL     1      39.358 -15.874   6.714  1.00  0.00     0.125 HD
ENDBRANCH   2  29
BRANCH   1  32
HETATM   32  C   UNL     1      41.237 -16.051   3.657  1.00  0.00     0.257 C 
HETATM   33  N   UNL     1      41.725 -15.930   2.368  1.00  0.00    -0.356 N 
HETATM   34  H   UNL     1      41.432 -15.102   1.857  1.00  0.00     0.162 HD
HETATM   35  O   UNL     1      41.346 -17.081   4.312  1.00  0.00    -0.267 OA
BRANCH  33  36
HETATM   36  C   UNL     1      42.059 -17.089   1.567  1.00  0.00     0.127 C 
BRANCH  36  37
HETATM   37  C   UNL     1      43.554 -17.437   1.624  1.00  0.00     0.058 C 
BRANCH  37  38
HETATM   38  C   UNL     1      43.838 -18.808   2.200  1.00  0.00    -0.057 A 
HETATM   39  C   UNL     1      43.642 -19.964   1.435  1.00  0.00     0.010 A 
HETATM   40  C   UNL     1      43.923 -21.230   1.968  1.00  0.00     0.037 A 
HETATM   41  C   UNL     1      44.403 -21.352   3.272  1.00  0.00     0.068 A 
HETATM   42  C   UNL     1      44.568 -20.204   4.048  1.00  0.00     0.037 A 
HETATM   43  C   UNL     1      44.296 -18.941   3.516  1.00  0.00     0.010 A 
BRANCH  41  44
HETATM   44  O   UNL     1      44.726 -22.524   3.899  1.00  0.00    -0.356 OA
HETATM   45  C   UNL     1      45.114 -22.423   5.264  1.00  0.00     0.210 C 
ENDBRANCH  41  44
ENDBRANCH  37  38
ENDBRANCH  36  37
ENDBRANCH  33  36
ENDBRANCH   1  32
TORSDOF 9
ENDMDL
MODEL 4
REMARK VINA RESULT:      -9.8      1.663      2.104
REMARK  9 active torsions:
REMARK  status: ('A' for Active; 'I' for Inactive)
REMARK    1  A    between atoms: O_2  and  C_3 
REMARK    2  A    between atoms: C_6  and  C_7 
REMARK    3  A    between atoms: C_7  and  C_8 
REMARK    4  A    between atoms: C_8  and  N_9 
REMARK       I    between atoms: N_9  and  C_10 
REMARK    5  A    between atoms: C_10  and  C_11 
REMARK    6  A    between atoms: C_12  and  N_13 
REMARK    7  A    between atoms: N_14  and  C_15 
REMARK    8  A    between atoms: C_18  and  S_19 
REMARK    9  A    between atoms: S_19  and  N_20 
ROOT
HETATM    1  C   UNL     1      43.765 -14.047   6.584  1.00  0.00     0.103 C 
HETATM    2  C   UNL     1      42.588 -13.519   6.063  1.00  0.00     0.105 C 
HETATM    3  N   UNL     1      42.335 -14.205   4.866  1.00  0.00    -0.284 N 
HETATM    4  C   UNL     1      42.880 -15.472   5.048  1.00  0.00     0.166 A 
HETATM    5  C   UNL     1      43.844 -15.357   6.050  1.00  0.00     0.123 A 
HETATM    6  N   UNL     1      44.657 -16.395   6.367  1.00  0.00    -0.242 NA
HETATM    7  C   UNL     1      44.395 -17.540   5.721  1.00  0.00     0.086 A 
HETATM    8  C   UNL     1      43.381 -17.649   4.738  1.00  0.00     0.088 A 
HETATM    9  N   UNL     1      42.619 -16.608   4.360  1.00  0.00    -0.226 NA
HETATM   10  C   UNL     1      45.141 -18.667   6.047  1.00  0.00     0.034 A 
HETATM   11  C   UNL     1      44.905 -19.900   5.438  1.00  0.00     0.002 A 
HETATM   12  C   UNL     1      43.908 -20.009   4.480  1.00  0.00     0.002 A 
HETATM   13  C   UNL     1      43.159 -18.882   4.136  1.00  0.00     0.034 A 
ENDROOT
BRANCH   3  14
HETATM   14  C   UNL     1      41.765 -13.658   3.659  1.00  0.00     0.042 A 
HETATM   15  C   UNL     1      40.384 -13.734   3.410  1.00  0.00     0.031 A 
HETATM   16  C   UNL     1      39.855 -13.360   2.167  1.00  0.00     0.027 A 
HETATM   17  C   UNL     1      40.705 -12.891   1.166  1.00  0.00     0.074 A 
HETATM   18  C   UNL     1      42.071 -12.782   1.397  1.00  0.00     0.027 A 
HETATM   19  C   UNL     1      42.596 -13.180   2.628  1.00  0.00     0.031 A 
BRANCH  17  20
HETATM   20  S   UNL     1      40.056 -12.485  -0.433  1.00  0.00     0.243 S 
HETATM   21  O   UNL     1      38.821 -11.754  -0.245  1.00  0.00    -0.206 OA
HETATM   22  O   UNL     1      41.145 -11.927  -1.205  1.00  0.00    -0.206 OA
BRANCH  20  23
HETATM   23  N   UNL     1      39.658 -13.999  -1.099  1.00  0.00    -0.202 NA
HETATM   24  C   UNL     1      38.616 -14.023  -2.175  1.00  0.00     0.134 C 
HETATM   25  C   UNL     1      39.199 -13.705  -3.557  1.00  0.00     0.183 C 
HETATM   26  O   UNL     1      40.301 -14.564  -3.873  1.00  0.00    -0.389 OA
HETATM   27  C   UNL     1      41.345 -14.422  -2.900  1.00  0.00     0.183 C 
HETATM   28  C   UNL     1      40.843 -14.820  -1.508  1.00  0.00     0.134 C 
ENDBRANCH  20  23
ENDBRANCH  17  20
ENDBRANCH   3  14
BRANCH   2  29
HETATM   29  N   UNL     1      41.824 -12.495   6.542  1.00  0.00    -0.287 NA
HETATM   30  H   UNL     1      41.024 -12.203   5.974  1.00  0.00     0.125 HD
HETATM   31  H   UNL     1      42.310 -11.666   6.889  1.00  0.00     0.125 HD
ENDBRANCH   2  29
BRANCH   1  32
HETATM   32  C   UNL     1      44.665 -13.394   7.524  1.00  0.00     0.257 C 
HETATM   33  N   UNL     1      44.012 -12.871   8.626  1.00  0.00    -0.356 N 
HETATM   34  H   UNL     1      42.998 -12.923   8.608  1.00  0.00     0.162 HD
HETATM   35  O   UNL     1      45.862 -13.225   7.321  1.00  0.00    -0.267 OA
BRANCH  33  36
HETATM   36  C   UNL     1      44.583 -11.798   9.413  1.00  0.00     0.127 C 
BRANCH  36  37
HETATM   37  C   UNL     1      44.536 -12.080  10.922  1.00  0.00     0.058 C 
BRANCH  37  38
HETATM   38  C   UNL     1      43.701 -11.086  11.700  1.00  0.00    -0.057 A 
HETATM   39  C   UNL     1      42.985 -11.481  12.837  1.00  0.00     0.010 A 
HETATM   40  C   UNL     1      42.228 -10.551  13.563  1.00  0.00     0.037 A 
HETATM   41  C   UNL     1      42.179  -9.217  13.160  1.00  0.00     0.068 A 
HETATM   42  C   UNL     1      42.863  -8.826  12.009  1.00  0.00     0.037 A 
HETATM   43  C   UNL     1      43.626  -9.749  11.288  1.00  0.00     0.010 A 
BRANCH  41  44
HETATM   44  O   UNL     1      41.490  -8.217  13.789  1.00  0.00    -0.356 OA
HETATM   45  C   UNL     1      41.055  -8.488  15.116  1.00  0.00     0.210 C 
ENDBRANCH  41  44
ENDBRANCH  37  38
ENDBRANCH  36  37
ENDBRANCH  33  36
ENDBRANCH   1  32
TORSDOF 9
ENDMDL
MODEL 5
REMARK VINA RESULT:      -9.5      3.131      9.919
REMARK  9 active torsions:
REMARK  status: ('A' for Active; 'I' for Inactive)
REMARK    1  A    between atoms: O_2  and  C_3 
REMARK    2  A    between atoms: C_6  and  C_7 
REMARK    3  A    between atoms: C_7  and  C_8 
REMARK    4  A    between atoms: C_8  and  N_9 
REMARK       I    between atoms: N_9  and  C_10 
REMARK    5  A    between atoms: C_10  and  C_11 
REMARK    6  A    between atoms: C_12  and  N_13 
REMARK    7  A    between atoms: N_14  and  C_15 
REMARK    8  A    between atoms: C_18  and  S_19 
REMARK    9  A    between atoms: S_19  and  N_20 
ROOT
HETATM    1  C   UNL     1      42.183 -15.129   1.233  1.00  0.00     0.103 C 
HETATM    2  C   UNL     1      42.296 -14.003   2.043  1.00  0.00     0.105 C 
HETATM    3  N   UNL     1      42.264 -14.458   3.370  1.00  0.00    -0.284 N 
HETATM    4  C   UNL     1      42.814 -15.736   3.332  1.00  0.00     0.166 A 
HETATM    5  C   UNL     1      42.675 -16.197   2.022  1.00  0.00     0.123 A 
HETATM    6  N   UNL     1      42.992 -17.472   1.688  1.00  0.00    -0.242 NA
HETATM    7  C   UNL     1      43.529 -18.202   2.675  1.00  0.00     0.086 A 
HETATM    8  C   UNL     1      43.705 -17.701   3.989  1.00  0.00     0.088 A 
HETATM    9  N   UNL     1      43.324 -16.463   4.353  1.00  0.00    -0.226 NA
HETATM   10  C   UNL     1      43.946 -19.496   2.388  1.00  0.00     0.034 A 
HETATM   11  C   UNL     1      44.541 -20.305   3.357  1.00  0.00     0.002 A 
HETATM   12  C   UNL     1      44.719 -19.812   4.642  1.00  0.00     0.002 A 
HETATM   13  C   UNL     1      44.295 -18.517   4.946  1.00  0.00     0.034 A 
ENDROOT
BRANCH   3  14
HETATM   14  C   UNL     1      41.653 -13.797   4.497  1.00  0.00     0.042 A 
HETATM   15  C   UNL     1      40.288 -13.963   4.783  1.00  0.00     0.031 A 
HETATM   16  C   UNL     1      39.659 -13.191   5.769  1.00  0.00     0.027 A 
HETATM   17  C   UNL     1      40.399 -12.254   6.490  1.00  0.00     0.074 A 
HETATM   18  C   UNL     1      41.757 -12.089   6.244  1.00  0.00     0.027 A 
HETATM   19  C   UNL     1      42.373 -12.843   5.242  1.00  0.00     0.031 A 
BRANCH  17  20
HETATM   20  S   UNL     1      39.599 -11.220   7.688  1.00  0.00     0.243 S 
HETATM   21  O   UNL     1      38.972 -10.121   6.985  1.00  0.00    -0.206 OA
HETATM   22  O   UNL     1      38.833 -12.087   8.555  1.00  0.00    -0.206 OA
BRANCH  20  23
HETATM   23  N   UNL     1      40.891 -10.578   8.590  1.00  0.00    -0.202 NA
HETATM   24  C   UNL     1      41.256  -9.147   8.345  1.00  0.00     0.134 C 
HETATM   25  C   UNL     1      40.377  -8.178   9.143  1.00  0.00     0.183 C 
HETATM   26  O   UNL     1      40.385  -8.490  10.542  1.00  0.00    -0.389 OA
HETATM   27  C   UNL     1      39.903  -9.823  10.763  1.00  0.00     0.183 C 
HETATM   28  C   UNL     1      40.804 -10.845  10.062  1.00  0.00     0.134 C 
ENDBRANCH  20  23
ENDBRANCH  17  20
ENDBRANCH   3  14
BRANCH   2  29
HETATM   29  N   UNL     1      42.362 -12.690   1.680  1.00  0.00    -0.287 NA
HETATM   30  H   UNL     1      41.477 -12.209   1.497  1.00  0.00     0.125 HD
HETATM   31  H   UNL     1      43.040 -12.433   0.959  1.00  0.00     0.125 HD
ENDBRANCH   2  29
BRANCH   1  32
HETATM   32  C   UNL     1      41.716 -15.159  -0.146  1.00  0.00     0.257 C 
HETATM   33  N   UNL     1      42.079 -14.033  -0.865  1.00  0.00    -0.356 N 
HETATM   34  H   UNL     1      42.538 -13.296  -0.338  1.00  0.00     0.162 HD
HETATM   35  O   UNL     1      40.989 -16.031  -0.605  1.00  0.00    -0.267 OA
BRANCH  33  36
HETATM   36  C   UNL     1      41.351 -13.615  -2.046  1.00  0.00     0.127 C 
BRANCH  36  37
HETATM   37  C   UNL     1      40.018 -12.933  -1.708  1.00  0.00     0.058 C 
BRANCH  37  38
HETATM   38  C   UNL     1      38.874 -13.358  -2.605  1.00  0.00    -0.057 A 
HETATM   39  C   UNL     1      37.909 -12.434  -3.027  1.00  0.00     0.010 A 
HETATM   40  C   UNL     1      36.863 -12.830  -3.872  1.00  0.00     0.037 A 
HETATM   41  C   UNL     1      36.771 -14.153  -4.303  1.00  0.00     0.068 A 
HETATM   42  C   UNL     1      37.710 -15.083  -3.858  1.00  0.00     0.037 A 
HETATM   43  C   UNL     1      38.759 -14.689  -3.022  1.00  0.00     0.010 A 
BRANCH  41  44
HETATM   44  O   UNL     1      35.809 -14.657  -5.135  1.00  0.00    -0.356 OA
HETATM   45  C   UNL     1      35.306 -13.771  -6.128  1.00  0.00     0.210 C 
ENDBRANCH  41  44
ENDBRANCH  37  38
ENDBRANCH  36  37
ENDBRANCH  33  36
ENDBRANCH   1  32
TORSDOF 9
ENDMDL
MODEL 6
REMARK VINA RESULT:      -9.4      2.267      3.405
REMARK  9 active torsions:
REMARK  status: ('A' for Active; 'I' for Inactive)
REMARK    1  A    between atoms: O_2  and  C_3 
REMARK    2  A    between atoms: C_6  and  C_7 
REMARK    3  A    between atoms: C_7  and  C_8 
REMARK    4  A    between atoms: C_8  and  N_9 
REMARK       I    between atoms: N_9  and  C_10 
REMARK    5  A    between atoms: C_10  and  C_11 
REMARK    6  A    between atoms: C_12  and  N_13 
REMARK    7  A    between atoms: N_14  and  C_15 
REMARK    8  A    between atoms: C_18  and  S_19 
REMARK    9  A    between atoms: S_19  and  N_20 
ROOT
HETATM    1  C   UNL     1      41.303 -12.066   6.058  1.00  0.00     0.103 C 
HETATM    2  C   UNL     1      40.107 -12.152   5.352  1.00  0.00     0.105 C 
HETATM    3  N   UNL     1      40.307 -13.097   4.336  1.00  0.00    -0.284 N 
HETATM    4  C   UNL     1      41.247 -13.988   4.845  1.00  0.00     0.166 A 
HETATM    5  C   UNL     1      41.939 -13.314   5.852  1.00  0.00     0.123 A 
HETATM    6  N   UNL     1      43.019 -13.869   6.456  1.00  0.00    -0.242 NA
HETATM    7  C   UNL     1      43.297 -15.125   6.081  1.00  0.00     0.086 A 
HETATM    8  C   UNL     1      42.556 -15.810   5.087  1.00  0.00     0.088 A 
HETATM    9  N   UNL     1      41.529 -15.244   4.426  1.00  0.00    -0.226 NA
HETATM   10  C   UNL     1      44.348 -15.784   6.709  1.00  0.00     0.034 A 
HETATM   11  C   UNL     1      44.677 -17.102   6.393  1.00  0.00     0.002 A 
HETATM   12  C   UNL     1      43.947 -17.775   5.424  1.00  0.00     0.002 A 
HETATM   13  C   UNL     1      42.896 -17.120   4.778  1.00  0.00     0.034 A 
ENDROOT
BRANCH   3  14
HETATM   14  C   UNL     1      39.765 -13.059   3.000  1.00  0.00     0.042 A 
HETATM   15  C   UNL     1      39.155 -14.191   2.432  1.00  0.00     0.031 A 
HETATM   16  C   UNL     1      38.785 -14.209   1.081  1.00  0.00     0.027 A 
HETATM   17  C   UNL     1      39.008 -13.083   0.288  1.00  0.00     0.074 A 
HETATM   18  C   UNL     1      39.586 -11.942   0.832  1.00  0.00     0.027 A 
HETATM   19  C   UNL     1      39.977 -11.940   2.173  1.00  0.00     0.031 A 
BRANCH  17  20
HETATM   20  S   UNL     1      38.611 -13.119  -1.440  1.00  0.00     0.243 S 
HETATM   21  O   UNL     1      37.881 -14.340  -1.707  1.00  0.00    -0.206 OA
HETATM   22  O   UNL     1      38.056 -11.827  -1.776  1.00  0.00    -0.206 OA
BRANCH  20  23
HETATM   23  N   UNL     1      40.129 -13.257  -2.196  1.00  0.00    -0.202 NA
HETATM   24  C   UNL     1      41.165 -14.092  -1.511  1.00  0.00     0.134 C 
HETATM   25  C   UNL     1      41.010 -15.585  -1.823  1.00  0.00     0.183 C 
HETATM   26  O   UNL     1      40.990 -15.828  -3.235  1.00  0.00    -0.389 OA
HETATM   27  C   UNL     1      39.904 -15.122  -3.851  1.00  0.00     0.183 C 
HETATM   28  C   UNL     1      40.059 -13.611  -3.651  1.00  0.00     0.134 C 
ENDBRANCH  20  23
ENDBRANCH  17  20
ENDBRANCH   3  14
BRANCH   2  29
HETATM   29  N   UNL     1      38.957 -11.439   5.526  1.00  0.00    -0.287 NA
HETATM   30  H   UNL     1      39.050 -10.432   5.684  1.00  0.00     0.125 HD
HETATM   31  H   UNL     1      38.259 -11.818   6.171  1.00  0.00     0.125 HD
ENDBRANCH   2  29
BRANCH   1  32
HETATM   32  C   UNL     1      41.747 -10.945   6.875  1.00  0.00     0.257 C 
HETATM   33  N   UNL     1      42.258 -11.336   8.100  1.00  0.00    -0.356 N 
HETATM   34  H   UNL     1      42.183 -12.326   8.318  1.00  0.00     0.162 HD
HETATM   35  O   UNL     1      41.593  -9.769   6.567  1.00  0.00    -0.267 OA
BRANCH  33  36
HETATM   36  C   UNL     1      42.300 -10.433   9.232  1.00  0.00     0.127 C 
BRANCH  36  37
HETATM   37  C   UNL     1      43.263 -10.907  10.331  1.00  0.00     0.058 C 
BRANCH  37  38
HETATM   38  C   UNL     1      42.761 -10.641  11.734  1.00  0.00    -0.057 A 
HETATM   39  C   UNL     1      41.520 -11.131  12.159  1.00  0.00     0.010 A 
HETATM   40  C   UNL     1      41.069 -10.897  13.466  1.00  0.00     0.037 A 
HETATM   41  C   UNL     1      41.855 -10.171  14.361  1.00  0.00     0.068 A 
HETATM   42  C   UNL     1      43.077  -9.653  13.930  1.00  0.00     0.037 A 
HETATM   43  C   UNL     1      43.533  -9.892  12.631  1.00  0.00     0.010 A 
BRANCH  41  44
HETATM   44  O   UNL     1      41.533  -9.888  15.659  1.00  0.00    -0.356 OA
HETATM   45  C   UNL     1      41.984  -8.635  16.163  1.00  0.00     0.210 C 
ENDBRANCH  41  44
ENDBRANCH  37  38
ENDBRANCH  36  37
ENDBRANCH  33  36
ENDBRANCH   1  32
TORSDOF 9
ENDMDL
MODEL 7
REMARK VINA RESULT:      -9.2      1.605      2.415
REMARK  9 active torsions:
REMARK  status: ('A' for Active; 'I' for Inactive)
REMARK    1  A    between atoms: O_2  and  C_3 
REMARK    2  A    between atoms: C_6  and  C_7 
REMARK    3  A    between atoms: C_7  and  C_8 
REMARK    4  A    between atoms: C_8  and  N_9 
REMARK       I    between atoms: N_9  and  C_10 
REMARK    5  A    between atoms: C_10  and  C_11 
REMARK    6  A    between atoms: C_12  and  N_13 
REMARK    7  A    between atoms: N_14  and  C_15 
REMARK    8  A    between atoms: C_18  and  S_19 
REMARK    9  A    between atoms: S_19  and  N_20 
ROOT
HETATM    1  C   UNL     1      42.627 -16.274   5.645  1.00  0.00     0.103 C 
HETATM    2  C   UNL     1      41.462 -15.748   5.095  1.00  0.00     0.105 C 
HETATM    3  N   UNL     1      41.488 -16.059   3.728  1.00  0.00    -0.284 N 
HETATM    4  C   UNL     1      42.200 -17.251   3.637  1.00  0.00     0.166 A 
HETATM    5  C   UNL     1      42.988 -17.339   4.785  1.00  0.00     0.123 A 
HETATM    6  N   UNL     1      43.906 -18.326   4.934  1.00  0.00    -0.242 NA
HETATM    7  C   UNL     1      43.922 -19.240   3.954  1.00  0.00     0.086 A 
HETATM    8  C   UNL     1      43.083 -19.158   2.816  1.00  0.00     0.088 A 
HETATM    9  N   UNL     1      42.221 -18.144   2.619  1.00  0.00    -0.226 NA
HETATM   10  C   UNL     1      44.788 -20.321   4.074  1.00  0.00     0.034 A 
HETATM   11  C   UNL     1      44.840 -21.327   3.109  1.00  0.00     0.002 A 
HETATM   12  C   UNL     1      44.013 -21.250   1.997  1.00  0.00     0.002 A 
HETATM   13  C   UNL     1      43.146 -20.164   1.860  1.00  0.00     0.034 A 
ENDROOT
BRANCH   3  14
HETATM   14  C   UNL     1      41.007 -15.237   2.644  1.00  0.00     0.042 A 
HETATM   15  C   UNL     1      41.800 -14.209   2.107  1.00  0.00     0.031 A 
HETATM   16  C   UNL     1      41.271 -13.303   1.176  1.00  0.00     0.027 A 
HETATM   17  C   UNL     1      39.945 -13.431   0.763  1.00  0.00     0.074 A 
HETATM   18  C   UNL     1      39.149 -14.456   1.260  1.00  0.00     0.027 A 
HETATM   19  C   UNL     1      39.673 -15.340   2.206  1.00  0.00     0.031 A 
BRANCH  17  20
HETATM   20  S   UNL     1      39.245 -12.249  -0.357  1.00  0.00     0.243 S 
HETATM   21  O   UNL     1      40.275 -11.853  -1.294  1.00  0.00    -0.206 OA
HETATM   22  O   UNL     1      37.985 -12.790  -0.816  1.00  0.00    -0.206 OA
BRANCH  20  23
HETATM   23  N   UNL     1      38.914 -10.906   0.634  1.00  0.00    -0.202 NA
HETATM   24  C   UNL     1      39.922  -9.799   0.650  1.00  0.00     0.134 C 
HETATM   25  C   UNL     1      39.737  -8.826  -0.520  1.00  0.00     0.183 C 
HETATM   26  O   UNL     1      38.399  -8.317  -0.576  1.00  0.00    -0.389 OA
HETATM   27  C   UNL     1      37.459  -9.390  -0.727  1.00  0.00     0.183 C 
HETATM   28  C   UNL     1      37.533 -10.346   0.468  1.00  0.00     0.134 C 
ENDBRANCH  20  23
ENDBRANCH  17  20
ENDBRANCH   3  14
BRANCH   2  29
HETATM   29  N   UNL     1      40.485 -15.013   5.700  1.00  0.00    -0.287 NA
HETATM   30  H   UNL     1      39.515 -15.237   5.463  1.00  0.00     0.125 HD
HETATM   31  H   UNL     1      40.602 -13.997   5.718  1.00  0.00     0.125 HD
ENDBRANCH   2  29
BRANCH   1  32
HETATM   32  C   UNL     1      43.274 -15.842   6.876  1.00  0.00     0.257 C 
HETATM   33  N   UNL     1      43.608 -14.498   6.870  1.00  0.00    -0.356 N 
HETATM   34  H   UNL     1      43.449 -14.004   5.997  1.00  0.00     0.162 HD
HETATM   35  O   UNL     1      43.591 -16.599   7.786  1.00  0.00    -0.267 OA
BRANCH  33  36
HETATM   36  C   UNL     1      44.651 -13.969   7.724  1.00  0.00     0.127 C 
BRANCH  36  37
HETATM   37  C   UNL     1      44.571 -12.443   7.878  1.00  0.00     0.058 C 
BRANCH  37  38
HETATM   38  C   UNL     1      44.044 -11.995   9.225  1.00  0.00    -0.057 A 
HETATM   39  C   UNL     1      43.075 -10.989   9.320  1.00  0.00     0.010 A 
HETATM   40  C   UNL     1      42.578 -10.591  10.569  1.00  0.00     0.037 A 
HETATM   41  C   UNL     1      43.046 -11.195  11.736  1.00  0.00     0.068 A 
HETATM   42  C   UNL     1      44.036 -12.174  11.647  1.00  0.00     0.037 A 
HETATM   43  C   UNL     1      44.527 -12.579  10.403  1.00  0.00     0.010 A 
BRANCH  41  44
HETATM   44  O   UNL     1      42.632 -10.906  13.007  1.00  0.00    -0.356 OA
HETATM   45  C   UNL     1      41.226 -10.885  13.223  1.00  0.00     0.210 C 
ENDBRANCH  41  44
ENDBRANCH  37  38
ENDBRANCH  36  37
ENDBRANCH  33  36
ENDBRANCH   1  32
TORSDOF 9
ENDMDL
MODEL 8
REMARK VINA RESULT:      -9.0      3.330      9.757
REMARK  9 active torsions:
REMARK  status: ('A' for Active; 'I' for Inactive)
REMARK    1  A    between atoms: O_2  and  C_3 
REMARK    2  A    between atoms: C_6  and  C_7 
REMARK    3  A    between atoms: C_7  and  C_8 
REMARK    4  A    between atoms: C_8  and  N_9 
REMARK       I    between atoms: N_9  and  C_10 
REMARK    5  A    between atoms: C_10  and  C_11 
REMARK    6  A    between atoms: C_12  and  N_13 
REMARK    7  A    between atoms: N_14  and  C_15 
REMARK    8  A    between atoms: C_18  and  S_19 
REMARK    9  A    between atoms: S_19  and  N_20 
ROOT
HETATM    1  C   UNL     1      42.189 -14.797   1.628  1.00  0.00     0.103 C 
HETATM    2  C   UNL     1      42.236 -13.582   2.305  1.00  0.00     0.105 C 
HETATM    3  N   UNL     1      42.127 -13.879   3.671  1.00  0.00    -0.284 N 
HETATM    4  C   UNL     1      42.697 -15.140   3.818  1.00  0.00     0.166 A 
HETATM    5  C   UNL     1      42.646 -15.754   2.566  1.00  0.00     0.123 A 
HETATM    6  N   UNL     1      43.002 -17.053   2.405  1.00  0.00    -0.242 NA
HETATM    7  C   UNL     1      43.486 -17.650   3.502  1.00  0.00     0.086 A 
HETATM    8  C   UNL     1      43.572 -16.995   4.756  1.00  0.00     0.088 A 
HETATM    9  N   UNL     1      43.152 -15.732   4.947  1.00  0.00    -0.226 NA
HETATM   10  C   UNL     1      43.938 -18.960   3.396  1.00  0.00     0.034 A 
HETATM   11  C   UNL     1      44.483 -19.637   4.488  1.00  0.00     0.002 A 
HETATM   12  C   UNL     1      44.573 -18.993   5.714  1.00  0.00     0.002 A 
HETATM   13  C   UNL     1      44.113 -17.681   5.836  1.00  0.00     0.034 A 
ENDROOT
BRANCH   3  14
HETATM   14  C   UNL     1      41.438 -13.104   4.674  1.00  0.00     0.042 A 
HETATM   15  C   UNL     1      42.062 -12.013   5.303  1.00  0.00     0.031 A 
HETATM   16  C   UNL     1      41.460 -11.370   6.394  1.00  0.00     0.027 A 
HETATM   17  C   UNL     1      40.217 -11.805   6.853  1.00  0.00     0.074 A 
HETATM   18  C   UNL     1      39.568 -12.865   6.231  1.00  0.00     0.027 A 
HETATM   19  C   UNL     1      40.184 -13.518   5.161  1.00  0.00     0.031 A 
BRANCH  17  20
HETATM   20  S   UNL     1      39.481 -11.047   8.277  1.00  0.00     0.243 S 
HETATM   21  O   UNL     1      38.668  -9.938   7.825  1.00  0.00    -0.206 OA
HETATM   22  O   UNL     1      38.917 -12.109   9.081  1.00  0.00    -0.206 OA
BRANCH  20  23
HETATM   23  N   UNL     1      40.810 -10.397   9.116  1.00  0.00    -0.202 NA
HETATM   24  C   UNL     1      40.954  -8.907   9.126  1.00  0.00     0.134 C 
HETATM   25  C   UNL     1      40.099  -8.245  10.213  1.00  0.00     0.183 C 
HETATM   26  O   UNL     1      40.364  -8.806  11.504  1.00  0.00    -0.389 OA
HETATM   27  C   UNL     1      40.088 -10.214  11.507  1.00  0.00     0.183 C 
HETATM   28  C   UNL     1      40.987 -10.942  10.502  1.00  0.00     0.134 C 
ENDBRANCH  20  23
ENDBRANCH  17  20
ENDBRANCH   3  14
BRANCH   2  29
HETATM   29  N   UNL     1      42.306 -12.319   1.793  1.00  0.00    -0.287 NA
HETATM   30  H   UNL     1      42.043 -11.548   2.413  1.00  0.00     0.125 HD
HETATM   31  H   UNL     1      41.901 -12.161   0.868  1.00  0.00     0.125 HD
ENDBRANCH   2  29
BRANCH   1  32
HETATM   32  C   UNL     1      41.811 -14.998   0.236  1.00  0.00     0.257 C 
HETATM   33  N   UNL     1      42.250 -13.984  -0.597  1.00  0.00    -0.356 N 
HETATM   34  H   UNL     1      42.695 -13.194  -0.140  1.00  0.00     0.162 HD
HETATM   35  O   UNL     1      41.089 -15.909  -0.153  1.00  0.00    -0.267 OA
BRANCH  33  36
HETATM   36  C   UNL     1      41.611 -13.710  -1.868  1.00  0.00     0.127 C 
BRANCH  36  37
HETATM   37  C   UNL     1      42.598 -13.205  -2.930  1.00  0.00     0.058 C 
BRANCH  37  38
HETATM   38  C   UNL     1      42.470 -11.725  -3.222  1.00  0.00    -0.057 A 
HETATM   39  C   UNL     1      42.908 -10.768  -2.298  1.00  0.00     0.010 A 
HETATM   40  C   UNL     1      42.803  -9.399  -2.583  1.00  0.00     0.037 A 
HETATM   41  C   UNL     1      42.259  -8.974  -3.795  1.00  0.00     0.068 A 
HETATM   42  C   UNL     1      41.791  -9.923  -4.703  1.00  0.00     0.037 A 
HETATM   43  C   UNL     1      41.902 -11.288  -4.426  1.00  0.00     0.010 A 
BRANCH  41  44
HETATM   44  O   UNL     1      42.115  -7.673  -4.193  1.00  0.00    -0.356 OA
HETATM   45  C   UNL     1      42.864  -7.277  -5.335  1.00  0.00     0.210 C 
ENDBRANCH  41  44
ENDBRANCH  37  38
ENDBRANCH  36  37
ENDBRANCH  33  36
ENDBRANCH   1  32
TORSDOF 9
ENDMDL
MODEL 9
REMARK VINA RESULT:      -9.0      5.426      8.979
REMARK  9 active torsions:
REMARK  status: ('A' for Active; 'I' for Inactive)
REMARK    1  A    between atoms: O_2  and  C_3 
REMARK    2  A    between atoms: C_6  and  C_7 
REMARK    3  A    between atoms: C_7  and  C_8 
REMARK    4  A    between atoms: C_8  and  N_9 
REMARK       I    between atoms: N_9  and  C_10 
REMARK    5  A    between atoms: C_10  and  C_11 
REMARK    6  A    between atoms: C_12  and  N_13 
REMARK    7  A    between atoms: N_14  and  C_15 
REMARK    8  A    between atoms: C_18  and  S_19 
REMARK    9  A    between atoms: S_19  and  N_20 
ROOT
HETATM    1  C   UNL     1      41.438 -13.880  -0.065  1.00  0.00     0.103 C 
HETATM    2  C   UNL     1      40.777 -14.554  -1.088  1.00  0.00     0.105 C 
HETATM    3  N   UNL     1      40.205 -13.573  -1.911  1.00  0.00    -0.284 N 
HETATM    4  C   UNL     1      41.047 -12.470  -1.806  1.00  0.00     0.166 A 
HETATM    5  C   UNL     1      41.746 -12.608  -0.606  1.00  0.00     0.123 A 
HETATM    6  N   UNL     1      42.553 -11.620  -0.145  1.00  0.00    -0.242 NA
HETATM    7  C   UNL     1      42.694 -10.572  -0.967  1.00  0.00     0.086 A 
HETATM    8  C   UNL     1      42.010 -10.470  -2.204  1.00  0.00     0.088 A 
HETATM    9  N   UNL     1      41.149 -11.407  -2.638  1.00  0.00    -0.226 NA
HETATM   10  C   UNL     1      43.563  -9.553  -0.593  1.00  0.00     0.034 A 
HETATM   11  C   UNL     1      43.784  -8.444  -1.411  1.00  0.00     0.002 A 
HETATM   12  C   UNL     1      43.119  -8.347  -2.625  1.00  0.00     0.002 A 
HETATM   13  C   UNL     1      42.236  -9.359  -3.007  1.00  0.00     0.034 A 
ENDROOT
BRANCH   3  14
HETATM   14  C   UNL     1      38.937 -13.649  -2.594  1.00  0.00     0.042 A 
HETATM   15  C   UNL     1      38.650 -14.705  -3.476  1.00  0.00     0.031 A 
HETATM   16  C   UNL     1      37.494 -14.688  -4.268  1.00  0.00     0.027 A 
HETATM   17  C   UNL     1      36.605 -13.618  -4.172  1.00  0.00     0.074 A 
HETATM   18  C   UNL     1      36.853 -12.574  -3.289  1.00  0.00     0.027 A 
HETATM   19  C   UNL     1      38.020 -12.583  -2.521  1.00  0.00     0.031 A 
BRANCH  17  20
HETATM   20  S   UNL     1      35.178 -13.550  -5.222  1.00  0.00     0.243 S 
HETATM   21  O   UNL     1      35.006 -14.852  -5.831  1.00  0.00    -0.206 OA
HETATM   22  O   UNL     1      34.115 -12.937  -4.457  1.00  0.00    -0.206 OA
BRANCH  20  23
HETATM   23  N   UNL     1      35.637 -12.469  -6.452  1.00  0.00    -0.202 NA
HETATM   24  C   UNL     1      35.421 -12.906  -7.867  1.00  0.00     0.134 C 
HETATM   25  C   UNL     1      33.987 -12.649  -8.344  1.00  0.00     0.183 C 
HETATM   26  O   UNL     1      33.607 -11.280  -8.154  1.00  0.00    -0.389 OA
HETATM   27  C   UNL     1      33.693 -10.923  -6.767  1.00  0.00     0.183 C 
HETATM   28  C   UNL     1      35.131 -11.071  -6.260  1.00  0.00     0.134 C 
ENDBRANCH  20  23
ENDBRANCH  17  20
ENDBRANCH   3  14
BRANCH   2  29
HETATM   29  N   UNL     1      40.626 -15.897  -1.270  1.00  0.00    -0.287 NA
HETATM   30  H   UNL     1      40.282 -16.210  -2.181  1.00  0.00     0.125 HD
HETATM   31  H   UNL     1      40.153 -16.423  -0.532  1.00  0.00     0.125 HD
ENDBRANCH   2  29
BRANCH   1  32
HETATM   32  C   UNL     1      41.782 -14.417   1.244  1.00  0.00     0.257 C 
HETATM   33  N   UNL     1      42.160 -15.748   1.202  1.00  0.00    -0.356 N 
HETATM   34  H   UNL     1      42.070 -16.207   0.301  1.00  0.00     0.162 HD
HETATM   35  O   UNL     1      41.652 -13.798   2.294  1.00  0.00    -0.267 OA
BRANCH  33  36
HETATM   36  C   UNL     1      42.072 -16.602   2.368  1.00  0.00     0.127 C 
BRANCH  36  37
HETATM   37  C   UNL     1      43.434 -16.825   3.042  1.00  0.00     0.058 C 
BRANCH  37  38
HETATM   38  C   UNL     1      43.794 -18.286   3.215  1.00  0.00    -0.057 A 
HETATM   39  C   UNL     1      43.681 -19.186   2.149  1.00  0.00     0.010 A 
HETATM   40  C   UNL     1      44.034 -20.533   2.310  1.00  0.00     0.037 A 
HETATM   41  C   UNL     1      44.502 -20.994   3.541  1.00  0.00     0.068 A 
HETATM   42  C   UNL     1      44.583 -20.107   4.615  1.00  0.00     0.037 A 
HETATM   43  C   UNL     1      44.241 -18.762   4.454  1.00  0.00     0.010 A 
BRANCH  41  44
HETATM   44  O   UNL     1      44.887 -22.276   3.820  1.00  0.00    -0.356 OA
HETATM   45  C   UNL     1      45.213 -22.556   5.177  1.00  0.00     0.210 C 
ENDBRANCH  41  44
ENDBRANCH  37  38
ENDBRANCH  36  37
ENDBRANCH  33  36
ENDBRANCH   1  32
TORSDOF 9
ENDMDL
MODEL 10
REMARK VINA RESULT:      -8.9      3.207      8.853
REMARK  9 active torsions:
REMARK  status: ('A' for Active; 'I' for Inactive)
REMARK    1  A    between atoms: O_2  and  C_3 
REMARK    2  A    between atoms: C_6  and  C_7 
REMARK    3  A    between atoms: C_7  and  C_8 
REMARK    4  A    between atoms: C_8  and  N_9 
REMARK       I    between atoms: N_9  and  C_10 
REMARK    5  A    between atoms: C_10  and  C_11 
REMARK    6  A    between atoms: C_12  and  N_13 
REMARK    7  A    between atoms: N_14  and  C_15 
REMARK    8  A    between atoms: C_18  and  S_19 
REMARK    9  A    between atoms: S_19  and  N_20 
ROOT
HETATM    1  C   UNL     1      41.295 -14.864   1.197  1.00  0.00     0.103 C 
HETATM    2  C   UNL     1      40.417 -14.470   2.202  1.00  0.00     0.105 C 
HETATM    3  N   UNL     1      40.622 -13.096   2.397  1.00  0.00    -0.284 N 
HETATM    4  C   UNL     1      41.027 -12.607   1.159  1.00  0.00     0.166 A 
HETATM    5  C   UNL     1      41.540 -13.690   0.444  1.00  0.00     0.123 A 
HETATM    6  N   UNL     1      42.146 -13.517  -0.756  1.00  0.00    -0.242 NA
HETATM    7  C   UNL     1      42.122 -12.263  -1.230  1.00  0.00     0.086 A 
HETATM    8  C   UNL     1      41.556 -11.183  -0.508  1.00  0.00     0.088 A 
HETATM    9  N   UNL     1      41.020 -11.327   0.716  1.00  0.00    -0.226 NA
HETATM   10  C   UNL     1      42.660 -12.023  -2.489  1.00  0.00     0.034 A 
HETATM   11  C   UNL     1      42.644 -10.750  -3.059  1.00  0.00     0.002 A 
HETATM   12  C   UNL     1      42.084  -9.693  -2.356  1.00  0.00     0.002 A 
HETATM   13  C   UNL     1      41.550  -9.920  -1.086  1.00  0.00     0.034 A 
ENDROOT
BRANCH   3  14
HETATM   14  C   UNL     1      40.568 -12.382   3.650  1.00  0.00     0.042 A 
HETATM   15  C   UNL     1      39.479 -11.552   3.965  1.00  0.00     0.031 A 
HETATM   16  C   UNL     1      39.506 -10.728   5.098  1.00  0.00     0.027 A 
HETATM   17  C   UNL     1      40.620 -10.741   5.937  1.00  0.00     0.074 A 
HETATM   18  C   UNL     1      41.699 -11.573   5.661  1.00  0.00     0.027 A 
HETATM   19  C   UNL     1      41.678 -12.373   4.516  1.00  0.00     0.031 A 
BRANCH  17  20
HETATM   20  S   UNL     1      40.696  -9.650   7.332  1.00  0.00     0.243 S 
HETATM   21  O   UNL     1      41.882  -8.831   7.198  1.00  0.00    -0.206 OA
HETATM   22  O   UNL     1      39.387  -9.053   7.477  1.00  0.00    -0.206 OA
BRANCH  20  23
HETATM   23  N   UNL     1      40.947 -10.699   8.648  1.00  0.00    -0.202 NA
HETATM   24  C   UNL     1      42.106 -10.406   9.548  1.00  0.00     0.134 C 
HETATM   25  C   UNL     1      41.768  -9.353  10.610  1.00  0.00     0.183 C 
HETATM   26  O   UNL     1      40.600  -9.716  11.358  1.00  0.00    -0.389 OA
HETATM   27  C   UNL     1      39.470  -9.859  10.487  1.00  0.00     0.183 C 
HETATM   28  C   UNL     1      39.717 -10.970   9.460  1.00  0.00     0.134 C 
ENDBRANCH  20  23
ENDBRANCH  17  20
ENDBRANCH   3  14
BRANCH   2  29
HETATM   29  N   UNL     1      39.554 -15.232   2.933  1.00  0.00    -0.287 NA
HETATM   30  H   UNL     1      39.529 -15.073   3.943  1.00  0.00     0.125 HD
HETATM   31  H   UNL     1      39.541 -16.238   2.749  1.00  0.00     0.125 HD
ENDBRANCH   2  29
BRANCH   1  32
HETATM   32  C   UNL     1      41.785 -16.215   0.957  1.00  0.00     0.257 C 
HETATM   33  N   UNL     1      42.951 -16.498   1.648  1.00  0.00    -0.356 N 
HETATM   34  H   UNL     1      43.366 -15.724   2.157  1.00  0.00     0.162 HD
HETATM   35  O   UNL     1      41.289 -16.991   0.150  1.00  0.00    -0.267 OA
BRANCH  33  36
HETATM   36  C   UNL     1      43.860 -17.539   1.215  1.00  0.00     0.127 C 
BRANCH  36  37
HETATM   37  C   UNL     1      43.519 -18.910   1.816  1.00  0.00     0.058 C 
BRANCH  37  38
HETATM   38  C   UNL     1      43.534 -18.931   3.330  1.00  0.00    -0.057 A 
HETATM   39  C   UNL     1      44.578 -19.547   4.031  1.00  0.00     0.010 A 
HETATM   40  C   UNL     1      44.596 -19.547   5.433  1.00  0.00     0.037 A 
HETATM   41  C   UNL     1      43.569 -18.930   6.147  1.00  0.00     0.068 A 
HETATM   42  C   UNL     1      42.510 -18.344   5.453  1.00  0.00     0.037 A 
HETATM   43  C   UNL     1      42.495 -18.336   4.055  1.00  0.00     0.010 A 
BRANCH  41  44
HETATM   44  O   UNL     1      43.479 -18.852   7.510  1.00  0.00    -0.356 OA
HETATM   45  C   UNL     1      43.468 -17.543   8.067  1.00  0.00     0.210 C 
ENDBRANCH  41  44
ENDBRANCH  37  38
ENDBRANCH  36  37
ENDBRANCH  33  36
ENDBRANCH   1  32
TORSDOF 9
ENDMDL
