MODEL 1
REMARK VINA RESULT:      -8.3      0.000      0.000
REMARK  7 active torsions:
REMARK  status: ('A' for Active; 'I' for Inactive)
REMARK    1  A    between atoms: C_2  and  N_3 
REMARK    2  A    between atoms: C_2  and  C_17 
REMARK       I    between atoms: N_3  and  C_4 
REMARK    3  A    between atoms: C_4  and  C_5 
REMARK    4  A    between atoms: C_7  and  N_8 
REMARK    5  A    between atoms: C_17  and  O_18 
REMARK    6  A    between atoms: C_17  and  C_19 
REMARK    7  A    between atoms: C_22  and  O_23 
ROOT
HETATM    1  N   UNL     1      43.983 -15.258   7.438  1.00  0.00    -0.349 N 
HETATM    2  C   UNL     1      44.513 -14.100   6.913  1.00  0.00     0.270 C 
HETATM    3  O   UNL     1      44.657 -13.894   5.714  1.00  0.00    -0.266 OA
HETATM    4  H   UNL     1      43.890 -15.288   8.449  1.00  0.00     0.163 HD
ENDROOT
BRANCH   1   5
HETATM    5  C   UNL     1      43.540 -16.403   6.644  1.00  0.00     0.114 C 
HETATM    6  C   UNL     1      42.318 -17.057   7.297  1.00  0.00     0.035 C 
BRANCH   5   7
HETATM    7  C   UNL     1      44.659 -17.445   6.339  1.00  0.00     0.173 C 
BRANCH   7   8
HETATM    8  O   UNL     1      44.782 -18.373   7.427  1.00  0.00    -0.389 OA
HETATM    9  H   UNL     1      45.663 -18.227   7.812  1.00  0.00     0.210 HD
ENDBRANCH   7   8
BRANCH   7  10
HETATM   10  C   UNL     1      44.383 -18.241   5.076  1.00  0.00    -0.028 A 
HETATM   11  C   UNL     1      44.821 -19.568   4.973  1.00  0.00     0.012 A 
HETATM   12  C   UNL     1      44.581 -20.308   3.812  1.00  0.00     0.037 A 
HETATM   13  C   UNL     1      43.892 -19.744   2.738  1.00  0.00     0.068 A 
HETATM   14  C   UNL     1      43.460 -18.422   2.826  1.00  0.00     0.037 A 
HETATM   15  C   UNL     1      43.707 -17.676   3.984  1.00  0.00     0.012 A 
BRANCH  13  16
HETATM   16  O   UNL     1      43.711 -20.580   1.670  1.00  0.00    -0.356 OA
HETATM   17  C   UNL     1      44.158 -21.921   1.828  1.00  0.00     0.210 C 
ENDBRANCH  13  16
ENDBRANCH   7  10
ENDBRANCH   5   7
ENDBRANCH   1   5
BRANCH   2  18
HETATM   18  C   UNL     1      44.894 -13.073   7.937  1.00  0.00     0.126 A 
HETATM   19  N   UNL     1      43.936 -12.749   8.851  1.00  0.00    -0.224 NA
HETATM   20  C   UNL     1      44.277 -11.820   9.785  1.00  0.00     0.151 A 
HETATM   21  C   UNL     1      45.530 -11.205   9.821  1.00  0.00     0.052 A 
HETATM   22  C   UNL     1      46.481 -11.558   8.867  1.00  0.00     0.006 A 
HETATM   23  C   UNL     1      46.164 -12.514   7.908  1.00  0.00     0.037 A 
BRANCH  20  24
HETATM   24  N   UNL     1      43.311 -11.475  10.779  1.00  0.00    -0.227 N 
HETATM   25  N   UNL     1      42.082 -10.979  10.464  1.00  0.00    -0.179 NA
HETATM   26  C   UNL     1      41.494 -10.775  11.645  1.00  0.00     0.141 A 
HETATM   27  C   UNL     1      42.314 -11.127  12.727  1.00  0.00     0.040 A 
HETATM   28  C   UNL     1      43.475 -11.576  12.146  1.00  0.00     0.122 A 
ENDBRANCH  20  24
ENDBRANCH   2  18
TORSDOF 7
ENDMDL
MODEL 2
REMARK VINA RESULT:      -8.0      1.532      2.077
REMARK  7 active torsions:
REMARK  status: ('A' for Active; 'I' for Inactive)
REMARK    1  A    between atoms: C_2  and  N_3 
REMARK    2  A    between atoms: C_2  and  C_17 
REMARK       I    between atoms: N_3  and  C_4 
REMARK    3  A    between atoms: C_4  and  C_5 
REMARK    4  A    between atoms: C_7  and  N_8 
REMARK    5  A    between atoms: C_17  and  O_18 
REMARK    6  A    between atoms: C_17  and  C_19 
REMARK    7  A    between atoms: C_22  and  O_23 
ROOT
HETATM    1  N   UNL     1      43.777 -13.773   7.427  1.00  0.00    -0.349 N 
HETATM    2  C   UNL     1      44.945 -13.127   7.766  1.00  0.00     0.270 C 
HETATM    3  O   UNL     1      46.005 -13.267   7.167  1.00  0.00    -0.266 OA
HETATM    4  H   UNL     1      42.961 -13.544   7.988  1.00  0.00     0.163 HD
ENDROOT
BRANCH   1   5
HETATM    5  C   UNL     1      43.644 -14.726   6.327  1.00  0.00     0.114 C 
HETATM    6  C   UNL     1      43.008 -14.043   5.111  1.00  0.00     0.035 C 
BRANCH   5   7
HETATM    7  C   UNL     1      42.900 -16.043   6.703  1.00  0.00     0.173 C 
BRANCH   7   8
HETATM    8  O   UNL     1      41.489 -15.896   6.486  1.00  0.00    -0.389 OA
HETATM    9  H   UNL     1      41.289 -14.954   6.623  1.00  0.00     0.210 HD
ENDBRANCH   7   8
BRANCH   7  10
HETATM   10  C   UNL     1      43.376 -17.233   5.888  1.00  0.00    -0.028 A 
HETATM   11  C   UNL     1      44.576 -17.875   6.220  1.00  0.00     0.012 A 
HETATM   12  C   UNL     1      45.030 -18.966   5.473  1.00  0.00     0.037 A 
HETATM   13  C   UNL     1      44.291 -19.442   4.389  1.00  0.00     0.068 A 
HETATM   14  C   UNL     1      43.101 -18.805   4.044  1.00  0.00     0.037 A 
HETATM   15  C   UNL     1      42.650 -17.707   4.785  1.00  0.00     0.012 A 
BRANCH  13  16
HETATM   16  O   UNL     1      44.839 -20.523   3.753  1.00  0.00    -0.356 OA
HETATM   17  C   UNL     1      44.383 -20.782   2.431  1.00  0.00     0.210 C 
ENDBRANCH  13  16
ENDBRANCH   7  10
ENDBRANCH   5   7
ENDBRANCH   1   5
BRANCH   2  18
HETATM   18  C   UNL     1      44.823 -12.199   8.938  1.00  0.00     0.126 A 
HETATM   19  N   UNL     1      43.599 -12.140   9.535  1.00  0.00    -0.224 NA
HETATM   20  C   UNL     1      43.484 -11.303  10.602  1.00  0.00     0.151 A 
HETATM   21  C   UNL     1      44.543 -10.523  11.072  1.00  0.00     0.052 A 
HETATM   22  C   UNL     1      45.777 -10.607  10.433  1.00  0.00     0.006 A 
HETATM   23  C   UNL     1      45.927 -11.464   9.348  1.00  0.00     0.037 A 
BRANCH  20  24
HETATM   24  N   UNL     1      42.225 -11.234  11.274  1.00  0.00    -0.227 N 
HETATM   25  N   UNL     1      42.095 -11.463  12.610  1.00  0.00    -0.179 NA
HETATM   26  C   UNL     1      40.789 -11.321  12.846  1.00  0.00     0.141 A 
HETATM   27  C   UNL     1      40.062 -11.002  11.689  1.00  0.00     0.040 A 
HETATM   28  C   UNL     1      41.006 -10.951  10.693  1.00  0.00     0.122 A 
ENDBRANCH  20  24
ENDBRANCH   2  18
TORSDOF 7
ENDMDL
MODEL 3
REMARK VINA RESULT:      -7.9      2.806      4.775
REMARK  7 active torsions:
REMARK  status: ('A' for Active; 'I' for Inactive)
REMARK    1  A    between atoms: C_2  and  N_3 
REMARK    2  A    between atoms: C_2  and  C_17 
REMARK       I    between atoms: N_3  and  C_4 
REMARK    3  A    between atoms: C_4  and  C_5 
REMARK    4  A    between atoms: C_7  and  N_8 
REMARK    5  A    between atoms: C_17  and  O_18 
REMARK    6  A    between atoms: C_17  and  C_19 
REMARK    7  A    between atoms: C_22  and  O_23 
ROOT
HETATM    1  N   UNL     1      41.591 -15.116   3.069  1.00  0.00    -0.349 N 
HETATM    2  C   UNL     1      42.697 -14.403   3.476  1.00  0.00     0.270 C 
HETATM    3  O   UNL     1      43.196 -13.486   2.834  1.00  0.00    -0.266 OA
HETATM    4  H   UNL     1      41.261 -15.832   3.711  1.00  0.00     0.163 HD
ENDROOT
BRANCH   1   5
HETATM    5  C   UNL     1      40.876 -14.896   1.813  1.00  0.00     0.114 C 
HETATM    6  C   UNL     1      39.363 -14.922   2.056  1.00  0.00     0.035 C 
BRANCH   5   7
HETATM    7  C   UNL     1      41.292 -15.857   0.659  1.00  0.00     0.173 C 
BRANCH   7   8
HETATM    8  O   UNL     1      42.016 -15.137  -0.350  1.00  0.00    -0.389 OA
HETATM    9  H   UNL     1      41.423 -14.431  -0.659  1.00  0.00     0.210 HD
ENDBRANCH   7   8
BRANCH   7  10
HETATM   10  C   UNL     1      42.171 -16.998   1.140  1.00  0.00    -0.028 A 
HETATM   11  C   UNL     1      41.589 -18.194   1.582  1.00  0.00     0.012 A 
HETATM   12  C   UNL     1      42.386 -19.249   2.035  1.00  0.00     0.037 A 
HETATM   13  C   UNL     1      43.777 -19.135   2.046  1.00  0.00     0.068 A 
HETATM   14  C   UNL     1      44.366 -17.947   1.618  1.00  0.00     0.037 A 
HETATM   15  C   UNL     1      43.569 -16.887   1.172  1.00  0.00     0.012 A 
BRANCH  13  16
HETATM   16  O   UNL     1      44.439 -20.244   2.499  1.00  0.00    -0.356 OA
HETATM   17  C   UNL     1      43.995 -21.499   1.998  1.00  0.00     0.210 C 
ENDBRANCH  13  16
ENDBRANCH   7  10
ENDBRANCH   5   7
ENDBRANCH   1   5
BRANCH   2  18
HETATM   18  C   UNL     1      43.251 -14.822   4.804  1.00  0.00     0.126 A 
HETATM   19  N   UNL     1      43.971 -13.883   5.480  1.00  0.00    -0.224 NA
HETATM   20  C   UNL     1      44.472 -14.256   6.689  1.00  0.00     0.151 A 
HETATM   21  C   UNL     1      44.288 -15.532   7.226  1.00  0.00     0.052 A 
HETATM   22  C   UNL     1      43.551 -16.467   6.503  1.00  0.00     0.006 A 
HETATM   23  C   UNL     1      43.016 -16.109   5.271  1.00  0.00     0.037 A 
BRANCH  20  24
HETATM   24  N   UNL     1      45.208 -13.290   7.443  1.00  0.00    -0.227 N 
HETATM   25  N   UNL     1      46.451 -12.870   7.079  1.00  0.00    -0.179 NA
HETATM   26  C   UNL     1      46.797 -11.996   8.027  1.00  0.00     0.141 A 
HETATM   27  C   UNL     1      45.802 -11.836   9.004  1.00  0.00     0.040 A 
HETATM   28  C   UNL     1      44.791 -12.676   8.606  1.00  0.00     0.122 A 
ENDBRANCH  20  24
ENDBRANCH   2  18
TORSDOF 7
ENDMDL
MODEL 4
REMARK VINA RESULT:      -7.8      3.870      5.841
REMARK  7 active torsions:
REMARK  status: ('A' for Active; 'I' for Inactive)
REMARK    1  A    between atoms: C_2  and  N_3 
REMARK    2  A    between atoms: C_2  and  C_17 
REMARK       I    between atoms: N_3  and  C_4 
REMARK    3  A    between atoms: C_4  and  C_5 
REMARK    4  A    between atoms: C_7  and  N_8 
REMARK    5  A    between atoms: C_17  and  O_18 
REMARK    6  A    between atoms: C_17  and  C_19 
REMARK    7  A    between atoms: C_22  and  O_23 
ROOT
HETATM    1  N   UNL     1      41.497 -15.104   2.951  1.00  0.00    -0.349 N 
HETATM    2  C   UNL     1      42.569 -14.332   3.337  1.00  0.00     0.270 C 
HETATM    3  O   UNL     1      43.030 -13.415   2.666  1.00  0.00    -0.266 OA
HETATM    4  H   UNL     1      41.196 -15.812   3.616  1.00  0.00     0.163 HD
ENDROOT
BRANCH   1   5
HETATM    5  C   UNL     1      40.776 -14.956   1.689  1.00  0.00     0.114 C 
HETATM    6  C   UNL     1      39.268 -15.096   1.922  1.00  0.00     0.035 C 
BRANCH   5   7
HETATM    7  C   UNL     1      41.274 -15.896   0.549  1.00  0.00     0.173 C 
BRANCH   7   8
HETATM    8  O   UNL     1      42.032 -15.149  -0.415  1.00  0.00    -0.389 OA
HETATM    9  H   UNL     1      42.961 -15.403  -0.285  1.00  0.00     0.210 HD
ENDBRANCH   7   8
BRANCH   7  10
HETATM   10  C   UNL     1      42.154 -17.020   1.066  1.00  0.00    -0.028 A 
HETATM   11  C   UNL     1      41.575 -18.214   1.517  1.00  0.00     0.012 A 
HETATM   12  C   UNL     1      42.373 -19.253   2.003  1.00  0.00     0.037 A 
HETATM   13  C   UNL     1      43.762 -19.127   2.037  1.00  0.00     0.068 A 
HETATM   14  C   UNL     1      44.349 -17.940   1.599  1.00  0.00     0.037 A 
HETATM   15  C   UNL     1      43.550 -16.895   1.121  1.00  0.00     0.012 A 
BRANCH  13  16
HETATM   16  O   UNL     1      44.426 -20.222   2.521  1.00  0.00    -0.356 OA
HETATM   17  C   UNL     1      44.062 -21.481   1.969  1.00  0.00     0.210 C 
ENDBRANCH  13  16
ENDBRANCH   7  10
ENDBRANCH   5   7
ENDBRANCH   1   5
BRANCH   2  18
HETATM   18  C   UNL     1      43.138 -14.683   4.678  1.00  0.00     0.126 A 
HETATM   19  N   UNL     1      43.156 -16.009   4.996  1.00  0.00    -0.224 NA
HETATM   20  C   UNL     1      43.675 -16.335   6.211  1.00  0.00     0.151 A 
HETATM   21  C   UNL     1      44.157 -15.382   7.111  1.00  0.00     0.052 A 
HETATM   22  C   UNL     1      44.117 -14.036   6.753  1.00  0.00     0.006 A 
HETATM   23  C   UNL     1      43.604 -13.676   5.512  1.00  0.00     0.037 A 
BRANCH  20  24
HETATM   24  N   UNL     1      43.739 -17.716   6.570  1.00  0.00    -0.227 N 
HETATM   25  N   UNL     1      43.797 -18.135   7.865  1.00  0.00    -0.179 NA
HETATM   26  C   UNL     1      43.859 -19.465   7.781  1.00  0.00     0.141 A 
HETATM   27  C   UNL     1      43.843 -19.926   6.456  1.00  0.00     0.040 A 
HETATM   28  C   UNL     1      43.764 -18.785   5.697  1.00  0.00     0.122 A 
ENDBRANCH  20  24
ENDBRANCH   2  18
TORSDOF 7
ENDMDL
MODEL 5
REMARK VINA RESULT:      -7.8      6.430      9.622
REMARK  7 active torsions:
REMARK  status: ('A' for Active; 'I' for Inactive)
REMARK    1  A    between atoms: C_2  and  N_3 
REMARK    2  A    between atoms: C_2  and  C_17 
REMARK       I    between atoms: N_3  and  C_4 
REMARK    3  A    between atoms: C_4  and  C_5 
REMARK    4  A    between atoms: C_7  and  N_8 
REMARK    5  A    between atoms: C_17  and  O_18 
REMARK    6  A    between atoms: C_17  and  C_19 
REMARK    7  A    between atoms: C_22  and  O_23 
ROOT
HETATM    1  N   UNL     1      41.778 -14.574   1.334  1.00  0.00    -0.349 N 
HETATM    2  C   UNL     1      42.009 -13.313   0.829  1.00  0.00     0.270 C 
HETATM    3  O   UNL     1      42.338 -12.351   1.513  1.00  0.00    -0.266 OA
HETATM    4  H   UNL     1      41.541 -15.290   0.653  1.00  0.00     0.163 HD
ENDROOT
BRANCH   1   5
HETATM    5  C   UNL     1      41.872 -14.933   2.747  1.00  0.00     0.114 C 
HETATM    6  C   UNL     1      43.336 -14.919   3.200  1.00  0.00     0.035 C 
BRANCH   5   7
HETATM    7  C   UNL     1      41.166 -16.273   3.118  1.00  0.00     0.173 C 
BRANCH   7   8
HETATM    8  O   UNL     1      40.072 -16.522   2.224  1.00  0.00    -0.389 OA
HETATM    9  H   UNL     1      39.416 -15.825   2.395  1.00  0.00     0.210 HD
ENDBRANCH   7   8
BRANCH   7  10
HETATM   10  C   UNL     1      42.106 -17.464   3.050  1.00  0.00    -0.028 A 
HETATM   11  C   UNL     1      42.358 -18.088   1.821  1.00  0.00     0.012 A 
HETATM   12  C   UNL     1      43.214 -19.190   1.745  1.00  0.00     0.037 A 
HETATM   13  C   UNL     1      43.842 -19.683   2.890  1.00  0.00     0.068 A 
HETATM   14  C   UNL     1      43.590 -19.076   4.119  1.00  0.00     0.037 A 
HETATM   15  C   UNL     1      42.726 -17.978   4.198  1.00  0.00     0.012 A 
BRANCH  13  16
HETATM   16  O   UNL     1      44.665 -20.756   2.675  1.00  0.00    -0.356 OA
HETATM   17  C   UNL     1      44.160 -21.788   1.839  1.00  0.00     0.210 C 
ENDBRANCH  13  16
ENDBRANCH   7  10
ENDBRANCH   5   7
ENDBRANCH   1   5
BRANCH   2  18
HETATM   18  C   UNL     1      41.846 -13.200  -0.656  1.00  0.00     0.126 A 
HETATM   19  N   UNL     1      40.873 -13.974  -1.217  1.00  0.00    -0.224 NA
HETATM   20  C   UNL     1      40.717 -13.871  -2.565  1.00  0.00     0.151 A 
HETATM   21  C   UNL     1      41.507 -13.037  -3.359  1.00  0.00     0.052 A 
HETATM   22  C   UNL     1      42.494 -12.266  -2.751  1.00  0.00     0.006 A 
HETATM   23  C   UNL     1      42.667 -12.341  -1.373  1.00  0.00     0.037 A 
BRANCH  20  24
HETATM   24  N   UNL     1      39.689 -14.644  -3.187  1.00  0.00    -0.227 N 
HETATM   25  N   UNL     1      39.956 -15.738  -3.952  1.00  0.00    -0.179 NA
HETATM   26  C   UNL     1      38.757 -16.164  -4.354  1.00  0.00     0.141 A 
HETATM   27  C   UNL     1      37.709 -15.369  -3.866  1.00  0.00     0.040 A 
HETATM   28  C   UNL     1      38.332 -14.401  -3.117  1.00  0.00     0.122 A 
ENDBRANCH  20  24
ENDBRANCH   2  18
TORSDOF 7
ENDMDL
MODEL 6
REMARK VINA RESULT:      -7.7      5.876      8.648
REMARK  7 active torsions:
REMARK  status: ('A' for Active; 'I' for Inactive)
REMARK    1  A    between atoms: C_2  and  N_3 
REMARK    2  A    between atoms: C_2  and  C_17 
REMARK       I    between atoms: N_3  and  C_4 
REMARK    3  A    between atoms: C_4  and  C_5 
REMARK    4  A    between atoms: C_7  and  N_8 
REMARK    5  A    between atoms: C_17  and  O_18 
REMARK    6  A    between atoms: C_17  and  C_19 
REMARK    7  A    between atoms: C_22  and  O_23 
ROOT
HETATM    1  N   UNL     1      41.757 -15.337   1.620  1.00  0.00    -0.349 N 
HETATM    2  C   UNL     1      41.429 -16.000   0.458  1.00  0.00     0.270 C 
HETATM    3  O   UNL     1      41.127 -17.186   0.408  1.00  0.00    -0.266 OA
HETATM    4  H   UNL     1      41.958 -14.345   1.525  1.00  0.00     0.163 HD
ENDROOT
BRANCH   1   5
HETATM    5  C   UNL     1      41.810 -15.955   2.943  1.00  0.00     0.114 C 
HETATM    6  C   UNL     1      40.940 -15.167   3.929  1.00  0.00     0.035 C 
BRANCH   5   7
HETATM    7  C   UNL     1      43.252 -16.174   3.493  1.00  0.00     0.173 C 
BRANCH   7   8
HETATM    8  O   UNL     1      43.353 -15.672   4.834  1.00  0.00    -0.389 OA
HETATM    9  H   UNL     1      43.674 -16.411   5.378  1.00  0.00     0.210 HD
ENDBRANCH   7   8
BRANCH   7  10
HETATM   10  C   UNL     1      43.651 -17.639   3.512  1.00  0.00    -0.028 A 
HETATM   11  C   UNL     1      43.894 -18.285   4.732  1.00  0.00     0.012 A 
HETATM   12  C   UNL     1      44.270 -19.630   4.763  1.00  0.00     0.037 A 
HETATM   13  C   UNL     1      44.399 -20.360   3.580  1.00  0.00     0.068 A 
HETATM   14  C   UNL     1      44.170 -19.725   2.360  1.00  0.00     0.037 A 
HETATM   15  C   UNL     1      43.802 -18.375   2.328  1.00  0.00     0.012 A 
BRANCH  13  16
HETATM   16  O   UNL     1      44.758 -21.669   3.751  1.00  0.00    -0.356 OA
HETATM   17  C   UNL     1      45.012 -22.091   5.085  1.00  0.00     0.210 C 
ENDBRANCH  13  16
ENDBRANCH   7  10
ENDBRANCH   5   7
ENDBRANCH   1   5
BRANCH   2  18
HETATM   18  C   UNL     1      41.448 -15.143  -0.772  1.00  0.00     0.126 A 
HETATM   19  N   UNL     1      41.948 -13.884  -0.622  1.00  0.00    -0.224 NA
HETATM   20  C   UNL     1      41.972 -13.103  -1.737  1.00  0.00     0.151 A 
HETATM   21  C   UNL     1      41.503 -13.538  -2.978  1.00  0.00     0.052 A 
HETATM   22  C   UNL     1      40.995 -14.830  -3.091  1.00  0.00     0.006 A 
HETATM   23  C   UNL     1      40.970 -15.654  -1.971  1.00  0.00     0.037 A 
BRANCH  20  24
HETATM   24  N   UNL     1      42.516 -11.787  -1.627  1.00  0.00    -0.227 N 
HETATM   25  N   UNL     1      42.939 -11.265  -0.442  1.00  0.00    -0.179 NA
HETATM   26  C   UNL     1      43.356 -10.035  -0.751  1.00  0.00     0.141 A 
HETATM   27  C   UNL     1      43.214  -9.742  -2.116  1.00  0.00     0.040 A 
HETATM   28  C   UNL     1      42.674 -10.882  -2.658  1.00  0.00     0.122 A 
ENDBRANCH  20  24
ENDBRANCH   2  18
TORSDOF 7
ENDMDL
MODEL 7
REMARK VINA RESULT:      -7.7      5.582      8.626
REMARK  7 active torsions:
REMARK  status: ('A' for Active; 'I' for Inactive)
REMARK    1  A    between atoms: C_2  and  N_3 
REMARK    2  A    between atoms: C_2  and  C_17 
REMARK       I    between atoms: N_3  and  C_4 
REMARK    3  A    between atoms: C_4  and  C_5 
REMARK    4  A    between atoms: C_7  and  N_8 
REMARK    5  A    between atoms: C_17  and  O_18 
REMARK    6  A    between atoms: C_17  and  C_19 
REMARK    7  A    between atoms: C_22  and  O_23 
ROOT
HETATM    1  N   UNL     1      40.804 -15.351   3.320  1.00  0.00    -0.349 N 
HETATM    2  C   UNL     1      40.225 -15.935   2.215  1.00  0.00     0.270 C 
HETATM    3  O   UNL     1      40.149 -17.146   2.040  1.00  0.00    -0.266 OA
HETATM    4  H   UNL     1      40.773 -14.336   3.355  1.00  0.00     0.163 HD
ENDROOT
BRANCH   1   5
HETATM    5  C   UNL     1      41.423 -16.087   4.420  1.00  0.00     0.114 C 
HETATM    6  C   UNL     1      40.944 -15.528   5.764  1.00  0.00     0.035 C 
BRANCH   5   7
HETATM    7  C   UNL     1      42.978 -16.164   4.348  1.00  0.00     0.173 C 
BRANCH   7   8
HETATM    8  O   UNL     1      43.551 -15.813   5.616  1.00  0.00    -0.389 OA
HETATM    9  H   UNL     1      44.459 -15.516   5.432  1.00  0.00     0.210 HD
ENDBRANCH   7   8
BRANCH   7  10
HETATM   10  C   UNL     1      43.475 -17.551   3.979  1.00  0.00    -0.028 A 
HETATM   11  C   UNL     1      43.440 -17.976   2.644  1.00  0.00     0.012 A 
HETATM   12  C   UNL     1      43.887 -19.253   2.292  1.00  0.00     0.037 A 
HETATM   13  C   UNL     1      44.386 -20.124   3.261  1.00  0.00     0.068 A 
HETATM   14  C   UNL     1      44.417 -19.715   4.593  1.00  0.00     0.037 A 
HETATM   15  C   UNL     1      43.961 -18.440   4.949  1.00  0.00     0.012 A 
BRANCH  13  16
HETATM   16  O   UNL     1      44.804 -21.336   2.781  1.00  0.00    -0.356 OA
HETATM   17  C   UNL     1      44.091 -21.860   1.668  1.00  0.00     0.210 C 
ENDBRANCH  13  16
ENDBRANCH   7  10
ENDBRANCH   5   7
ENDBRANCH   1   5
BRANCH   2  18
HETATM   18  C   UNL     1      39.661 -14.963   1.223  1.00  0.00     0.126 A 
HETATM   19  N   UNL     1      40.505 -14.550   0.237  1.00  0.00    -0.224 NA
HETATM   20  C   UNL     1      39.997 -13.671  -0.670  1.00  0.00     0.151 A 
HETATM   21  C   UNL     1      38.687 -13.190  -0.608  1.00  0.00     0.052 A 
HETATM   22  C   UNL     1      37.855 -13.631   0.418  1.00  0.00     0.006 A 
HETATM   23  C   UNL     1      38.345 -14.539   1.351  1.00  0.00     0.037 A 
BRANCH  20  24
HETATM   24  N   UNL     1      40.842 -13.236  -1.737  1.00  0.00    -0.227 N 
HETATM   25  N   UNL     1      42.200 -13.223  -1.636  1.00  0.00    -0.179 NA
HETATM   26  C   UNL     1      42.615 -12.748  -2.812  1.00  0.00     0.141 A 
HETATM   27  C   UNL     1      41.555 -12.450  -3.681  1.00  0.00     0.040 A 
HETATM   28  C   UNL     1      40.426 -12.773  -2.969  1.00  0.00     0.122 A 
ENDBRANCH  20  24
ENDBRANCH   2  18
TORSDOF 7
ENDMDL
MODEL 8
REMARK VINA RESULT:      -7.4      5.289      8.899
REMARK  7 active torsions:
REMARK  status: ('A' for Active; 'I' for Inactive)
REMARK    1  A    between atoms: C_2  and  N_3 
REMARK    2  A    between atoms: C_2  and  C_17 
REMARK       I    between atoms: N_3  and  C_4 
REMARK    3  A    between atoms: C_4  and  C_5 
REMARK    4  A    between atoms: C_7  and  N_8 
REMARK    5  A    between atoms: C_17  and  O_18 
REMARK    6  A    between atoms: C_17  and  C_19 
REMARK    7  A    between atoms: C_22  and  O_23 
ROOT
HETATM    1  N   UNL     1      41.811 -16.016   3.383  1.00  0.00    -0.349 N 
HETATM    2  C   UNL     1      42.890 -15.759   4.199  1.00  0.00     0.270 C 
HETATM    3  O   UNL     1      43.256 -14.633   4.517  1.00  0.00    -0.266 OA
HETATM    4  H   UNL     1      41.597 -16.997   3.223  1.00  0.00     0.163 HD
ENDROOT
BRANCH   1   5
HETATM    5  C   UNL     1      40.970 -14.990   2.770  1.00  0.00     0.114 C 
HETATM    6  C   UNL     1      39.872 -14.555   3.746  1.00  0.00     0.035 C 
BRANCH   5   7
HETATM    7  C   UNL     1      40.384 -15.385   1.380  1.00  0.00     0.173 C 
BRANCH   7   8
HETATM    8  O   UNL     1      38.963 -15.184   1.366  1.00  0.00    -0.389 OA
HETATM    9  H   UNL     1      38.802 -14.414   0.794  1.00  0.00     0.210 HD
ENDBRANCH   7   8
BRANCH   7  10
HETATM   10  C   UNL     1      40.981 -14.572   0.245  1.00  0.00    -0.028 A 
HETATM   11  C   UNL     1      41.589 -13.337   0.510  1.00  0.00     0.012 A 
HETATM   12  C   UNL     1      42.135 -12.576  -0.527  1.00  0.00     0.037 A 
HETATM   13  C   UNL     1      42.095 -13.035  -1.844  1.00  0.00     0.068 A 
HETATM   14  C   UNL     1      41.485 -14.258  -2.120  1.00  0.00     0.037 A 
HETATM   15  C   UNL     1      40.930 -15.017  -1.085  1.00  0.00     0.012 A 
BRANCH  13  16
HETATM   16  O   UNL     1      42.678 -12.201  -2.760  1.00  0.00    -0.356 OA
HETATM   17  C   UNL     1      42.785 -10.831  -2.395  1.00  0.00     0.210 C 
ENDBRANCH  13  16
ENDBRANCH   7  10
ENDBRANCH   5   7
ENDBRANCH   1   5
BRANCH   2  18
HETATM   18  C   UNL     1      43.594 -16.983   4.702  1.00  0.00     0.126 A 
HETATM   19  N   UNL     1      43.560 -18.075   3.886  1.00  0.00    -0.224 NA
HETATM   20  C   UNL     1      44.202 -19.188   4.335  1.00  0.00     0.151 A 
HETATM   21  C   UNL     1      44.855 -19.242   5.568  1.00  0.00     0.052 A 
HETATM   22  C   UNL     1      44.863 -18.108   6.376  1.00  0.00     0.006 A 
HETATM   23  C   UNL     1      44.227 -16.953   5.937  1.00  0.00     0.037 A 
BRANCH  20  24
HETATM   24  N   UNL     1      44.215 -20.345   3.497  1.00  0.00    -0.227 N 
HETATM   25  N   UNL     1      44.689 -21.550   3.918  1.00  0.00    -0.179 NA
HETATM   26  C   UNL     1      44.545 -22.352   2.861  1.00  0.00     0.141 A 
HETATM   27  C   UNL     1      43.984 -21.695   1.756  1.00  0.00     0.040 A 
HETATM   28  C   UNL     1      43.779 -20.408   2.188  1.00  0.00     0.122 A 
ENDBRANCH  20  24
ENDBRANCH   2  18
TORSDOF 7
ENDMDL
MODEL 9
REMARK VINA RESULT:      -7.3      6.903      9.984
REMARK  7 active torsions:
REMARK  status: ('A' for Active; 'I' for Inactive)
REMARK    1  A    between atoms: C_2  and  N_3 
REMARK    2  A    between atoms: C_2  and  C_17 
REMARK       I    between atoms: N_3  and  C_4 
REMARK    3  A    between atoms: C_4  and  C_5 
REMARK    4  A    between atoms: C_7  and  N_8 
REMARK    5  A    between atoms: C_17  and  O_18 
REMARK    6  A    between atoms: C_17  and  C_19 
REMARK    7  A    between atoms: C_22  and  O_23 
ROOT
HETATM    1  N   UNL     1      41.755 -16.259  -0.096  1.00  0.00    -0.349 N 
HETATM    2  C   UNL     1      41.407 -14.936   0.065  1.00  0.00     0.270 C 
HETATM    3  O   UNL     1      41.326 -14.376   1.152  1.00  0.00    -0.266 OA
HETATM    4  H   UNL     1      41.814 -16.591  -1.055  1.00  0.00     0.163 HD
ENDROOT
BRANCH   1   5
HETATM    5  C   UNL     1      42.054 -17.179   1.000  1.00  0.00     0.114 C 
HETATM    6  C   UNL     1      40.918 -17.163   2.028  1.00  0.00     0.035 C 
BRANCH   5   7
HETATM    7  C   UNL     1      43.442 -16.950   1.671  1.00  0.00     0.173 C 
BRANCH   7   8
HETATM    8  O   UNL     1      43.423 -15.747   2.454  1.00  0.00    -0.389 OA
HETATM    9  H   UNL     1      44.288 -15.694   2.894  1.00  0.00     0.210 HD
ENDBRANCH   7   8
BRANCH   7  10
HETATM   10  C   UNL     1      43.843 -18.095   2.585  1.00  0.00    -0.028 A 
HETATM   11  C   UNL     1      44.081 -19.368   2.050  1.00  0.00     0.012 A 
HETATM   12  C   UNL     1      44.442 -20.432   2.881  1.00  0.00     0.037 A 
HETATM   13  C   UNL     1      44.583 -20.246   4.256  1.00  0.00     0.068 A 
HETATM   14  C   UNL     1      44.338 -18.985   4.800  1.00  0.00     0.037 A 
HETATM   15  C   UNL     1      43.968 -17.921   3.971  1.00  0.00     0.012 A 
BRANCH  13  16
HETATM   16  O   UNL     1      44.954 -21.364   4.952  1.00  0.00    -0.356 OA
HETATM   17  C   UNL     1      44.694 -22.616   4.330  1.00  0.00     0.210 C 
ENDBRANCH  13  16
ENDBRANCH   7  10
ENDBRANCH   5   7
ENDBRANCH   1   5
BRANCH   2  18
HETATM   18  C   UNL     1      41.146 -14.203  -1.217  1.00  0.00     0.126 A 
HETATM   19  N   UNL     1      39.897 -14.340  -1.745  1.00  0.00    -0.224 NA
HETATM   20  C   UNL     1      39.653 -13.672  -2.906  1.00  0.00     0.151 A 
HETATM   21  C   UNL     1      40.616 -12.895  -3.551  1.00  0.00     0.052 A 
HETATM   22  C   UNL     1      41.883 -12.784  -2.983  1.00  0.00     0.006 A 
HETATM   23  C   UNL     1      42.156 -13.444  -1.791  1.00  0.00     0.037 A 
BRANCH  20  24
HETATM   24  N   UNL     1      38.346 -13.766  -3.477  1.00  0.00    -0.227 N 
HETATM   25  N   UNL     1      37.621 -12.668  -3.830  1.00  0.00    -0.179 NA
HETATM   26  C   UNL     1      36.476 -13.164  -4.302  1.00  0.00     0.141 A 
HETATM   27  C   UNL     1      36.437 -14.566  -4.265  1.00  0.00     0.040 A 
HETATM   28  C   UNL     1      37.650 -14.930  -3.733  1.00  0.00     0.122 A 
ENDBRANCH  20  24
ENDBRANCH   2  18
TORSDOF 7
ENDMDL
MODEL 10
REMARK VINA RESULT:      -7.2      4.670      8.396
REMARK  7 active torsions:
REMARK  status: ('A' for Active; 'I' for Inactive)
REMARK    1  A    between atoms: C_2  and  N_3 
REMARK    2  A    between atoms: C_2  and  C_17 
REMARK       I    between atoms: N_3  and  C_4 
REMARK    3  A    between atoms: C_4  and  C_5 
REMARK    4  A    between atoms: C_7  and  N_8 
REMARK    5  A    between atoms: C_17  and  O_18 
REMARK    6  A    between atoms: C_17  and  C_19 
REMARK    7  A    between atoms: C_22  and  O_23 
ROOT
HETATM    1  N   UNL     1      41.842 -15.897   1.926  1.00  0.00    -0.349 N 
HETATM    2  C   UNL     1      41.774 -17.249   1.672  1.00  0.00     0.270 C 
HETATM    3  O   UNL     1      41.074 -17.748   0.800  1.00  0.00    -0.266 OA
HETATM    4  H   UNL     1      42.487 -15.613   2.659  1.00  0.00     0.163 HD
ENDROOT
BRANCH   1   5
HETATM    5  C   UNL     1      41.077 -14.878   1.211  1.00  0.00     0.114 C 
HETATM    6  C   UNL     1      41.826 -13.541   1.237  1.00  0.00     0.035 C 
BRANCH   5   7
HETATM    7  C   UNL     1      39.603 -14.724   1.692  1.00  0.00     0.173 C 
BRANCH   7   8
HETATM    8  O   UNL     1      39.048 -16.008   2.011  1.00  0.00    -0.389 OA
HETATM    9  H   UNL     1      38.260 -15.837   2.556  1.00  0.00     0.210 HD
ENDBRANCH   7   8
BRANCH   7  10
HETATM   10  C   UNL     1      39.482 -13.844   2.924  1.00  0.00    -0.028 A 
HETATM   11  C   UNL     1      39.850 -14.343   4.181  1.00  0.00     0.012 A 
HETATM   12  C   UNL     1      39.736 -13.546   5.324  1.00  0.00     0.037 A 
HETATM   13  C   UNL     1      39.264 -12.236   5.234  1.00  0.00     0.068 A 
HETATM   14  C   UNL     1      38.886 -11.733   3.990  1.00  0.00     0.037 A 
HETATM   15  C   UNL     1      38.991 -12.532   2.846  1.00  0.00     0.012 A 
BRANCH  13  16
HETATM   16  O   UNL     1      39.216 -11.561   6.424  1.00  0.00    -0.356 OA
HETATM   17  C   UNL     1      39.876 -10.302   6.468  1.00  0.00     0.210 C 
ENDBRANCH  13  16
ENDBRANCH   7  10
ENDBRANCH   5   7
ENDBRANCH   1   5
BRANCH   2  18
HETATM   18  C   UNL     1      42.656 -18.090   2.546  1.00  0.00     0.126 A 
HETATM   19  N   UNL     1      42.686 -17.759   3.868  1.00  0.00    -0.224 NA
HETATM   20  C   UNL     1      43.481 -18.522   4.667  1.00  0.00     0.151 A 
HETATM   21  C   UNL     1      44.248 -19.583   4.183  1.00  0.00     0.052 A 
HETATM   22  C   UNL     1      44.196 -19.888   2.825  1.00  0.00     0.006 A 
HETATM   23  C   UNL     1      43.382 -19.133   1.987  1.00  0.00     0.037 A 
BRANCH  20  24
HETATM   24  N   UNL     1      43.517 -18.226   6.065  1.00  0.00    -0.227 N 
HETATM   25  N   UNL     1      42.876 -17.150   6.602  1.00  0.00    -0.179 NA
HETATM   26  C   UNL     1      43.158 -17.213   7.905  1.00  0.00     0.141 A 
HETATM   27  C   UNL     1      43.970 -18.310   8.231  1.00  0.00     0.040 A 
HETATM   28  C   UNL     1      44.186 -18.946   7.033  1.00  0.00     0.122 A 
ENDBRANCH  20  24
ENDBRANCH   2  18
TORSDOF 7
ENDMDL
