MODEL 1
REMARK VINA RESULT:      -8.5      0.000      0.000
REMARK  2 active torsions:
REMARK  status: ('A' for Active; 'I' for Inactive)
REMARK    1  A    between atoms: C_9  and  O_10 
REMARK    2  A    between atoms: C_9  and  C_11 
ROOT
HETATM    1  C   UNL     1      44.702 -22.466   4.225  1.00  0.00     0.048 C 
HETATM    2  C   UNL     1      44.361 -21.443   5.270  1.00  0.00    -0.061 A 
HETATM    3  C   UNL     1      44.291 -20.082   4.939  1.00  0.00     0.020 A 
HETATM    4  C   UNL     1      43.957 -19.172   5.933  1.00  0.00     0.018 A 
HETATM    5  C   UNL     1      43.716 -19.610   7.236  1.00  0.00     0.045 A 
HETATM    6  N   UNL     1      43.431 -18.536   8.064  1.00  0.00    -0.323 N 
HETATM    7  C   UNL     1      43.457 -17.328   7.364  1.00  0.00     0.266 A 
HETATM    8  O   UNL     1      43.259 -16.238   7.878  1.00  0.00    -0.269 OA
HETATM    9  C   UNL     1      43.836 -17.662   5.875  1.00  0.00     0.199 A 
HETATM   10  C   UNL     1      43.777 -20.939   7.594  1.00  0.00     0.031 A 
HETATM   11  C   UNL     1      44.100 -21.861   6.595  1.00  0.00     0.009 A 
HETATM   12  H   UNL     1      43.222 -18.586   9.050  1.00  0.00     0.169 HD
ENDROOT
BRANCH   9  13
HETATM   13  O   UNL     1      45.101 -17.097   5.548  1.00  0.00    -0.371 OA
HETATM   14  H   UNL     1      45.262 -16.390   6.194  1.00  0.00     0.212 HD
ENDBRANCH   9  13
BRANCH   9  15
HETATM   15  C   UNL     1      42.741 -17.358   4.873  1.00  0.00     0.025 A 
HETATM   16  C   UNL     1      42.906 -17.297   3.436  1.00  0.00     0.003 A 
HETATM   17  C   UNL     1      41.662 -17.024   2.871  1.00  0.00     0.043 A 
HETATM   18  C   UNL     1      44.001 -17.463   2.557  1.00  0.00     0.014 A 
HETATM   19  C   UNL     1      41.453 -16.910   1.490  1.00  0.00     0.030 A 
HETATM   20  N   UNL     1      40.771 -16.902   3.904  1.00  0.00    -0.359 N 
HETATM   21  C   UNL     1      42.555 -17.081   0.649  1.00  0.00     0.002 A 
HETATM   22  C   UNL     1      43.814 -17.354   1.173  1.00  0.00     0.001 A 
HETATM   23  H   UNL     1      39.790 -16.695   3.782  1.00  0.00     0.166 HD
HETATM   24  C   UNL     1      41.386 -17.117   5.112  1.00  0.00     0.016 A 
HETATM   25  C   UNL     1      40.590 -17.068   6.369  1.00  0.00     0.069 C 
ENDBRANCH   9  15
TORSDOF 2
ENDMDL
MODEL 2
REMARK VINA RESULT:      -8.4      2.663      3.916
REMARK  2 active torsions:
REMARK  status: ('A' for Active; 'I' for Inactive)
REMARK    1  A    between atoms: C_9  and  O_10 
REMARK    2  A    between atoms: C_9  and  C_11 
ROOT
HETATM    1  C   UNL     1      43.633 -17.676   1.130  1.00  0.00     0.048 C 
HETATM    2  C   UNL     1      43.710 -17.793   2.625  1.00  0.00    -0.061 A 
HETATM    3  C   UNL     1      43.465 -16.678   3.441  1.00  0.00     0.020 A 
HETATM    4  C   UNL     1      43.532 -16.835   4.819  1.00  0.00     0.018 A 
HETATM    5  C   UNL     1      43.855 -18.074   5.371  1.00  0.00     0.045 A 
HETATM    6  N   UNL     1      43.894 -17.994   6.755  1.00  0.00    -0.323 N 
HETATM    7  C   UNL     1      43.592 -16.705   7.202  1.00  0.00     0.266 A 
HETATM    8  O   UNL     1      43.582 -16.377   8.378  1.00  0.00    -0.269 OA
HETATM    9  C   UNL     1      43.346 -15.817   5.928  1.00  0.00     0.199 A 
HETATM   10  C   UNL     1      44.102 -19.188   4.599  1.00  0.00     0.031 A 
HETATM   11  C   UNL     1      44.024 -19.040   3.212  1.00  0.00     0.009 A 
HETATM   12  H   UNL     1      44.105 -18.751   7.387  1.00  0.00     0.169 HD
ENDROOT
BRANCH   9  13
HETATM   13  O   UNL     1      44.349 -14.813   5.824  1.00  0.00    -0.371 OA
HETATM   14  H   UNL     1      44.056 -14.072   6.379  1.00  0.00     0.212 HD
ENDBRANCH   9  13
BRANCH   9  15
HETATM   15  C   UNL     1      41.929 -15.297   5.799  1.00  0.00     0.025 A 
HETATM   16  C   UNL     1      41.554 -13.977   5.335  1.00  0.00     0.003 A 
HETATM   17  C   UNL     1      40.162 -13.903   5.332  1.00  0.00     0.043 A 
HETATM   18  C   UNL     1      42.271 -12.839   4.903  1.00  0.00     0.014 A 
HETATM   19  C   UNL     1      39.456 -12.763   4.923  1.00  0.00     0.030 A 
HETATM   20  N   UNL     1      39.695 -15.106   5.788  1.00  0.00    -0.359 N 
HETATM   21  C   UNL     1      40.194 -11.656   4.500  1.00  0.00     0.002 A 
HETATM   22  C   UNL     1      41.584 -11.691   4.489  1.00  0.00     0.001 A 
HETATM   23  H   UNL     1      38.715 -15.327   5.896  1.00  0.00     0.166 HD
HETATM   24  C   UNL     1      40.729 -15.966   6.055  1.00  0.00     0.016 A 
HETATM   25  C   UNL     1      40.442 -17.348   6.529  1.00  0.00     0.069 C 
ENDBRANCH   9  15
TORSDOF 2
ENDMDL
MODEL 3
REMARK VINA RESULT:      -8.3      2.946      6.095
REMARK  2 active torsions:
REMARK  status: ('A' for Active; 'I' for Inactive)
REMARK    1  A    between atoms: C_9  and  O_10 
REMARK    2  A    between atoms: C_9  and  C_11 
ROOT
HETATM    1  C   UNL     1      37.675 -14.384   1.008  1.00  0.00     0.048 C 
HETATM    2  C   UNL     1      39.064 -13.999   1.429  1.00  0.00    -0.061 A 
HETATM    3  C   UNL     1      39.609 -14.492   2.624  1.00  0.00     0.020 A 
HETATM    4  C   UNL     1      40.902 -14.124   2.968  1.00  0.00     0.018 A 
HETATM    5  C   UNL     1      41.631 -13.265   2.145  1.00  0.00     0.045 A 
HETATM    6  N   UNL     1      42.879 -13.009   2.693  1.00  0.00    -0.323 N 
HETATM    7  C   UNL     1      43.055 -13.686   3.902  1.00  0.00     0.266 A 
HETATM    8  O   UNL     1      44.063 -13.605   4.587  1.00  0.00    -0.269 OA
HETATM    9  C   UNL     1      41.726 -14.474   4.192  1.00  0.00     0.199 A 
HETATM   10  C   UNL     1      41.126 -12.762   0.965  1.00  0.00     0.031 A 
HETATM   11  C   UNL     1      39.829 -13.140   0.608  1.00  0.00     0.009 A 
HETATM   12  H   UNL     1      43.592 -12.419   2.294  1.00  0.00     0.169 HD
ENDROOT
BRANCH   9  13
HETATM   13  O   UNL     1      41.089 -13.957   5.356  1.00  0.00    -0.371 OA
HETATM   14  H   UNL     1      41.798 -13.695   5.965  1.00  0.00     0.212 HD
ENDBRANCH   9  13
BRANCH   9  15
HETATM   15  C   UNL     1      41.883 -15.980   4.186  1.00  0.00     0.025 A 
HETATM   16  C   UNL     1      42.618 -16.747   3.203  1.00  0.00     0.003 A 
HETATM   17  C   UNL     1      42.551 -18.091   3.568  1.00  0.00     0.043 A 
HETATM   18  C   UNL     1      43.350 -16.423   2.038  1.00  0.00     0.014 A 
HETATM   19  C   UNL     1      43.170 -19.116   2.840  1.00  0.00     0.030 A 
HETATM   20  N   UNL     1      41.798 -18.158   4.709  1.00  0.00    -0.359 N 
HETATM   21  C   UNL     1      43.886 -18.761   1.695  1.00  0.00     0.002 A 
HETATM   22  C   UNL     1      43.977 -17.432   1.297  1.00  0.00     0.001 A 
HETATM   23  H   UNL     1      41.579 -19.020   5.191  1.00  0.00     0.166 HD
HETATM   24  C   UNL     1      41.402 -16.909   5.113  1.00  0.00     0.016 A 
HETATM   25  C   UNL     1      40.600 -16.750   6.357  1.00  0.00     0.069 C 
ENDBRANCH   9  15
TORSDOF 2
ENDMDL
MODEL 4
REMARK VINA RESULT:      -8.2      2.755      4.824
REMARK  2 active torsions:
REMARK  status: ('A' for Active; 'I' for Inactive)
REMARK    1  A    between atoms: C_9  and  O_10 
REMARK    2  A    between atoms: C_9  and  C_11 
ROOT
HETATM    1  C   UNL     1      45.383 -20.405   4.707  1.00  0.00     0.048 C 
HETATM    2  C   UNL     1      44.351 -19.776   3.816  1.00  0.00    -0.061 A 
HETATM    3  C   UNL     1      43.560 -18.715   4.281  1.00  0.00     0.020 A 
HETATM    4  C   UNL     1      42.629 -18.152   3.419  1.00  0.00     0.018 A 
HETATM    5  C   UNL     1      42.476 -18.650   2.125  1.00  0.00     0.045 A 
HETATM    6  N   UNL     1      41.476 -17.963   1.454  1.00  0.00    -0.323 N 
HETATM    7  C   UNL     1      40.913 -16.967   2.255  1.00  0.00     0.266 A 
HETATM    8  O   UNL     1      40.000 -16.240   1.897  1.00  0.00    -0.269 OA
HETATM    9  C   UNL     1      41.633 -17.032   3.652  1.00  0.00     0.199 A 
HETATM   10  C   UNL     1      43.237 -19.691   1.637  1.00  0.00     0.031 A 
HETATM   11  C   UNL     1      44.184 -20.253   2.496  1.00  0.00     0.009 A 
HETATM   12  H   UNL     1      41.173 -18.132   0.507  1.00  0.00     0.169 HD
ENDROOT
BRANCH   9  13
HETATM   13  O   UNL     1      40.711 -17.420   4.665  1.00  0.00    -0.371 OA
HETATM   14  H   UNL     1      40.367 -16.599   5.053  1.00  0.00     0.212 HD
ENDBRANCH   9  13
BRANCH   9  15
HETATM   15  C   UNL     1      42.446 -15.799   3.989  1.00  0.00     0.025 A 
HETATM   16  C   UNL     1      43.063 -15.520   5.269  1.00  0.00     0.003 A 
HETATM   17  C   UNL     1      43.743 -14.309   5.162  1.00  0.00     0.043 A 
HETATM   18  C   UNL     1      43.118 -16.194   6.510  1.00  0.00     0.014 A 
HETATM   19  C   UNL     1      44.469 -13.741   6.218  1.00  0.00     0.030 A 
HETATM   20  N   UNL     1      43.545 -13.848   3.888  1.00  0.00    -0.359 N 
HETATM   21  C   UNL     1      44.505 -14.433   7.430  1.00  0.00     0.002 A 
HETATM   22  C   UNL     1      43.839 -15.644   7.577  1.00  0.00     0.001 A 
HETATM   23  H   UNL     1      43.922 -12.978   3.537  1.00  0.00     0.166 HD
HETATM   24  C   UNL     1      42.789 -14.730   3.158  1.00  0.00     0.016 A 
HETATM   25  C   UNL     1      42.483 -14.440   1.730  1.00  0.00     0.069 C 
ENDBRANCH   9  15
TORSDOF 2
ENDMDL
MODEL 5
REMARK VINA RESULT:      -7.9      2.477      3.316
REMARK  2 active torsions:
REMARK  status: ('A' for Active; 'I' for Inactive)
REMARK    1  A    between atoms: C_9  and  O_10 
REMARK    2  A    between atoms: C_9  and  C_11 
ROOT
HETATM    1  C   UNL     1      43.580 -19.915   2.095  1.00  0.00     0.048 C 
HETATM    2  C   UNL     1      43.677 -18.888   3.186  1.00  0.00    -0.061 A 
HETATM    3  C   UNL     1      43.335 -17.550   2.938  1.00  0.00     0.020 A 
HETATM    4  C   UNL     1      43.425 -16.637   3.980  1.00  0.00     0.018 A 
HETATM    5  C   UNL     1      43.865 -17.046   5.239  1.00  0.00     0.045 A 
HETATM    6  N   UNL     1      43.905 -15.970   6.113  1.00  0.00    -0.323 N 
HETATM    7  C   UNL     1      43.488 -14.790   5.492  1.00  0.00     0.266 A 
HETATM    8  O   UNL     1      43.455 -13.704   6.048  1.00  0.00    -0.269 OA
HETATM    9  C   UNL     1      43.152 -15.145   3.998  1.00  0.00     0.199 A 
HETATM   10  C   UNL     1      44.208 -18.351   5.516  1.00  0.00     0.031 A 
HETATM   11  C   UNL     1      44.109 -19.278   4.475  1.00  0.00     0.009 A 
HETATM   12  H   UNL     1      44.189 -16.002   7.080  1.00  0.00     0.169 HD
ENDROOT
BRANCH   9  13
HETATM   13  O   UNL     1      44.058 -14.487   3.118  1.00  0.00    -0.371 OA
HETATM   14  H   UNL     1      44.500 -13.800   3.642  1.00  0.00     0.212 HD
ENDBRANCH   9  13
BRANCH   9  15
HETATM   15  C   UNL     1      41.692 -14.972   3.631  1.00  0.00     0.025 A 
HETATM   16  C   UNL     1      41.184 -14.680   2.307  1.00  0.00     0.003 A 
HETATM   17  C   UNL     1      39.793 -14.630   2.383  1.00  0.00     0.043 A 
HETATM   18  C   UNL     1      41.778 -14.465   1.043  1.00  0.00     0.014 A 
HETATM   19  C   UNL     1      38.973 -14.382   1.274  1.00  0.00     0.030 A 
HETATM   20  N   UNL     1      39.454 -14.861   3.689  1.00  0.00    -0.359 N 
HETATM   21  C   UNL     1      39.592 -14.176   0.039  1.00  0.00     0.002 A 
HETATM   22  C   UNL     1      40.976 -14.217  -0.078  1.00  0.00     0.001 A 
HETATM   23  H   UNL     1      38.503 -14.874   4.032  1.00  0.00     0.166 HD
HETATM   24  C   UNL     1      40.569 -15.088   4.454  1.00  0.00     0.016 A 
HETATM   25  C   UNL     1      40.425 -15.397   5.903  1.00  0.00     0.069 C 
ENDBRANCH   9  15
TORSDOF 2
ENDMDL
MODEL 6
REMARK VINA RESULT:      -7.6      2.906      5.202
REMARK  2 active torsions:
REMARK  status: ('A' for Active; 'I' for Inactive)
REMARK    1  A    between atoms: C_9  and  O_10 
REMARK    2  A    between atoms: C_9  and  C_11 
ROOT
HETATM    1  C   UNL     1      42.093 -12.448   6.104  1.00  0.00     0.048 C 
HETATM    2  C   UNL     1      42.564 -13.844   5.814  1.00  0.00    -0.061 A 
HETATM    3  C   UNL     1      41.867 -14.657   4.908  1.00  0.00     0.020 A 
HETATM    4  C   UNL     1      42.345 -15.935   4.657  1.00  0.00     0.018 A 
HETATM    5  C   UNL     1      43.486 -16.400   5.312  1.00  0.00     0.045 A 
HETATM    6  N   UNL     1      43.764 -17.706   4.935  1.00  0.00    -0.323 N 
HETATM    7  C   UNL     1      42.835 -18.180   4.007  1.00  0.00     0.266 A 
HETATM    8  O   UNL     1      42.854 -19.308   3.539  1.00  0.00    -0.269 OA
HETATM    9  C   UNL     1      41.792 -17.028   3.763  1.00  0.00     0.199 A 
HETATM   10  C   UNL     1      44.194 -15.628   6.207  1.00  0.00     0.031 A 
HETATM   11  C   UNL     1      43.724 -14.336   6.455  1.00  0.00     0.009 A 
HETATM   12  H   UNL     1      44.533 -18.267   5.266  1.00  0.00     0.169 HD
ENDROOT
BRANCH   9  13
HETATM   13  O   UNL     1      40.506 -17.419   4.232  1.00  0.00    -0.371 OA
HETATM   14  H   UNL     1      40.324 -16.880   5.019  1.00  0.00     0.212 HD
ENDBRANCH   9  13
BRANCH   9  15
HETATM   15  C   UNL     1      41.798 -16.473   2.354  1.00  0.00     0.025 A 
HETATM   16  C   UNL     1      40.734 -15.700   1.747  1.00  0.00     0.003 A 
HETATM   17  C   UNL     1      41.136 -15.353   0.459  1.00  0.00     0.043 A 
HETATM   18  C   UNL     1      39.466 -15.251   2.180  1.00  0.00     0.014 A 
HETATM   19  C   UNL     1      40.348 -14.586  -0.410  1.00  0.00     0.030 A 
HETATM   20  N   UNL     1      42.378 -15.896   0.267  1.00  0.00    -0.359 N 
HETATM   21  C   UNL     1      39.102 -14.156   0.049  1.00  0.00     0.002 A 
HETATM   22  C   UNL     1      38.663 -14.483   1.327  1.00  0.00     0.001 A 
HETATM   23  H   UNL     1      42.907 -15.806  -0.590  1.00  0.00     0.166 HD
HETATM   24  C   UNL     1      42.807 -16.555   1.391  1.00  0.00     0.016 A 
HETATM   25  C   UNL     1      44.152 -17.191   1.411  1.00  0.00     0.069 C 
ENDBRANCH   9  15
TORSDOF 2
ENDMDL
MODEL 7
REMARK VINA RESULT:      -7.6      3.848      6.354
REMARK  2 active torsions:
REMARK  status: ('A' for Active; 'I' for Inactive)
REMARK    1  A    between atoms: C_9  and  O_10 
REMARK    2  A    between atoms: C_9  and  C_11 
ROOT
HETATM    1  C   UNL     1      43.783 -18.131   4.664  1.00  0.00     0.048 C 
HETATM    2  C   UNL     1      43.302 -17.627   3.334  1.00  0.00    -0.061 A 
HETATM    3  C   UNL     1      42.216 -16.742   3.257  1.00  0.00     0.020 A 
HETATM    4  C   UNL     1      41.814 -16.289   2.008  1.00  0.00     0.018 A 
HETATM    5  C   UNL     1      42.471 -16.724   0.857  1.00  0.00     0.045 A 
HETATM    6  N   UNL     1      41.889 -16.172  -0.273  1.00  0.00    -0.323 N 
HETATM    7  C   UNL     1      40.821 -15.335   0.059  1.00  0.00     0.266 A 
HETATM    8  O   UNL     1      40.134 -14.748  -0.764  1.00  0.00    -0.269 OA
HETATM    9  C   UNL     1      40.674 -15.366   1.624  1.00  0.00     0.199 A 
HETATM   10  C   UNL     1      43.541 -17.593   0.897  1.00  0.00     0.031 A 
HETATM   11  C   UNL     1      43.957 -18.043   2.153  1.00  0.00     0.009 A 
HETATM   12  H   UNL     1      42.177 -16.329  -1.226  1.00  0.00     0.169 HD
ENDROOT
BRANCH   9  13
HETATM   13  O   UNL     1      39.435 -15.963   1.992  1.00  0.00    -0.371 OA
HETATM   14  H   UNL     1      39.292 -16.702   1.379  1.00  0.00     0.212 HD
ENDBRANCH   9  13
BRANCH   9  15
HETATM   15  C   UNL     1      40.951 -14.039   2.300  1.00  0.00     0.025 A 
HETATM   16  C   UNL     1      40.619 -13.705   3.669  1.00  0.00     0.003 A 
HETATM   17  C   UNL     1      41.065 -12.407   3.915  1.00  0.00     0.043 A 
HETATM   18  C   UNL     1      39.990 -14.392   4.732  1.00  0.00     0.014 A 
HETATM   19  C   UNL     1      40.919 -11.767   5.153  1.00  0.00     0.030 A 
HETATM   20  N   UNL     1      41.628 -11.951   2.754  1.00  0.00    -0.359 N 
HETATM   21  C   UNL     1      40.295 -12.475   6.182  1.00  0.00     0.002 A 
HETATM   22  C   UNL     1      39.836 -13.771   5.977  1.00  0.00     0.001 A 
HETATM   23  H   UNL     1      42.029 -11.029   2.645  1.00  0.00     0.166 HD
HETATM   24  C   UNL     1      41.592 -12.913   1.777  1.00  0.00     0.016 A 
HETATM   25  C   UNL     1      42.186 -12.637   0.440  1.00  0.00     0.069 C 
ENDBRANCH   9  15
TORSDOF 2
ENDMDL
MODEL 8
REMARK VINA RESULT:      -7.5      2.140      5.471
REMARK  2 active torsions:
REMARK  status: ('A' for Active; 'I' for Inactive)
REMARK    1  A    between atoms: C_9  and  O_10 
REMARK    2  A    between atoms: C_9  and  C_11 
ROOT
HETATM    1  C   UNL     1      39.134 -15.660   1.925  1.00  0.00     0.048 C 
HETATM    2  C   UNL     1      40.281 -15.286   2.818  1.00  0.00    -0.061 A 
HETATM    3  C   UNL     1      40.896 -16.250   3.630  1.00  0.00     0.020 A 
HETATM    4  C   UNL     1      41.964 -15.865   4.428  1.00  0.00     0.018 A 
HETATM    5  C   UNL     1      42.398 -14.539   4.431  1.00  0.00     0.045 A 
HETATM    6  N   UNL     1      43.451 -14.374   5.318  1.00  0.00    -0.323 N 
HETATM    7  C   UNL     1      43.782 -15.575   5.948  1.00  0.00     0.266 A 
HETATM    8  O   UNL     1      44.663 -15.684   6.788  1.00  0.00    -0.269 OA
HETATM    9  C   UNL     1      42.790 -16.671   5.412  1.00  0.00     0.199 A 
HETATM   10  C   UNL     1      41.816 -13.567   3.646  1.00  0.00     0.031 A 
HETATM   11  C   UNL     1      40.749 -13.952   2.831  1.00  0.00     0.009 A 
HETATM   12  H   UNL     1      43.939 -13.512   5.505  1.00  0.00     0.169 HD
ENDROOT
BRANCH   9  13
HETATM   13  O   UNL     1      41.953 -17.137   6.465  1.00  0.00    -0.371 OA
HETATM   14  H   UNL     1      41.518 -17.940   6.136  1.00  0.00     0.212 HD
ENDBRANCH   9  13
BRANCH   9  15
HETATM   15  C   UNL     1      43.455 -17.772   4.612  1.00  0.00     0.025 A 
HETATM   16  C   UNL     1      43.777 -19.095   5.105  1.00  0.00     0.003 A 
HETATM   17  C   UNL     1      44.347 -19.816   4.058  1.00  0.00     0.043 A 
HETATM   18  C   UNL     1      43.625 -19.755   6.346  1.00  0.00     0.014 A 
HETATM   19  C   UNL     1      44.767 -21.148   4.181  1.00  0.00     0.030 A 
HETATM   20  N   UNL     1      44.395 -18.980   2.975  1.00  0.00    -0.359 N 
HETATM   21  C   UNL     1      44.600 -21.770   5.420  1.00  0.00     0.002 A 
HETATM   22  C   UNL     1      44.037 -21.085   6.490  1.00  0.00     0.001 A 
HETATM   23  H   UNL     1      44.771 -19.244   2.074  1.00  0.00     0.166 HD
HETATM   24  C   UNL     1      43.849 -17.758   3.272  1.00  0.00     0.016 A 
HETATM   25  C   UNL     1      43.766 -16.706   2.222  1.00  0.00     0.069 C 
ENDBRANCH   9  15
TORSDOF 2
ENDMDL
MODEL 9
REMARK VINA RESULT:      -7.4      3.369      5.216
REMARK  2 active torsions:
REMARK  status: ('A' for Active; 'I' for Inactive)
REMARK    1  A    between atoms: C_9  and  O_10 
REMARK    2  A    between atoms: C_9  and  C_11 
ROOT
HETATM    1  C   UNL     1      45.181 -18.071   6.978  1.00  0.00     0.048 C 
HETATM    2  C   UNL     1      44.278 -18.005   5.781  1.00  0.00    -0.061 A 
HETATM    3  C   UNL     1      43.208 -17.099   5.744  1.00  0.00     0.020 A 
HETATM    4  C   UNL     1      42.407 -17.062   4.611  1.00  0.00     0.018 A 
HETATM    5  C   UNL     1      42.657 -17.924   3.543  1.00  0.00     0.045 A 
HETATM    6  N   UNL     1      41.723 -17.735   2.537  1.00  0.00    -0.323 N 
HETATM    7  C   UNL     1      40.805 -16.737   2.871  1.00  0.00     0.266 A 
HETATM    8  O   UNL     1      39.873 -16.401   2.156  1.00  0.00    -0.269 OA
HETATM    9  C   UNL     1      41.183 -16.219   4.306  1.00  0.00     0.199 A 
HETATM   10  C   UNL     1      43.700 -18.825   3.547  1.00  0.00     0.031 A 
HETATM   11  C   UNL     1      44.517 -18.860   4.680  1.00  0.00     0.009 A 
HETATM   12  H   UNL     1      41.684 -18.235   1.662  1.00  0.00     0.169 HD
ENDROOT
BRANCH   9  13
HETATM   13  O   UNL     1      40.149 -16.533   5.233  1.00  0.00    -0.371 OA
HETATM   14  H   UNL     1      40.255 -17.471   5.457  1.00  0.00     0.212 HD
ENDBRANCH   9  13
BRANCH   9  15
HETATM   15  C   UNL     1      41.637 -14.774   4.346  1.00  0.00     0.025 A 
HETATM   16  C   UNL     1      41.023 -13.719   5.124  1.00  0.00     0.003 A 
HETATM   17  C   UNL     1      41.752 -12.550   4.913  1.00  0.00     0.043 A 
HETATM   18  C   UNL     1      39.919 -13.650   6.003  1.00  0.00     0.014 A 
HETATM   19  C   UNL     1      41.441 -11.329   5.527  1.00  0.00     0.030 A 
HETATM   20  N   UNL     1      42.756 -12.857   4.034  1.00  0.00    -0.359 N 
HETATM   21  C   UNL     1      40.344 -11.297   6.391  1.00  0.00     0.002 A 
HETATM   22  C   UNL     1      39.591 -12.441   6.628  1.00  0.00     0.001 A 
HETATM   23  H   UNL     1      43.436 -12.189   3.697  1.00  0.00     0.166 HD
HETATM   24  C   UNL     1      42.723 -14.186   3.694  1.00  0.00     0.016 A 
HETATM   25  C   UNL     1      43.753 -14.742   2.774  1.00  0.00     0.069 C 
ENDBRANCH   9  15
TORSDOF 2
ENDMDL
MODEL 10
REMARK VINA RESULT:      -7.2      4.068      6.034
REMARK  2 active torsions:
REMARK  status: ('A' for Active; 'I' for Inactive)
REMARK    1  A    between atoms: C_9  and  O_10 
REMARK    2  A    between atoms: C_9  and  C_11 
ROOT
HETATM    1  C   UNL     1      43.684 -18.252   1.364  1.00  0.00     0.048 C 
HETATM    2  C   UNL     1      42.856 -17.223   2.077  1.00  0.00    -0.061 A 
HETATM    3  C   UNL     1      42.595 -15.980   1.480  1.00  0.00     0.020 A 
HETATM    4  C   UNL     1      41.812 -15.064   2.168  1.00  0.00     0.018 A 
HETATM    5  C   UNL     1      41.314 -15.373   3.433  1.00  0.00     0.045 A 
HETATM    6  N   UNL     1      40.587 -14.308   3.944  1.00  0.00    -0.323 N 
HETATM    7  C   UNL     1      40.553 -13.236   3.048  1.00  0.00     0.266 A 
HETATM    8  O   UNL     1      39.993 -12.175   3.277  1.00  0.00    -0.269 OA
HETATM    9  C   UNL     1      41.395 -13.655   1.789  1.00  0.00     0.199 A 
HETATM   10  C   UNL     1      41.551 -16.583   4.048  1.00  0.00     0.031 A 
HETATM   11  C   UNL     1      42.329 -17.515   3.356  1.00  0.00     0.009 A 
HETATM   12  H   UNL     1      40.126 -14.279   4.840  1.00  0.00     0.169 HD
ENDROOT
BRANCH   9  13
HETATM   13  O   UNL     1      42.552 -12.834   1.672  1.00  0.00    -0.371 OA
HETATM   14  H   UNL     1      43.048 -12.938   2.500  1.00  0.00     0.212 HD
ENDBRANCH   9  13
BRANCH   9  15
HETATM   15  C   UNL     1      40.586 -13.776   0.513  1.00  0.00     0.025 A 
HETATM   16  C   UNL     1      41.075 -13.509  -0.823  1.00  0.00     0.003 A 
HETATM   17  C   UNL     1      40.038 -13.766  -1.719  1.00  0.00     0.043 A 
HETATM   18  C   UNL     1      42.311 -13.083  -1.360  1.00  0.00     0.014 A 
HETATM   19  C   UNL     1      40.170 -13.624  -3.107  1.00  0.00     0.030 A 
HETATM   20  N   UNL     1      38.956 -14.156  -0.977  1.00  0.00    -0.359 N 
HETATM   21  C   UNL     1      41.405 -13.203  -3.604  1.00  0.00     0.002 A 
HETATM   22  C   UNL     1      42.464 -12.936  -2.744  1.00  0.00     0.001 A 
HETATM   23  H   UNL     1      38.057 -14.398  -1.373  1.00  0.00     0.166 HD
HETATM   24  C   UNL     1      39.261 -14.190   0.360  1.00  0.00     0.016 A 
HETATM   25  C   UNL     1      38.233 -14.624   1.345  1.00  0.00     0.069 C 
ENDBRANCH   9  15
TORSDOF 2
ENDMDL
