MODEL 1
REMARK VINA RESULT:      -8.7      0.000      0.000
REMARK  5 active torsions:
REMARK  status: ('A' for Active; 'I' for Inactive)
REMARK    1  A    between atoms: C_6  and  N_7 
REMARK       I    between atoms: N_7  and  C_8 
REMARK       I    between atoms: C_8  and  N_9 
REMARK    2  A    between atoms: N_9  and  C_10 
REMARK    3  A    between atoms: C_13  and  C_14 
REMARK       I    between atoms: C_14  and  N_15 
REMARK    4  A    between atoms: N_15  and  C_16 
REMARK    5  A    between atoms: C_16  and  C_17 
ROOT
HETATM    1  C   UNL     1      41.926 -12.558   5.953  1.00  0.00     0.175 A 
HETATM    2  S   UNL     1      40.802 -13.332   4.933  1.00  0.00    -0.061 SA
HETATM    3  C   UNL     1      41.745 -14.755   5.012  1.00  0.00     0.090 A 
HETATM    4  C   UNL     1      42.843 -14.560   5.835  1.00  0.00     0.133 A 
HETATM    5  N   UNL     1      42.958 -13.261   6.357  1.00  0.00    -0.218 NA
ENDROOT
BRANCH   1   6
HETATM    6  N   UNL     1      41.606 -11.266   6.239  1.00  0.00    -0.287 N 
HETATM    7  C   UNL     1      41.718 -10.628   7.437  1.00  0.00     0.326 C 
HETATM    8  N   UNL     1      42.300 -11.326   8.461  1.00  0.00    -0.309 N 
HETATM    9  O   UNL     1      41.317  -9.467   7.495  1.00  0.00    -0.247 OA
HETATM   10  H   UNL     1      42.617 -12.258   8.215  1.00  0.00     0.170 HD
HETATM   11  H   UNL     1      41.233 -10.700   5.492  1.00  0.00     0.172 HD
BRANCH   8  12
HETATM   12  C   UNL     1      42.575 -10.878   9.769  1.00  0.00     0.037 A 
HETATM   13  C   UNL     1      41.591 -10.603  10.723  1.00  0.00     0.053 A 
HETATM   14  C   UNL     1      41.953 -10.148  11.992  1.00  0.00     0.036 A 
HETATM   15  C   UNL     1      43.292  -9.961  12.326  1.00  0.00     0.024 A 
HETATM   16 CL   UNL     1      40.733  -9.817  13.163  1.00  0.00    -0.084 Cl
HETATM   17  C   UNL     1      44.280 -10.238  11.384  1.00  0.00     0.004 A 
HETATM   18  C   UNL     1      43.922 -10.699  10.113  1.00  0.00     0.029 A 
ENDBRANCH   8  12
ENDBRANCH   1   6
BRANCH   4  19
HETATM   19  C   UNL     1      43.793 -15.631   6.152  1.00  0.00     0.271 C 
HETATM   20  N   UNL     1      43.487 -16.837   5.571  1.00  0.00    -0.351 N 
HETATM   21  H   UNL     1      42.596 -16.919   5.097  1.00  0.00     0.163 HD
HETATM   22  O   UNL     1      44.780 -15.453   6.860  1.00  0.00    -0.266 OA
BRANCH  20  23
HETATM   23  C   UNL     1      44.310 -17.997   5.802  1.00  0.00     0.161 C 
BRANCH  23  24
HETATM   24  C   UNL     1      44.293 -18.980   4.658  1.00  0.00    -0.040 A 
HETATM   25  C   UNL     1      44.840 -20.267   4.782  1.00  0.00     0.010 A 
HETATM   26  C   UNL     1      44.757 -21.181   3.728  1.00  0.00     0.024 A 
HETATM   27  C   UNL     1      44.108 -20.822   2.549  1.00  0.00     0.034 A 
HETATM   28 CL   UNL     1      43.994 -21.952   1.256  1.00  0.00    -0.084 Cl
HETATM   29  C   UNL     1      43.540 -19.559   2.416  1.00  0.00     0.024 A 
HETATM   30  C   UNL     1      43.629 -18.643   3.467  1.00  0.00     0.010 A 
ENDBRANCH  23  24
ENDBRANCH  20  23
ENDBRANCH   4  19
TORSDOF 5
ENDMDL
MODEL 2
REMARK VINA RESULT:      -8.6      1.765      2.231
REMARK  5 active torsions:
REMARK  status: ('A' for Active; 'I' for Inactive)
REMARK    1  A    between atoms: C_6  and  N_7 
REMARK       I    between atoms: N_7  and  C_8 
REMARK       I    between atoms: C_8  and  N_9 
REMARK    2  A    between atoms: N_9  and  C_10 
REMARK    3  A    between atoms: C_13  and  C_14 
REMARK       I    between atoms: C_14  and  N_15 
REMARK    4  A    between atoms: N_15  and  C_16 
REMARK    5  A    between atoms: C_16  and  C_17 
ROOT
HETATM    1  C   UNL     1      41.064 -12.321   5.690  1.00  0.00     0.175 A 
HETATM    2  S   UNL     1      39.781 -13.441   5.674  1.00  0.00    -0.061 SA
HETATM    3  C   UNL     1      40.690 -14.434   4.621  1.00  0.00     0.090 A 
HETATM    4  C   UNL     1      41.928 -13.863   4.371  1.00  0.00     0.133 A 
HETATM    5  N   UNL     1      42.127 -12.611   4.976  1.00  0.00    -0.218 NA
ENDROOT
BRANCH   1   6
HETATM    6  N   UNL     1      40.829 -11.229   6.469  1.00  0.00    -0.287 N 
HETATM    7  C   UNL     1      41.501 -10.849   7.591  1.00  0.00     0.326 C 
HETATM    8  N   UNL     1      42.599 -11.589   7.939  1.00  0.00    -0.309 N 
HETATM    9  O   UNL     1      41.088  -9.853   8.182  1.00  0.00    -0.247 OA
HETATM   10  H   UNL     1      42.820 -12.348   7.303  1.00  0.00     0.170 HD
HETATM   11  H   UNL     1      40.066 -10.623   6.207  1.00  0.00     0.172 HD
BRANCH   8  12
HETATM   12  C   UNL     1      43.484 -11.373   9.014  1.00  0.00     0.037 A 
HETATM   13  C   UNL     1      43.111 -10.786  10.227  1.00  0.00     0.053 A 
HETATM   14  C   UNL     1      44.058 -10.597  11.235  1.00  0.00     0.036 A 
HETATM   15  C   UNL     1      45.382 -10.985  11.050  1.00  0.00     0.024 A 
HETATM   16 CL   UNL     1      43.587  -9.876  12.727  1.00  0.00    -0.084 Cl
HETATM   17  C   UNL     1      45.762 -11.577   9.847  1.00  0.00     0.004 A 
HETATM   18  C   UNL     1      44.816 -11.773   8.837  1.00  0.00     0.029 A 
ENDBRANCH   8  12
ENDBRANCH   1   6
BRANCH   4  19
HETATM   19  C   UNL     1      42.954 -14.525   3.560  1.00  0.00     0.271 C 
HETATM   20  N   UNL     1      42.650 -15.823   3.229  1.00  0.00    -0.351 N 
HETATM   21  H   UNL     1      41.838 -16.242   3.664  1.00  0.00     0.163 HD
HETATM   22  O   UNL     1      43.980 -13.958   3.197  1.00  0.00    -0.266 OA
BRANCH  20  23
HETATM   23  C   UNL     1      43.566 -16.620   2.452  1.00  0.00     0.161 C 
BRANCH  23  24
HETATM   24  C   UNL     1      43.879 -17.954   3.082  1.00  0.00    -0.040 A 
HETATM   25  C   UNL     1      44.090 -19.106   2.307  1.00  0.00     0.010 A 
HETATM   26  C   UNL     1      44.439 -20.317   2.911  1.00  0.00     0.024 A 
HETATM   27  C   UNL     1      44.602 -20.381   4.292  1.00  0.00     0.034 A 
HETATM   28 CL   UNL     1      45.046 -21.869   5.034  1.00  0.00    -0.084 Cl
HETATM   29  C   UNL     1      44.420 -19.245   5.075  1.00  0.00     0.024 A 
HETATM   30  C   UNL     1      44.064 -18.036   4.472  1.00  0.00     0.010 A 
ENDBRANCH  23  24
ENDBRANCH  20  23
ENDBRANCH   4  19
TORSDOF 5
ENDMDL
MODEL 3
REMARK VINA RESULT:      -8.5      1.804     10.082
REMARK  5 active torsions:
REMARK  status: ('A' for Active; 'I' for Inactive)
REMARK    1  A    between atoms: C_6  and  N_7 
REMARK       I    between atoms: N_7  and  C_8 
REMARK       I    between atoms: C_8  and  N_9 
REMARK    2  A    between atoms: N_9  and  C_10 
REMARK    3  A    between atoms: C_13  and  C_14 
REMARK       I    between atoms: C_14  and  N_15 
REMARK    4  A    between atoms: N_15  and  C_16 
REMARK    5  A    between atoms: C_16  and  C_17 
ROOT
HETATM    1  C   UNL     1      42.033 -14.965   4.090  1.00  0.00     0.175 A 
HETATM    2  S   UNL     1      41.299 -13.431   3.980  1.00  0.00    -0.061 SA
HETATM    3  C   UNL     1      42.243 -12.909   5.306  1.00  0.00     0.090 A 
HETATM    4  C   UNL     1      43.079 -13.929   5.733  1.00  0.00     0.133 A 
HETATM    5  N   UNL     1      42.928 -15.139   5.035  1.00  0.00    -0.218 NA
ENDROOT
BRANCH   1   6
HETATM    6  N   UNL     1      41.592 -15.851   3.155  1.00  0.00    -0.287 N 
HETATM    7  C   UNL     1      42.054 -17.112   2.924  1.00  0.00     0.326 C 
HETATM    8  N   UNL     1      43.008 -17.591   3.780  1.00  0.00    -0.309 N 
HETATM    9  O   UNL     1      41.552 -17.729   1.987  1.00  0.00    -0.247 OA
HETATM   10  H   UNL     1      43.267 -16.957   4.529  1.00  0.00     0.170 HD
HETATM   11  H   UNL     1      40.844 -15.556   2.547  1.00  0.00     0.172 HD
BRANCH   8  12
HETATM   12  C   UNL     1      43.604 -18.869   3.785  1.00  0.00     0.037 A 
HETATM   13  C   UNL     1      43.662 -19.708   2.669  1.00  0.00     0.053 A 
HETATM   14  C   UNL     1      44.259 -20.966   2.768  1.00  0.00     0.036 A 
HETATM   15  C   UNL     1      44.802 -21.404   3.973  1.00  0.00     0.024 A 
HETATM   16 CL   UNL     1      44.329 -21.991   1.385  1.00  0.00    -0.084 Cl
HETATM   17  C   UNL     1      44.754 -20.572   5.090  1.00  0.00     0.004 A 
HETATM   18  C   UNL     1      44.162 -19.309   4.994  1.00  0.00     0.029 A 
ENDBRANCH   8  12
ENDBRANCH   1   6
BRANCH   4  19
HETATM   19  C   UNL     1      44.059 -13.749   6.808  1.00  0.00     0.271 C 
HETATM   20  N   UNL     1      43.723 -12.768   7.709  1.00  0.00    -0.351 N 
HETATM   21  H   UNL     1      42.926 -12.182   7.493  1.00  0.00     0.163 HD
HETATM   22  O   UNL     1      45.075 -14.431   6.899  1.00  0.00    -0.266 OA
BRANCH  20  23
HETATM   23  C   UNL     1      44.593 -12.452   8.814  1.00  0.00     0.161 C 
BRANCH  23  24
HETATM   24  C   UNL     1      44.028 -11.402   9.738  1.00  0.00    -0.040 A 
HETATM   25  C   UNL     1      42.860 -10.689   9.419  1.00  0.00     0.010 A 
HETATM   26  C   UNL     1      42.322  -9.765  10.319  1.00  0.00     0.024 A 
HETATM   27  C   UNL     1      42.934  -9.562  11.553  1.00  0.00     0.034 A 
HETATM   28 CL   UNL     1      42.264  -8.435  12.667  1.00  0.00    -0.084 Cl
HETATM   29  C   UNL     1      44.079 -10.276  11.896  1.00  0.00     0.024 A 
HETATM   30  C   UNL     1      44.621 -11.194  10.993  1.00  0.00     0.010 A 
ENDBRANCH  23  24
ENDBRANCH  20  23
ENDBRANCH   4  19
TORSDOF 5
ENDMDL
MODEL 4
REMARK VINA RESULT:      -8.4      5.373      8.390
REMARK  5 active torsions:
REMARK  status: ('A' for Active; 'I' for Inactive)
REMARK    1  A    between atoms: C_6  and  N_7 
REMARK       I    between atoms: N_7  and  C_8 
REMARK       I    between atoms: C_8  and  N_9 
REMARK    2  A    between atoms: N_9  and  C_10 
REMARK    3  A    between atoms: C_13  and  C_14 
REMARK       I    between atoms: C_14  and  N_15 
REMARK    4  A    between atoms: N_15  and  C_16 
REMARK    5  A    between atoms: C_16  and  C_17 
ROOT
HETATM    1  C   UNL     1      42.075 -12.508   2.223  1.00  0.00     0.175 A 
HETATM    2  S   UNL     1      40.820 -12.030   3.271  1.00  0.00    -0.061 SA
HETATM    3  C   UNL     1      41.362 -13.183   4.410  1.00  0.00     0.090 A 
HETATM    4  C   UNL     1      42.484 -13.841   3.933  1.00  0.00     0.133 A 
HETATM    5  N   UNL     1      42.876 -13.462   2.638  1.00  0.00    -0.218 NA
ENDROOT
BRANCH   1   6
HETATM    6  N   UNL     1      42.100 -11.821   1.048  1.00  0.00    -0.287 N 
HETATM    7  C   UNL     1      41.663 -12.244  -0.170  1.00  0.00     0.326 C 
HETATM    8  N   UNL     1      41.043 -13.464  -0.220  1.00  0.00    -0.309 N 
HETATM    9  O   UNL     1      41.830 -11.483  -1.122  1.00  0.00    -0.247 OA
HETATM   10  H   UNL     1      40.949 -13.931   0.676  1.00  0.00     0.170 HD
HETATM   11  H   UNL     1      42.491 -10.892   1.058  1.00  0.00     0.172 HD
BRANCH   8  12
HETATM   12  C   UNL     1      40.463 -14.097  -1.338  1.00  0.00     0.037 A 
HETATM   13  C   UNL     1      39.236 -13.726  -1.894  1.00  0.00     0.053 A 
HETATM   14  C   UNL     1      38.728 -14.419  -2.996  1.00  0.00     0.036 A 
HETATM   15  C   UNL     1      39.430 -15.484  -3.553  1.00  0.00     0.024 A 
HETATM   16 CL   UNL     1      37.216 -13.951  -3.677  1.00  0.00    -0.084 Cl
HETATM   17  C   UNL     1      40.657 -15.856  -3.008  1.00  0.00     0.004 A 
HETATM   18  C   UNL     1      41.172 -15.162  -1.910  1.00  0.00     0.029 A 
ENDBRANCH   8  12
ENDBRANCH   1   6
BRANCH   4  19
HETATM   19  C   UNL     1      43.214 -14.835   4.726  1.00  0.00     0.271 C 
HETATM   20  N   UNL     1      42.876 -16.134   4.437  1.00  0.00    -0.351 N 
HETATM   21  H   UNL     1      42.088 -16.291   3.821  1.00  0.00     0.163 HD
HETATM   22  O   UNL     1      44.062 -14.525   5.557  1.00  0.00    -0.266 OA
BRANCH  20  23
HETATM   23  C   UNL     1      43.488 -17.230   5.146  1.00  0.00     0.161 C 
BRANCH  23  24
HETATM   24  C   UNL     1      43.796 -18.414   4.265  1.00  0.00    -0.040 A 
HETATM   25  C   UNL     1      44.634 -19.457   4.695  1.00  0.00     0.010 A 
HETATM   26  C   UNL     1      44.856 -20.573   3.884  1.00  0.00     0.024 A 
HETATM   27  C   UNL     1      44.225 -20.666   2.645  1.00  0.00     0.034 A 
HETATM   28 CL   UNL     1      44.487 -22.046   1.653  1.00  0.00    -0.084 Cl
HETATM   29  C   UNL     1      43.374 -19.654   2.212  1.00  0.00     0.024 A 
HETATM   30  C   UNL     1      43.158 -18.534   3.020  1.00  0.00     0.010 A 
ENDBRANCH  23  24
ENDBRANCH  20  23
ENDBRANCH   4  19
TORSDOF 5
ENDMDL
MODEL 5
REMARK VINA RESULT:      -8.4      6.344      9.828
REMARK  5 active torsions:
REMARK  status: ('A' for Active; 'I' for Inactive)
REMARK    1  A    between atoms: C_6  and  N_7 
REMARK       I    between atoms: N_7  and  C_8 
REMARK       I    between atoms: C_8  and  N_9 
REMARK    2  A    between atoms: N_9  and  C_10 
REMARK    3  A    between atoms: C_13  and  C_14 
REMARK       I    between atoms: C_14  and  N_15 
REMARK    4  A    between atoms: N_15  and  C_16 
REMARK    5  A    between atoms: C_16  and  C_17 
ROOT
HETATM    1  C   UNL     1      41.347 -15.049   3.143  1.00  0.00     0.175 A 
HETATM    2  S   UNL     1      41.995 -13.621   3.810  1.00  0.00    -0.061 SA
HETATM    3  C   UNL     1      42.191 -12.999   2.231  1.00  0.00     0.090 A 
HETATM    4  C   UNL     1      41.724 -13.907   1.294  1.00  0.00     0.133 A 
HETATM    5  N   UNL     1      41.259 -15.117   1.835  1.00  0.00    -0.218 NA
ENDROOT
BRANCH   1   6
HETATM    6  N   UNL     1      40.982 -15.972   4.075  1.00  0.00    -0.287 N 
HETATM    7  C   UNL     1      41.513 -17.212   4.266  1.00  0.00     0.326 C 
HETATM    8  N   UNL     1      42.597 -17.550   3.501  1.00  0.00    -0.309 N 
HETATM    9  O   UNL     1      40.997 -17.915   5.133  1.00  0.00    -0.247 OA
HETATM   10  H   UNL     1      42.917 -16.821   2.872  1.00  0.00     0.170 HD
HETATM   11  H   UNL     1      40.228 -15.733   4.700  1.00  0.00     0.172 HD
BRANCH   8  12
HETATM   12  C   UNL     1      43.350 -18.740   3.544  1.00  0.00     0.037 A 
HETATM   13  C   UNL     1      43.383 -19.680   2.511  1.00  0.00     0.053 A 
HETATM   14  C   UNL     1      44.147 -20.842   2.644  1.00  0.00     0.036 A 
HETATM   15  C   UNL     1      44.883 -21.081   3.801  1.00  0.00     0.024 A 
HETATM   16 CL   UNL     1      44.185 -21.993   1.362  1.00  0.00    -0.084 Cl
HETATM   17  C   UNL     1      44.861 -20.146   4.834  1.00  0.00     0.004 A 
HETATM   18  C   UNL     1      44.102 -18.980   4.703  1.00  0.00     0.029 A 
ENDBRANCH   8  12
ENDBRANCH   1   6
BRANCH   4  19
HETATM   19  C   UNL     1      41.695 -13.615  -0.142  1.00  0.00     0.271 C 
HETATM   20  N   UNL     1      41.342 -14.690  -0.921  1.00  0.00    -0.351 N 
HETATM   21  H   UNL     1      41.262 -15.593  -0.471  1.00  0.00     0.163 HD
HETATM   22  O   UNL     1      41.946 -12.504  -0.598  1.00  0.00    -0.266 OA
BRANCH  20  23
HETATM   23  C   UNL     1      41.288 -14.574  -2.357  1.00  0.00     0.161 C 
BRANCH  23  24
HETATM   24  C   UNL     1      39.883 -14.530  -2.901  1.00  0.00    -0.040 A 
HETATM   25  C   UNL     1      39.069 -13.394  -2.756  1.00  0.00     0.010 A 
HETATM   26  C   UNL     1      37.792 -13.355  -3.322  1.00  0.00     0.024 A 
HETATM   27  C   UNL     1      37.326 -14.442  -4.056  1.00  0.00     0.034 A 
HETATM   28 CL   UNL     1      35.759 -14.389  -4.765  1.00  0.00    -0.084 Cl
HETATM   29  C   UNL     1      38.125 -15.568  -4.231  1.00  0.00     0.024 A 
HETATM   30  C   UNL     1      39.400 -15.610  -3.658  1.00  0.00     0.010 A 
ENDBRANCH  23  24
ENDBRANCH  20  23
ENDBRANCH   4  19
TORSDOF 5
ENDMDL
MODEL 6
REMARK VINA RESULT:      -8.3      6.602     10.348
REMARK  5 active torsions:
REMARK  status: ('A' for Active; 'I' for Inactive)
REMARK    1  A    between atoms: C_6  and  N_7 
REMARK       I    between atoms: N_7  and  C_8 
REMARK       I    between atoms: C_8  and  N_9 
REMARK    2  A    between atoms: N_9  and  C_10 
REMARK    3  A    between atoms: C_13  and  C_14 
REMARK       I    between atoms: C_14  and  N_15 
REMARK    4  A    between atoms: N_15  and  C_16 
REMARK    5  A    between atoms: C_16  and  C_17 
ROOT
HETATM    1  C   UNL     1      40.895 -15.240   2.871  1.00  0.00     0.175 A 
HETATM    2  S   UNL     1      41.443 -13.709   3.380  1.00  0.00    -0.061 SA
HETATM    3  C   UNL     1      41.498 -13.211   1.746  1.00  0.00     0.090 A 
HETATM    4  C   UNL     1      41.068 -14.234   0.916  1.00  0.00     0.133 A 
HETATM    5  N   UNL     1      40.746 -15.429   1.581  1.00  0.00    -0.218 NA
ENDROOT
BRANCH   1   6
HETATM    6  N   UNL     1      40.666 -16.108   3.895  1.00  0.00    -0.287 N 
HETATM    7  C   UNL     1      41.301 -17.287   4.141  1.00  0.00     0.326 C 
HETATM    8  N   UNL     1      42.354 -17.609   3.327  1.00  0.00    -0.309 N 
HETATM    9  O   UNL     1      40.900 -17.952   5.095  1.00  0.00    -0.247 OA
HETATM   10  H   UNL     1      42.574 -16.913   2.622  1.00  0.00     0.170 HD
HETATM   11  H   UNL     1      39.939 -15.873   4.554  1.00  0.00     0.172 HD
BRANCH   8  12
HETATM   12  C   UNL     1      43.197 -18.735   3.406  1.00  0.00     0.037 A 
HETATM   13  C   UNL     1      43.281 -19.718   2.415  1.00  0.00     0.053 A 
HETATM   14  C   UNL     1      44.134 -20.810   2.583  1.00  0.00     0.036 A 
HETATM   15  C   UNL     1      44.910 -20.938   3.731  1.00  0.00     0.024 A 
HETATM   16 CL   UNL     1      44.233 -22.014   1.354  1.00  0.00    -0.084 Cl
HETATM   17  C   UNL     1      44.838 -19.960   4.721  1.00  0.00     0.004 A 
HETATM   18  C   UNL     1      43.989 -18.862   4.555  1.00  0.00     0.029 A 
ENDBRANCH   8  12
ENDBRANCH   1   6
BRANCH   4  19
HETATM   19  C   UNL     1      40.938 -14.072  -0.535  1.00  0.00     0.271 C 
HETATM   20  N   UNL     1      42.120 -13.784  -1.171  1.00  0.00    -0.351 N 
HETATM   21  H   UNL     1      42.929 -13.585  -0.596  1.00  0.00     0.163 HD
HETATM   22  O   UNL     1      39.868 -14.202  -1.123  1.00  0.00    -0.266 OA
BRANCH  20  23
HETATM   23  C   UNL     1      42.158 -13.573  -2.597  1.00  0.00     0.161 C 
BRANCH  23  24
HETATM   24  C   UNL     1      42.334 -12.126  -2.982  1.00  0.00    -0.040 A 
HETATM   25  C   UNL     1      41.995 -11.655  -4.261  1.00  0.00     0.010 A 
HETATM   26  C   UNL     1      42.109 -10.298  -4.575  1.00  0.00     0.024 A 
HETATM   27  C   UNL     1      42.544  -9.397  -3.605  1.00  0.00     0.034 A 
HETATM   28 CL   UNL     1      42.671  -7.724  -3.987  1.00  0.00    -0.084 Cl
HETATM   29  C   UNL     1      42.863  -9.840  -2.326  1.00  0.00     0.024 A 
HETATM   30  C   UNL     1      42.756 -11.199  -2.015  1.00  0.00     0.010 A 
ENDBRANCH  23  24
ENDBRANCH  20  23
ENDBRANCH   4  19
TORSDOF 5
ENDMDL
MODEL 7
REMARK VINA RESULT:      -8.2      1.322      1.938
REMARK  5 active torsions:
REMARK  status: ('A' for Active; 'I' for Inactive)
REMARK    1  A    between atoms: C_6  and  N_7 
REMARK       I    between atoms: N_7  and  C_8 
REMARK       I    between atoms: C_8  and  N_9 
REMARK    2  A    between atoms: N_9  and  C_10 
REMARK    3  A    between atoms: C_13  and  C_14 
REMARK       I    between atoms: C_14  and  N_15 
REMARK    4  A    between atoms: N_15  and  C_16 
REMARK    5  A    between atoms: C_16  and  C_17 
ROOT
HETATM    1  C   UNL     1      41.368 -12.739   5.219  1.00  0.00     0.175 A 
HETATM    2  S   UNL     1      40.016 -13.347   4.379  1.00  0.00    -0.061 SA
HETATM    3  C   UNL     1      40.541 -14.935   4.727  1.00  0.00     0.090 A 
HETATM    4  C   UNL     1      41.700 -14.904   5.487  1.00  0.00     0.133 A 
HETATM    5  N   UNL     1      42.194 -13.614   5.745  1.00  0.00    -0.218 NA
ENDROOT
BRANCH   1   6
HETATM    6  N   UNL     1      41.429 -11.380   5.250  1.00  0.00    -0.287 N 
HETATM    7  C   UNL     1      41.420 -10.573   6.347  1.00  0.00     0.326 C 
HETATM    8  N   UNL     1      41.442 -11.186   7.571  1.00  0.00    -0.309 N 
HETATM    9  O   UNL     1      41.425  -9.359   6.151  1.00  0.00    -0.247 OA
HETATM   10  H   UNL     1      41.487 -12.199   7.538  1.00  0.00     0.170 HD
HETATM   11  H   UNL     1      41.478 -10.894   4.367  1.00  0.00     0.172 HD
BRANCH   8  12
HETATM   12  C   UNL     1      41.489 -10.581   8.843  1.00  0.00     0.037 A 
HETATM   13  C   UNL     1      42.596 -10.637   9.693  1.00  0.00     0.053 A 
HETATM   14  C   UNL     1      42.550 -10.020  10.945  1.00  0.00     0.036 A 
HETATM   15  C   UNL     1      41.408  -9.344  11.364  1.00  0.00     0.024 A 
HETATM   16 CL   UNL     1      43.923 -10.091  11.985  1.00  0.00    -0.084 Cl
HETATM   17  C   UNL     1      40.301  -9.278  10.521  1.00  0.00     0.004 A 
HETATM   18  C   UNL     1      40.344  -9.890   9.264  1.00  0.00     0.029 A 
ENDBRANCH   8  12
ENDBRANCH   1   6
BRANCH   4  19
HETATM   19  C   UNL     1      42.341 -16.118   6.000  1.00  0.00     0.271 C 
HETATM   20  N   UNL     1      43.445 -16.509   5.284  1.00  0.00    -0.351 N 
HETATM   21  H   UNL     1      43.642 -16.024   4.417  1.00  0.00     0.163 HD
HETATM   22  O   UNL     1      41.933 -16.714   6.992  1.00  0.00    -0.266 OA
BRANCH  20  23
HETATM   23  C   UNL     1      44.177 -17.697   5.646  1.00  0.00     0.161 C 
BRANCH  23  24
HETATM   24  C   UNL     1      44.132 -18.772   4.589  1.00  0.00    -0.040 A 
HETATM   25  C   UNL     1      43.642 -18.518   3.298  1.00  0.00     0.010 A 
HETATM   26  C   UNL     1      43.667 -19.513   2.317  1.00  0.00     0.024 A 
HETATM   27  C   UNL     1      44.202 -20.765   2.614  1.00  0.00     0.034 A 
HETATM   28 CL   UNL     1      44.246 -21.986   1.403  1.00  0.00    -0.084 Cl
HETATM   29  C   UNL     1      44.713 -21.029   3.881  1.00  0.00     0.024 A 
HETATM   30  C   UNL     1      44.681 -20.035   4.863  1.00  0.00     0.010 A 
ENDBRANCH  23  24
ENDBRANCH  20  23
ENDBRANCH   4  19
TORSDOF 5
ENDMDL
MODEL 8
REMARK VINA RESULT:      -8.1      3.110      4.419
REMARK  5 active torsions:
REMARK  status: ('A' for Active; 'I' for Inactive)
REMARK    1  A    between atoms: C_6  and  N_7 
REMARK       I    between atoms: N_7  and  C_8 
REMARK       I    between atoms: C_8  and  N_9 
REMARK    2  A    between atoms: N_9  and  C_10 
REMARK    3  A    between atoms: C_13  and  C_14 
REMARK       I    between atoms: C_14  and  N_15 
REMARK    4  A    between atoms: N_15  and  C_16 
REMARK    5  A    between atoms: C_16  and  C_17 
ROOT
HETATM    1  C   UNL     1      44.439 -12.233  10.545  1.00  0.00     0.175 A 
HETATM    2  S   UNL     1      45.627 -11.047  10.250  1.00  0.00    -0.061 SA
HETATM    3  C   UNL     1      45.931 -11.762   8.728  1.00  0.00     0.090 A 
HETATM    4  C   UNL     1      45.088 -12.844   8.527  1.00  0.00     0.133 A 
HETATM    5  N   UNL     1      44.239 -13.131   9.609  1.00  0.00    -0.218 NA
ENDROOT
BRANCH   1   6
HETATM    6  N   UNL     1      43.819 -12.099  11.750  1.00  0.00    -0.287 N 
HETATM    7  C   UNL     1      42.637 -11.475  12.011  1.00  0.00     0.326 C 
HETATM    8  N   UNL     1      41.935 -10.999  10.936  1.00  0.00    -0.309 N 
HETATM    9  O   UNL     1      42.281 -11.418  13.186  1.00  0.00    -0.247 OA
HETATM   10  H   UNL     1      42.361 -11.182  10.034  1.00  0.00     0.170 HD
HETATM   11  H   UNL     1      44.277 -12.494  12.557  1.00  0.00     0.172 HD
BRANCH   8  12
HETATM   12  C   UNL     1      40.675 -10.367  10.936  1.00  0.00     0.037 A 
HETATM   13  C   UNL     1      40.184  -9.606  12.000  1.00  0.00     0.053 A 
HETATM   14  C   UNL     1      38.915  -9.026  11.920  1.00  0.00     0.036 A 
HETATM   15  C   UNL     1      38.124  -9.198  10.787  1.00  0.00     0.024 A 
HETATM   16 CL   UNL     1      38.320  -8.085  13.235  1.00  0.00    -0.084 Cl
HETATM   17  C   UNL     1      38.608  -9.950   9.719  1.00  0.00     0.004 A 
HETATM   18  C   UNL     1      39.880 -10.527   9.793  1.00  0.00     0.029 A 
ENDBRANCH   8  12
ENDBRANCH   1   6
BRANCH   4  19
HETATM   19  C   UNL     1      45.069 -13.609   7.277  1.00  0.00     0.271 C 
HETATM   20  N   UNL     1      43.887 -14.268   7.046  1.00  0.00    -0.351 N 
HETATM   21  H   UNL     1      43.200 -14.280   7.790  1.00  0.00     0.163 HD
HETATM   22  O   UNL     1      46.021 -13.637   6.503  1.00  0.00    -0.266 OA
BRANCH  20  23
HETATM   23  C   UNL     1      43.715 -15.084   5.869  1.00  0.00     0.161 C 
BRANCH  23  24
HETATM   24  C   UNL     1      43.641 -16.559   6.171  1.00  0.00    -0.040 A 
HETATM   25  C   UNL     1      43.641 -17.523   5.149  1.00  0.00     0.010 A 
HETATM   26  C   UNL     1      43.634 -18.886   5.455  1.00  0.00     0.024 A 
HETATM   27  C   UNL     1      43.650 -19.298   6.786  1.00  0.00     0.034 A 
HETATM   28 CL   UNL     1      43.656 -20.976   7.163  1.00  0.00    -0.084 Cl
HETATM   29  C   UNL     1      43.674 -18.358   7.812  1.00  0.00     0.024 A 
HETATM   30  C   UNL     1      43.673 -16.995   7.506  1.00  0.00     0.010 A 
ENDBRANCH  23  24
ENDBRANCH  20  23
ENDBRANCH   4  19
TORSDOF 5
ENDMDL
MODEL 9
REMARK VINA RESULT:      -8.1      5.430      9.201
REMARK  5 active torsions:
REMARK  status: ('A' for Active; 'I' for Inactive)
REMARK    1  A    between atoms: C_6  and  N_7 
REMARK       I    between atoms: N_7  and  C_8 
REMARK       I    between atoms: C_8  and  N_9 
REMARK    2  A    between atoms: N_9  and  C_10 
REMARK    3  A    between atoms: C_13  and  C_14 
REMARK       I    between atoms: C_14  and  N_15 
REMARK    4  A    between atoms: N_15  and  C_16 
REMARK    5  A    between atoms: C_16  and  C_17 
ROOT
HETATM    1  C   UNL     1      42.528 -15.107   4.801  1.00  0.00     0.175 A 
HETATM    2  S   UNL     1      40.910 -15.031   5.327  1.00  0.00    -0.061 SA
HETATM    3  C   UNL     1      40.533 -14.079   3.959  1.00  0.00     0.090 A 
HETATM    4  C   UNL     1      41.659 -13.902   3.170  1.00  0.00     0.133 A 
HETATM    5  N   UNL     1      42.830 -14.481   3.687  1.00  0.00    -0.218 NA
ENDROOT
BRANCH   1   6
HETATM    6  N   UNL     1      43.338 -15.833   5.620  1.00  0.00    -0.287 N 
HETATM    7  C   UNL     1      43.762 -17.115   5.445  1.00  0.00     0.326 C 
HETATM    8  N   UNL     1      43.417 -17.730   4.271  1.00  0.00    -0.309 N 
HETATM    9  O   UNL     1      44.447 -17.607   6.339  1.00  0.00    -0.247 OA
HETATM   10  H   UNL     1      42.889 -17.151   3.627  1.00  0.00     0.170 HD
HETATM   11  H   UNL     1      43.665 -15.391   6.465  1.00  0.00     0.172 HD
BRANCH   8  12
HETATM   12  C   UNL     1      43.771 -19.021   3.832  1.00  0.00     0.037 A 
HETATM   13  C   UNL     1      44.346 -19.994   4.655  1.00  0.00     0.053 A 
HETATM   14  C   UNL     1      44.680 -21.245   4.132  1.00  0.00     0.036 A 
HETATM   15  C   UNL     1      44.449 -21.542   2.791  1.00  0.00     0.024 A 
HETATM   16 CL   UNL     1      45.383 -22.440   5.155  1.00  0.00    -0.084 Cl
HETATM   17  C   UNL     1      43.872 -20.580   1.965  1.00  0.00     0.004 A 
HETATM   18  C   UNL     1      43.530 -19.328   2.486  1.00  0.00     0.029 A 
ENDBRANCH   8  12
ENDBRANCH   1   6
BRANCH   4  19
HETATM   19  C   UNL     1      41.622 -13.188   1.891  1.00  0.00     0.271 C 
HETATM   20  N   UNL     1      40.394 -13.209   1.277  1.00  0.00    -0.351 N 
HETATM   21  H   UNL     1      39.677 -13.802   1.676  1.00  0.00     0.163 HD
HETATM   22  O   UNL     1      42.601 -12.611   1.426  1.00  0.00    -0.266 OA
BRANCH  20  23
HETATM   23  C   UNL     1      40.197 -12.571  -0.001  1.00  0.00     0.161 C 
BRANCH  23  24
HETATM   24  C   UNL     1      39.857 -13.539  -1.106  1.00  0.00    -0.040 A 
HETATM   25  C   UNL     1      38.587 -13.561  -1.704  1.00  0.00     0.010 A 
HETATM   26  C   UNL     1      38.315 -14.425  -2.768  1.00  0.00     0.024 A 
HETATM   27  C   UNL     1      39.317 -15.259  -3.257  1.00  0.00     0.034 A 
HETATM   28 CL   UNL     1      38.987 -16.313  -4.576  1.00  0.00    -0.084 Cl
HETATM   29  C   UNL     1      40.589 -15.236  -2.692  1.00  0.00     0.024 A 
HETATM   30  C   UNL     1      40.859 -14.377  -1.624  1.00  0.00     0.010 A 
ENDBRANCH  23  24
ENDBRANCH  20  23
ENDBRANCH   4  19
TORSDOF 5
ENDMDL
MODEL 10
REMARK VINA RESULT:      -8.0      5.473      9.120
REMARK  5 active torsions:
REMARK  status: ('A' for Active; 'I' for Inactive)
REMARK    1  A    between atoms: C_6  and  N_7 
REMARK       I    between atoms: N_7  and  C_8 
REMARK       I    between atoms: C_8  and  N_9 
REMARK    2  A    between atoms: N_9  and  C_10 
REMARK    3  A    between atoms: C_13  and  C_14 
REMARK       I    between atoms: C_14  and  N_15 
REMARK    4  A    between atoms: N_15  and  C_16 
REMARK    5  A    between atoms: C_16  and  C_17 
ROOT
HETATM    1  C   UNL     1      42.941 -16.098   5.845  1.00  0.00     0.175 A 
HETATM    2  S   UNL     1      41.648 -16.650   6.808  1.00  0.00    -0.061 SA
HETATM    3  C   UNL     1      40.578 -15.691   5.883  1.00  0.00     0.090 A 
HETATM    4  C   UNL     1      41.269 -15.031   4.879  1.00  0.00     0.133 A 
HETATM    5  N   UNL     1      42.657 -15.250   4.883  1.00  0.00    -0.218 NA
ENDROOT
BRANCH   1   6
HETATM    6  N   UNL     1      44.148 -16.619   6.197  1.00  0.00    -0.287 N 
HETATM    7  C   UNL     1      44.629 -17.862   5.915  1.00  0.00     0.326 C 
HETATM    8  N   UNL     1      43.860 -18.659   5.111  1.00  0.00    -0.309 N 
HETATM    9  O   UNL     1      45.729 -18.156   6.379  1.00  0.00    -0.247 OA
HETATM   10  H   UNL     1      43.002 -18.229   4.780  1.00  0.00     0.170 HD
HETATM   11  H   UNL     1      44.770 -16.037   6.737  1.00  0.00     0.172 HD
BRANCH   8  12
HETATM   12  C   UNL     1      44.155 -19.953   4.636  1.00  0.00     0.037 A 
HETATM   13  C   UNL     1      44.131 -20.313   3.286  1.00  0.00     0.053 A 
HETATM   14  C   UNL     1      44.423 -21.625   2.905  1.00  0.00     0.036 A 
HETATM   15  C   UNL     1      44.739 -22.589   3.858  1.00  0.00     0.024 A 
HETATM   16 CL   UNL     1      44.395 -22.057   1.237  1.00  0.00    -0.084 Cl
HETATM   17  C   UNL     1      44.771 -22.238   5.206  1.00  0.00     0.004 A 
HETATM   18  C   UNL     1      44.485 -20.925   5.591  1.00  0.00     0.029 A 
ENDBRANCH   8  12
ENDBRANCH   1   6
BRANCH   4  19
HETATM   19  C   UNL     1      40.600 -14.193   3.880  1.00  0.00     0.271 C 
HETATM   20  N   UNL     1      39.643 -14.853   3.149  1.00  0.00    -0.351 N 
HETATM   21  H   UNL     1      39.573 -15.856   3.263  1.00  0.00     0.163 HD
HETATM   22  O   UNL     1      40.864 -13.003   3.730  1.00  0.00    -0.266 OA
BRANCH  20  23
HETATM   23  C   UNL     1      38.909 -14.174   2.110  1.00  0.00     0.161 C 
BRANCH  23  24
HETATM   24  C   UNL     1      39.460 -14.423   0.729  1.00  0.00    -0.040 A 
HETATM   25  C   UNL     1      38.881 -13.845  -0.413  1.00  0.00     0.010 A 
HETATM   26  C   UNL     1      39.446 -14.042  -1.675  1.00  0.00     0.024 A 
HETATM   27  C   UNL     1      40.607 -14.800  -1.805  1.00  0.00     0.034 A 
HETATM   28 CL   UNL     1      41.311 -15.030  -3.358  1.00  0.00    -0.084 Cl
HETATM   29  C   UNL     1      41.209 -15.362  -0.683  1.00  0.00     0.024 A 
HETATM   30  C   UNL     1      40.639 -15.172   0.579  1.00  0.00     0.010 A 
ENDBRANCH  23  24
ENDBRANCH  20  23
ENDBRANCH   4  19
TORSDOF 5
ENDMDL
