MODEL 1
REMARK VINA RESULT:      -9.0      0.000      0.000
REMARK  4 active torsions:
REMARK  status: ('A' for Active; 'I' for Inactive)
REMARK    1  A    between atoms: C_5  and  C_6 
REMARK    2  A    between atoms: C_8  and  O_9 
REMARK    3  A    between atoms: C_15  and  C_16 
REMARK       I    between atoms: C_16  and  N_17 
REMARK    4  A    between atoms: N_17  and  C_18 
ROOT
HETATM    1  C   UNL     1      41.284 -14.424   4.710  1.00  0.00     0.071 C 
HETATM    2  C   UNL     1      42.389 -14.471   5.693  1.00  0.00     0.041 A 
HETATM    3  N   UNL     1      42.871 -13.360   6.335  1.00  0.00    -0.342 N 
HETATM    4  H   UNL     1      42.524 -12.418   6.227  1.00  0.00     0.167 HD
HETATM    5  C   UNL     1      43.902 -13.737   7.166  1.00  0.00     0.139 A 
HETATM    6  N   UNL     1      44.059 -15.048   7.118  1.00  0.00    -0.223 NA
HETATM    7  C   UNL     1      43.147 -15.521   6.180  1.00  0.00     0.149 A 
ENDROOT
BRANCH   7   8
HETATM    8  C   UNL     1      43.062 -16.939   5.805  1.00  0.00     0.276 C 
HETATM    9  N   UNL     1      43.840 -17.205   4.698  1.00  0.00    -0.322 N 
HETATM   10  H   UNL     1      44.363 -16.398   4.364  1.00  0.00     0.169 HD
HETATM   11  O   UNL     1      42.376 -17.739   6.432  1.00  0.00    -0.266 OA
BRANCH   9  12
HETATM   12  C   UNL     1      43.981 -18.417   4.000  1.00  0.00     0.035 A 
HETATM   13  C   UNL     1      44.419 -19.602   4.596  1.00  0.00     0.039 A 
HETATM   14  C   UNL     1      44.496 -20.750   3.819  1.00  0.00    -0.024 A 
HETATM   15  C   UNL     1      44.166 -20.736   2.475  1.00  0.00    -0.026 A 
HETATM   16  C   UNL     1      44.924 -22.116   4.209  1.00  0.00     0.207 C 
HETATM   17  C   UNL     1      44.373 -22.091   1.906  1.00  0.00     0.207 C 
HETATM   18  C   UNL     1      43.740 -19.575   1.858  1.00  0.00     0.012 A 
HETATM   19  O   UNL     1      44.635 -22.936   3.051  1.00  0.00    -0.382 OA
HETATM   20  C   UNL     1      43.641 -18.414   2.632  1.00  0.00     0.030 A 
ENDBRANCH   9  12
ENDBRANCH   7   8
BRANCH   5  21
HETATM   21  C   UNL     1      44.674 -12.800   7.987  1.00  0.00     0.013 A 
HETATM   22  C   UNL     1      44.078 -12.050   9.016  1.00  0.00     0.052 A 
HETATM   23  C   UNL     1      44.837 -11.158   9.781  1.00  0.00     0.069 A 
HETATM   24  C   UNL     1      46.202 -11.021   9.522  1.00  0.00     0.037 A 
HETATM   25  C   UNL     1      46.804 -11.749   8.498  1.00  0.00     0.004 A 
HETATM   26  C   UNL     1      46.042 -12.629   7.732  1.00  0.00     0.015 A 
BRANCH  23  27
HETATM   27  O   UNL     1      44.369 -10.375  10.801  1.00  0.00    -0.356 OA
HETATM   28  C   UNL     1      43.584 -11.013  11.800  1.00  0.00     0.210 C 
ENDBRANCH  23  27
ENDBRANCH   5  21
TORSDOF 4
ENDMDL
MODEL 2
REMARK VINA RESULT:      -8.4      4.854      8.042
REMARK  4 active torsions:
REMARK  status: ('A' for Active; 'I' for Inactive)
REMARK    1  A    between atoms: C_5  and  C_6 
REMARK    2  A    between atoms: C_8  and  O_9 
REMARK    3  A    between atoms: C_15  and  C_16 
REMARK       I    between atoms: C_16  and  N_17 
REMARK    4  A    between atoms: N_17  and  C_18 
ROOT
HETATM    1  C   UNL     1      42.801 -13.322   3.698  1.00  0.00     0.071 C 
HETATM    2  C   UNL     1      42.398 -13.990   2.440  1.00  0.00     0.041 A 
HETATM    3  N   UNL     1      42.121 -13.308   1.283  1.00  0.00    -0.342 N 
HETATM    4  H   UNL     1      42.180 -12.308   1.158  1.00  0.00     0.167 HD
HETATM    5  C   UNL     1      41.761 -14.211   0.308  1.00  0.00     0.139 A 
HETATM    6  N   UNL     1      41.848 -15.440   0.783  1.00  0.00    -0.223 NA
HETATM    7  C   UNL     1      42.211 -15.322   2.120  1.00  0.00     0.149 A 
ENDROOT
BRANCH   7   8
HETATM    8  C   UNL     1      42.352 -16.486   3.007  1.00  0.00     0.276 C 
HETATM    9  N   UNL     1      43.367 -17.315   2.576  1.00  0.00    -0.322 N 
HETATM   10  H   UNL     1      43.862 -16.963   1.760  1.00  0.00     0.169 HD
HETATM   11  O   UNL     1      41.637 -16.648   3.990  1.00  0.00    -0.266 OA
BRANCH   9  12
HETATM   12  C   UNL     1      43.773 -18.549   3.113  1.00  0.00     0.035 A 
HETATM   13  C   UNL     1      43.759 -19.746   2.392  1.00  0.00     0.039 A 
HETATM   14  C   UNL     1      44.208 -20.903   3.013  1.00  0.00    -0.024 A 
HETATM   15  C   UNL     1      44.648 -20.895   4.326  1.00  0.00    -0.026 A 
HETATM   16  C   UNL     1      44.294 -22.282   2.472  1.00  0.00     0.207 C 
HETATM   17  C   UNL     1      45.034 -22.272   4.721  1.00  0.00     0.207 C 
HETATM   18  C   UNL     1      44.662 -19.727   5.065  1.00  0.00     0.012 A 
HETATM   19  O   UNL     1      44.995 -23.034   3.492  1.00  0.00    -0.382 OA
HETATM   20  C   UNL     1      44.229 -18.549   4.448  1.00  0.00     0.030 A 
ENDBRANCH   9  12
ENDBRANCH   7   8
BRANCH   5  21
HETATM   21  C   UNL     1      41.368 -13.832  -1.052  1.00  0.00     0.013 A 
HETATM   22  C   UNL     1      40.911 -14.781  -1.984  1.00  0.00     0.052 A 
HETATM   23  C   UNL     1      40.548 -14.394  -3.278  1.00  0.00     0.069 A 
HETATM   24  C   UNL     1      40.634 -13.048  -3.640  1.00  0.00     0.037 A 
HETATM   25  C   UNL     1      41.096 -12.098  -2.732  1.00  0.00     0.004 A 
HETATM   26  C   UNL     1      41.466 -12.491  -1.447  1.00  0.00     0.015 A 
BRANCH  23  27
HETATM   27  O   UNL     1      40.096 -15.223  -4.268  1.00  0.00    -0.356 OA
HETATM   28  C   UNL     1      39.045 -16.120  -3.931  1.00  0.00     0.210 C 
ENDBRANCH  23  27
ENDBRANCH   5  21
TORSDOF 4
ENDMDL
MODEL 3
REMARK VINA RESULT:      -8.3      5.939      9.536
REMARK  4 active torsions:
REMARK  status: ('A' for Active; 'I' for Inactive)
REMARK    1  A    between atoms: C_5  and  C_6 
REMARK    2  A    between atoms: C_8  and  O_9 
REMARK    3  A    between atoms: C_15  and  C_16 
REMARK       I    between atoms: C_16  and  N_17 
REMARK    4  A    between atoms: N_17  and  C_18 
ROOT
HETATM    1  C   UNL     1      39.353 -15.309   1.994  1.00  0.00     0.071 C 
HETATM    2  C   UNL     1      40.557 -16.097   1.646  1.00  0.00     0.041 A 
HETATM    3  N   UNL     1      41.087 -17.060   2.466  1.00  0.00    -0.342 N 
HETATM    4  H   UNL     1      40.715 -17.345   3.360  1.00  0.00     0.167 HD
HETATM    5  C   UNL     1      42.207 -17.590   1.866  1.00  0.00     0.139 A 
HETATM    6  N   UNL     1      42.379 -17.041   0.677  1.00  0.00    -0.223 NA
HETATM    7  C   UNL     1      41.380 -16.083   0.535  1.00  0.00     0.149 A 
ENDROOT
BRANCH   7   8
HETATM    8  C   UNL     1      41.279 -15.215  -0.646  1.00  0.00     0.276 C 
HETATM    9  N   UNL     1      42.012 -14.059  -0.473  1.00  0.00    -0.322 N 
HETATM   10  H   UNL     1      42.521 -14.028   0.407  1.00  0.00     0.169 HD
HETATM   11  O   UNL     1      40.618 -15.527  -1.631  1.00  0.00    -0.266 OA
BRANCH   9  12
HETATM   12  C   UNL     1      42.123 -12.959  -1.341  1.00  0.00     0.035 A 
HETATM   13  C   UNL     1      42.054 -11.630  -0.914  1.00  0.00     0.039 A 
HETATM   14  C   UNL     1      42.203 -10.620  -1.853  1.00  0.00    -0.024 A 
HETATM   15  C   UNL     1      42.402 -10.902  -3.194  1.00  0.00    -0.026 A 
HETATM   16  C   UNL     1      42.171  -9.149  -1.658  1.00  0.00     0.207 C 
HETATM   17  C   UNL     1      42.497  -9.631  -3.953  1.00  0.00     0.207 C 
HETATM   18  C   UNL     1      42.464 -12.207  -3.645  1.00  0.00     0.012 A 
HETATM   19  O   UNL     1      42.558  -8.599  -2.941  1.00  0.00    -0.382 OA
HETATM   20  C   UNL     1      42.332 -13.237  -2.707  1.00  0.00     0.030 A 
ENDBRANCH   9  12
ENDBRANCH   7   8
BRANCH   5  21
HETATM   21  C   UNL     1      43.046 -18.626   2.473  1.00  0.00     0.013 A 
HETATM   22  C   UNL     1      43.609 -18.470   3.752  1.00  0.00     0.052 A 
HETATM   23  C   UNL     1      44.412 -19.472   4.306  1.00  0.00     0.069 A 
HETATM   24  C   UNL     1      44.648 -20.641   3.581  1.00  0.00     0.037 A 
HETATM   25  C   UNL     1      44.107 -20.806   2.308  1.00  0.00     0.004 A 
HETATM   26  C   UNL     1      43.315 -19.800   1.755  1.00  0.00     0.015 A 
BRANCH  23  27
HETATM   27  O   UNL     1      45.014 -19.432   5.534  1.00  0.00    -0.356 OA
HETATM   28  C   UNL     1      44.967 -18.198   6.240  1.00  0.00     0.210 C 
ENDBRANCH  23  27
ENDBRANCH   5  21
TORSDOF 4
ENDMDL
MODEL 4
REMARK VINA RESULT:      -8.2      5.507      8.040
REMARK  4 active torsions:
REMARK  status: ('A' for Active; 'I' for Inactive)
REMARK    1  A    between atoms: C_5  and  C_6 
REMARK    2  A    between atoms: C_8  and  O_9 
REMARK    3  A    between atoms: C_15  and  C_16 
REMARK       I    between atoms: C_16  and  N_17 
REMARK    4  A    between atoms: N_17  and  C_18 
ROOT
HETATM    1  C   UNL     1      42.532 -13.451   3.397  1.00  0.00     0.071 C 
HETATM    2  C   UNL     1      42.205 -13.825   2.002  1.00  0.00     0.041 A 
HETATM    3  N   UNL     1      42.092 -12.911   0.986  1.00  0.00    -0.342 N 
HETATM    4  H   UNL     1      42.235 -11.915   1.069  1.00  0.00     0.167 HD
HETATM    5  C   UNL     1      41.765 -13.573  -0.175  1.00  0.00     0.139 A 
HETATM    6  N   UNL     1      41.717 -14.874   0.050  1.00  0.00    -0.223 NA
HETATM    7  C   UNL     1      41.956 -15.049   1.409  1.00  0.00     0.149 A 
ENDROOT
BRANCH   7   8
HETATM    8  C   UNL     1      41.925 -16.369   2.054  1.00  0.00     0.276 C 
HETATM    9  N   UNL     1      43.186 -16.929   2.092  1.00  0.00    -0.322 N 
HETATM   10  H   UNL     1      43.911 -16.325   1.713  1.00  0.00     0.169 HD
HETATM   11  O   UNL     1      40.889 -16.860   2.488  1.00  0.00    -0.266 OA
BRANCH   9  12
HETATM   12  C   UNL     1      43.563 -18.196   2.569  1.00  0.00     0.035 A 
HETATM   13  C   UNL     1      43.549 -19.352   1.784  1.00  0.00     0.039 A 
HETATM   14  C   UNL     1      43.968 -20.547   2.350  1.00  0.00    -0.024 A 
HETATM   15  C   UNL     1      44.380 -20.617   3.670  1.00  0.00    -0.026 A 
HETATM   16  C   UNL     1      44.047 -21.896   1.737  1.00  0.00     0.207 C 
HETATM   17  C   UNL     1      44.739 -22.019   3.998  1.00  0.00     0.207 C 
HETATM   18  C   UNL     1      44.394 -19.491   4.472  1.00  0.00     0.012 A 
HETATM   19  O   UNL     1      44.715 -22.713   2.728  1.00  0.00    -0.382 OA
HETATM   20  C   UNL     1      43.990 -18.275   3.911  1.00  0.00     0.030 A 
ENDBRANCH   9  12
ENDBRANCH   7   8
BRANCH   5  21
HETATM   21  C   UNL     1      41.534 -12.906  -1.459  1.00  0.00     0.013 A 
HETATM   22  C   UNL     1      42.342 -11.842  -1.897  1.00  0.00     0.052 A 
HETATM   23  C   UNL     1      42.096 -11.218  -3.125  1.00  0.00     0.069 A 
HETATM   24  C   UNL     1      41.042 -11.666  -3.924  1.00  0.00     0.037 A 
HETATM   25  C   UNL     1      40.226 -12.712  -3.498  1.00  0.00     0.004 A 
HETATM   26  C   UNL     1      40.469 -13.324  -2.269  1.00  0.00     0.015 A 
BRANCH  23  27
HETATM   27  O   UNL     1      42.808 -10.175  -3.653  1.00  0.00    -0.356 OA
HETATM   28  C   UNL     1      42.425  -9.717  -4.944  1.00  0.00     0.210 C 
ENDBRANCH  23  27
ENDBRANCH   5  21
TORSDOF 4
ENDMDL
MODEL 5
REMARK VINA RESULT:      -8.2      3.310      8.909
REMARK  4 active torsions:
REMARK  status: ('A' for Active; 'I' for Inactive)
REMARK    1  A    between atoms: C_5  and  C_6 
REMARK    2  A    between atoms: C_8  and  O_9 
REMARK    3  A    between atoms: C_15  and  C_16 
REMARK       I    between atoms: C_16  and  N_17 
REMARK    4  A    between atoms: N_17  and  C_18 
ROOT
HETATM    1  C   UNL     1      44.119 -15.021   6.765  1.00  0.00     0.071 C 
HETATM    2  C   UNL     1      43.859 -16.126   5.816  1.00  0.00     0.041 A 
HETATM    3  N   UNL     1      44.250 -17.420   6.045  1.00  0.00    -0.342 N 
HETATM    4  H   UNL     1      44.724 -17.757   6.871  1.00  0.00     0.167 HD
HETATM    5  C   UNL     1      43.877 -18.196   4.971  1.00  0.00     0.139 A 
HETATM    6  N   UNL     1      43.220 -17.459   4.094  1.00  0.00    -0.223 NA
HETATM    7  C   UNL     1      43.227 -16.158   4.587  1.00  0.00     0.149 A 
ENDROOT
BRANCH   7   8
HETATM    8  C   UNL     1      42.637 -15.030   3.852  1.00  0.00     0.276 C 
HETATM    9  N   UNL     1      41.258 -15.081   3.894  1.00  0.00    -0.322 N 
HETATM   10  H   UNL     1      40.896 -15.850   4.453  1.00  0.00     0.169 HD
HETATM   11  O   UNL     1      43.325 -14.183   3.295  1.00  0.00    -0.266 OA
BRANCH   9  12
HETATM   12  C   UNL     1      40.334 -14.226   3.270  1.00  0.00     0.035 A 
HETATM   13  C   UNL     1      39.498 -14.626   2.225  1.00  0.00     0.039 A 
HETATM   14  C   UNL     1      38.602 -13.705   1.699  1.00  0.00    -0.024 A 
HETATM   15  C   UNL     1      38.536 -12.407   2.175  1.00  0.00    -0.026 A 
HETATM   16  C   UNL     1      37.619 -13.879   0.601  1.00  0.00     0.207 C 
HETATM   17  C   UNL     1      37.514 -11.655   1.406  1.00  0.00     0.207 C 
HETATM   18  C   UNL     1      39.359 -11.982   3.201  1.00  0.00     0.012 A 
HETATM   19  O   UNL     1      36.844 -12.655   0.604  1.00  0.00    -0.382 OA
HETATM   20  C   UNL     1      40.255 -12.904   3.753  1.00  0.00     0.030 A 
ENDBRANCH   9  12
ENDBRANCH   7   8
BRANCH   5  21
HETATM   21  C   UNL     1      44.161 -19.629   4.860  1.00  0.00     0.013 A 
HETATM   22  C   UNL     1      44.328 -20.258   3.613  1.00  0.00     0.052 A 
HETATM   23  C   UNL     1      44.593 -21.629   3.535  1.00  0.00     0.069 A 
HETATM   24  C   UNL     1      44.698 -22.376   4.710  1.00  0.00     0.037 A 
HETATM   25  C   UNL     1      44.523 -21.769   5.952  1.00  0.00     0.004 A 
HETATM   26  C   UNL     1      44.250 -20.404   6.024  1.00  0.00     0.015 A 
BRANCH  23  27
HETATM   27  O   UNL     1      44.770 -22.349   2.385  1.00  0.00    -0.356 OA
HETATM   28  C   UNL     1      43.961 -21.998   1.269  1.00  0.00     0.210 C 
ENDBRANCH  23  27
ENDBRANCH   5  21
TORSDOF 4
ENDMDL
MODEL 6
REMARK VINA RESULT:      -8.0      6.071      9.859
REMARK  4 active torsions:
REMARK  status: ('A' for Active; 'I' for Inactive)
REMARK    1  A    between atoms: C_5  and  C_6 
REMARK    2  A    between atoms: C_8  and  O_9 
REMARK    3  A    between atoms: C_15  and  C_16 
REMARK       I    between atoms: C_16  and  N_17 
REMARK    4  A    between atoms: N_17  and  C_18 
ROOT
HETATM    1  C   UNL     1      38.980 -15.003   1.846  1.00  0.00     0.071 C 
HETATM    2  C   UNL     1      40.280 -15.690   1.676  1.00  0.00     0.041 A 
HETATM    3  N   UNL     1      40.761 -16.618   2.563  1.00  0.00    -0.342 N 
HETATM    4  H   UNL     1      40.286 -16.943   3.393  1.00  0.00     0.167 HD
HETATM    5  C   UNL     1      41.994 -17.052   2.131  1.00  0.00     0.139 A 
HETATM    6  N   UNL     1      42.292 -16.475   0.980  1.00  0.00    -0.223 NA
HETATM    7  C   UNL     1      41.252 -15.597   0.696  1.00  0.00     0.149 A 
ENDROOT
BRANCH   7   8
HETATM    8  C   UNL     1      41.254 -14.724  -0.486  1.00  0.00     0.276 C 
HETATM    9  N   UNL     1      41.982 -13.576  -0.251  1.00  0.00    -0.322 N 
HETATM   10  H   UNL     1      42.419 -13.553   0.668  1.00  0.00     0.169 HD
HETATM   11  O   UNL     1      40.672 -15.027  -1.522  1.00  0.00    -0.266 OA
BRANCH   9  12
HETATM   12  C   UNL     1      42.174 -12.475  -1.102  1.00  0.00     0.035 A 
HETATM   13  C   UNL     1      42.176 -12.569  -2.496  1.00  0.00     0.039 A 
HETATM   14  C   UNL     1      42.348 -11.412  -3.242  1.00  0.00    -0.024 A 
HETATM   15  C   UNL     1      42.533 -10.181  -2.636  1.00  0.00    -0.026 A 
HETATM   16  C   UNL     1      42.386 -11.246  -4.716  1.00  0.00     0.207 C 
HETATM   17  C   UNL     1      42.716  -9.143  -3.680  1.00  0.00     0.207 C 
HETATM   18  C   UNL     1      42.546 -10.061  -1.258  1.00  0.00     0.012 A 
HETATM   19  O   UNL     1      42.411  -9.813  -4.925  1.00  0.00    -0.382 OA
HETATM   20  C   UNL     1      42.357 -11.216  -0.493  1.00  0.00     0.030 A 
ENDBRANCH   9  12
ENDBRANCH   7   8
BRANCH   5  21
HETATM   21  C   UNL     1      42.816 -18.027   2.852  1.00  0.00     0.013 A 
HETATM   22  C   UNL     1      43.493 -19.064   2.185  1.00  0.00     0.052 A 
HETATM   23  C   UNL     1      44.267 -19.985   2.898  1.00  0.00     0.069 A 
HETATM   24  C   UNL     1      44.372 -19.865   4.285  1.00  0.00     0.037 A 
HETATM   25  C   UNL     1      43.698 -18.850   4.961  1.00  0.00     0.004 A 
HETATM   26  C   UNL     1      42.919 -17.940   4.247  1.00  0.00     0.015 A 
BRANCH  23  27
HETATM   27  O   UNL     1      44.965 -21.033   2.363  1.00  0.00    -0.356 OA
HETATM   28  C   UNL     1      44.221 -22.004   1.636  1.00  0.00     0.210 C 
ENDBRANCH  23  27
ENDBRANCH   5  21
TORSDOF 4
ENDMDL
MODEL 7
REMARK VINA RESULT:      -7.9      6.464      8.338
REMARK  4 active torsions:
REMARK  status: ('A' for Active; 'I' for Inactive)
REMARK    1  A    between atoms: C_5  and  C_6 
REMARK    2  A    between atoms: C_8  and  O_9 
REMARK    3  A    between atoms: C_15  and  C_16 
REMARK       I    between atoms: C_16  and  N_17 
REMARK    4  A    between atoms: N_17  and  C_18 
ROOT
HETATM    1  C   UNL     1      40.725 -15.944  -2.583  1.00  0.00     0.071 C 
HETATM    2  C   UNL     1      41.269 -14.788  -1.836  1.00  0.00     0.041 A 
HETATM    3  N   UNL     1      41.521 -13.571  -2.415  1.00  0.00    -0.342 N 
HETATM    4  H   UNL     1      41.349 -13.329  -3.380  1.00  0.00     0.167 HD
HETATM    5  C   UNL     1      42.036 -12.721  -1.462  1.00  0.00     0.139 A 
HETATM    6  N   UNL     1      42.072 -13.332  -0.291  1.00  0.00    -0.223 NA
HETATM    7  C   UNL     1      41.629 -14.633  -0.510  1.00  0.00     0.149 A 
ENDROOT
BRANCH   7   8
HETATM    8  C   UNL     1      41.584 -15.643   0.557  1.00  0.00     0.276 C 
HETATM    9  N   UNL     1      42.857 -16.038   0.916  1.00  0.00    -0.322 N 
HETATM   10  H   UNL     1      43.593 -15.541   0.421  1.00  0.00     0.169 HD
HETATM   11  O   UNL     1      40.528 -16.044   1.031  1.00  0.00    -0.266 OA
BRANCH   9  12
HETATM   12  C   UNL     1      43.234 -17.020   1.848  1.00  0.00     0.035 A 
HETATM   13  C   UNL     1      43.589 -18.324   1.493  1.00  0.00     0.039 A 
HETATM   14  C   UNL     1      43.972 -19.206   2.494  1.00  0.00    -0.024 A 
HETATM   15  C   UNL     1      43.992 -18.825   3.825  1.00  0.00    -0.026 A 
HETATM   16  C   UNL     1      44.390 -20.625   2.381  1.00  0.00     0.207 C 
HETATM   17  C   UNL     1      44.412 -19.978   4.659  1.00  0.00     0.207 C 
HETATM   18  C   UNL     1      43.636 -17.544   4.204  1.00  0.00     0.012 A 
HETATM   19  O   UNL     1      44.841 -20.983   3.710  1.00  0.00    -0.382 OA
HETATM   20  C   UNL     1      43.264 -16.639   3.205  1.00  0.00     0.030 A 
ENDBRANCH   9  12
ENDBRANCH   7   8
BRANCH   5  21
HETATM   21  C   UNL     1      42.449 -11.342  -1.734  1.00  0.00     0.013 A 
HETATM   22  C   UNL     1      42.181 -10.716  -2.964  1.00  0.00     0.052 A 
HETATM   23  C   UNL     1      42.592  -9.401  -3.200  1.00  0.00     0.069 A 
HETATM   24  C   UNL     1      43.269  -8.703  -2.198  1.00  0.00     0.037 A 
HETATM   25  C   UNL     1      43.552  -9.314  -0.979  1.00  0.00     0.004 A 
HETATM   26  C   UNL     1      43.149 -10.628  -0.751  1.00  0.00     0.015 A 
BRANCH  23  27
HETATM   27  O   UNL     1      42.393  -8.691  -4.353  1.00  0.00    -0.356 OA
HETATM   28  C   UNL     1      42.513  -7.276  -4.272  1.00  0.00     0.210 C 
ENDBRANCH  23  27
ENDBRANCH   5  21
TORSDOF 4
ENDMDL
MODEL 8
REMARK VINA RESULT:      -7.8      3.728      9.377
REMARK  4 active torsions:
REMARK  status: ('A' for Active; 'I' for Inactive)
REMARK    1  A    between atoms: C_5  and  C_6 
REMARK    2  A    between atoms: C_8  and  O_9 
REMARK    3  A    between atoms: C_15  and  C_16 
REMARK       I    between atoms: C_16  and  N_17 
REMARK    4  A    between atoms: N_17  and  C_18 
ROOT
HETATM    1  C   UNL     1      41.384 -15.426  -0.212  1.00  0.00     0.071 C 
HETATM    2  C   UNL     1      42.070 -16.040   0.947  1.00  0.00     0.041 A 
HETATM    3  N   UNL     1      42.449 -17.357   0.984  1.00  0.00    -0.342 N 
HETATM    4  H   UNL     1      42.326 -18.028   0.240  1.00  0.00     0.167 HD
HETATM    5  C   UNL     1      43.042 -17.617   2.199  1.00  0.00     0.139 A 
HETATM    6  N   UNL     1      43.101 -16.507   2.914  1.00  0.00    -0.223 NA
HETATM    7  C   UNL     1      42.471 -15.520   2.164  1.00  0.00     0.149 A 
ENDROOT
BRANCH   7   8
HETATM    8  C   UNL     1      42.286 -14.148   2.659  1.00  0.00     0.276 C 
HETATM    9  N   UNL     1      41.376 -14.115   3.696  1.00  0.00    -0.322 N 
HETATM   10  H   UNL     1      41.030 -15.034   3.962  1.00  0.00     0.169 HD
HETATM   11  O   UNL     1      42.890 -13.195   2.179  1.00  0.00    -0.266 OA
BRANCH   9  12
HETATM   12  C   UNL     1      40.888 -12.997   4.393  1.00  0.00     0.035 A 
HETATM   13  C   UNL     1      39.892 -12.152   3.894  1.00  0.00     0.039 A 
HETATM   14  C   UNL     1      39.465 -11.091   4.679  1.00  0.00    -0.024 A 
HETATM   15  C   UNL     1      40.014 -10.846   5.926  1.00  0.00    -0.026 A 
HETATM   16  C   UNL     1      38.435 -10.064   4.383  1.00  0.00     0.207 C 
HETATM   17  C   UNL     1      39.383  -9.638   6.511  1.00  0.00     0.207 C 
HETATM   18  C   UNL     1      41.007 -11.660   6.439  1.00  0.00     0.012 A 
HETATM   19  O   UNL     1      38.286  -9.326   5.620  1.00  0.00    -0.382 OA
HETATM   20  C   UNL     1      41.437 -12.744   5.666  1.00  0.00     0.030 A 
ENDBRANCH   9  12
ENDBRANCH   7   8
BRANCH   5  21
HETATM   21  C   UNL     1      43.543 -18.934   2.599  1.00  0.00     0.013 A 
HETATM   22  C   UNL     1      43.995 -19.190   3.906  1.00  0.00     0.052 A 
HETATM   23  C   UNL     1      44.474 -20.456   4.260  1.00  0.00     0.069 A 
HETATM   24  C   UNL     1      44.494 -21.474   3.305  1.00  0.00     0.037 A 
HETATM   25  C   UNL     1      44.060 -21.232   2.003  1.00  0.00     0.004 A 
HETATM   26  C   UNL     1      43.592 -19.967   1.652  1.00  0.00     0.015 A 
BRANCH  23  27
HETATM   27  O   UNL     1      44.942 -20.822   5.492  1.00  0.00    -0.356 OA
HETATM   28  C   UNL     1      43.978 -21.208   6.463  1.00  0.00     0.210 C 
ENDBRANCH  23  27
ENDBRANCH   5  21
TORSDOF 4
ENDMDL
MODEL 9
REMARK VINA RESULT:      -7.8      4.585      8.672
REMARK  4 active torsions:
REMARK  status: ('A' for Active; 'I' for Inactive)
REMARK    1  A    between atoms: C_5  and  C_6 
REMARK    2  A    between atoms: C_8  and  O_9 
REMARK    3  A    between atoms: C_15  and  C_16 
REMARK       I    between atoms: C_16  and  N_17 
REMARK    4  A    between atoms: N_17  and  C_18 
ROOT
HETATM    1  C   UNL     1      42.933 -13.886   5.637  1.00  0.00     0.071 C 
HETATM    2  C   UNL     1      43.071 -15.108   4.813  1.00  0.00     0.041 A 
HETATM    3  N   UNL     1      43.447 -16.322   5.328  1.00  0.00    -0.342 N 
HETATM    4  H   UNL     1      43.645 -16.516   6.298  1.00  0.00     0.167 HD
HETATM    5  C   UNL     1      43.498 -17.243   4.306  1.00  0.00     0.139 A 
HETATM    6  N   UNL     1      43.119 -16.677   3.174  1.00  0.00    -0.223 NA
HETATM    7  C   UNL     1      42.880 -15.337   3.463  1.00  0.00     0.149 A 
ENDROOT
BRANCH   7   8
HETATM    8  C   UNL     1      42.492 -14.363   2.433  1.00  0.00     0.276 C 
HETATM    9  N   UNL     1      41.547 -14.897   1.580  1.00  0.00    -0.322 N 
HETATM   10  H   UNL     1      41.256 -15.838   1.833  1.00  0.00     0.169 HD
HETATM   11  O   UNL     1      42.973 -13.237   2.386  1.00  0.00    -0.266 OA
BRANCH   9  12
HETATM   12  C   UNL     1      40.969 -14.310   0.442  1.00  0.00     0.035 A 
HETATM   13  C   UNL     1      41.677 -14.053  -0.736  1.00  0.00     0.039 A 
HETATM   14  C   UNL     1      41.000 -13.495  -1.811  1.00  0.00    -0.024 A 
HETATM   15  C   UNL     1      39.656 -13.174  -1.732  1.00  0.00    -0.026 A 
HETATM   16  C   UNL     1      41.516 -13.131  -3.154  1.00  0.00     0.207 C 
HETATM   17  C   UNL     1      39.220 -12.571  -3.016  1.00  0.00     0.207 C 
HETATM   18  C   UNL     1      38.935 -13.408  -0.576  1.00  0.00     0.012 A 
HETATM   19  O   UNL     1      40.339 -12.760  -3.912  1.00  0.00    -0.382 OA
HETATM   20  C   UNL     1      39.599 -13.987   0.511  1.00  0.00     0.030 A 
ENDBRANCH   9  12
ENDBRANCH   7   8
BRANCH   5  21
HETATM   21  C   UNL     1      43.894 -18.642   4.486  1.00  0.00     0.013 A 
HETATM   22  C   UNL     1      44.198 -19.473   3.393  1.00  0.00     0.052 A 
HETATM   23  C   UNL     1      44.568 -20.807   3.592  1.00  0.00     0.069 A 
HETATM   24  C   UNL     1      44.644 -21.312   4.891  1.00  0.00     0.037 A 
HETATM   25  C   UNL     1      44.334 -20.504   5.983  1.00  0.00     0.004 A 
HETATM   26  C   UNL     1      43.956 -19.178   5.779  1.00  0.00     0.015 A 
BRANCH  23  27
HETATM   27  O   UNL     1      44.882 -21.709   2.612  1.00  0.00    -0.356 OA
HETATM   28  C   UNL     1      43.944 -21.870   1.555  1.00  0.00     0.210 C 
ENDBRANCH  23  27
ENDBRANCH   5  21
TORSDOF 4
ENDMDL
MODEL 10
REMARK VINA RESULT:      -7.7      5.412      9.180
REMARK  4 active torsions:
REMARK  status: ('A' for Active; 'I' for Inactive)
REMARK    1  A    between atoms: C_5  and  C_6 
REMARK    2  A    between atoms: C_8  and  O_9 
REMARK    3  A    between atoms: C_15  and  C_16 
REMARK       I    between atoms: C_16  and  N_17 
REMARK    4  A    between atoms: N_17  and  C_18 
ROOT
HETATM    1  C   UNL     1      40.194 -14.390   4.165  1.00  0.00     0.071 C 
HETATM    2  C   UNL     1      41.314 -15.177   3.602  1.00  0.00     0.041 A 
HETATM    3  N   UNL     1      41.791 -16.324   4.182  1.00  0.00    -0.342 N 
HETATM    4  H   UNL     1      41.429 -16.759   5.018  1.00  0.00     0.167 HD
HETATM    5  C   UNL     1      42.840 -16.802   3.429  1.00  0.00     0.139 A 
HETATM    6  N   UNL     1      43.014 -16.035   2.368  1.00  0.00    -0.223 NA
HETATM    7  C   UNL     1      42.095 -14.997   2.475  1.00  0.00     0.149 A 
ENDROOT
BRANCH   7   8
HETATM    8  C   UNL     1      42.023 -13.899   1.500  1.00  0.00     0.276 C 
HETATM    9  N   UNL     1      41.412 -14.313   0.335  1.00  0.00    -0.322 N 
HETATM   10  H   UNL     1      41.083 -15.276   0.367  1.00  0.00     0.169 HD
HETATM   11  O   UNL     1      42.462 -12.781   1.744  1.00  0.00    -0.266 OA
BRANCH   9  12
HETATM   12  C   UNL     1      41.206 -13.585  -0.849  1.00  0.00     0.035 A 
HETATM   13  C   UNL     1      39.942 -13.217  -1.319  1.00  0.00     0.039 A 
HETATM   14  C   UNL     1      39.856 -12.473  -2.487  1.00  0.00    -0.024 A 
HETATM   15  C   UNL     1      40.987 -12.109  -3.198  1.00  0.00    -0.026 A 
HETATM   16  C   UNL     1      38.650 -11.964  -3.185  1.00  0.00     0.207 C 
HETATM   17  C   UNL     1      40.583 -11.351  -4.408  1.00  0.00     0.207 C 
HETATM   18  C   UNL     1      42.249 -12.469  -2.762  1.00  0.00     0.012 A 
HETATM   19  O   UNL     1      39.165 -11.115  -4.239  1.00  0.00    -0.382 OA
HETATM   20  C   UNL     1      42.353 -13.204  -1.576  1.00  0.00     0.030 A 
ENDBRANCH   9  12
ENDBRANCH   7   8
BRANCH   5  21
HETATM   21  C   UNL     1      43.612 -18.000   3.769  1.00  0.00     0.013 A 
HETATM   22  C   UNL     1      43.845 -19.023   2.832  1.00  0.00     0.052 A 
HETATM   23  C   UNL     1      44.580 -20.160   3.184  1.00  0.00     0.069 A 
HETATM   24  C   UNL     1      45.092 -20.272   4.478  1.00  0.00     0.037 A 
HETATM   25  C   UNL     1      44.859 -19.273   5.421  1.00  0.00     0.004 A 
HETATM   26  C   UNL     1      44.117 -18.146   5.068  1.00  0.00     0.015 A 
BRANCH  23  27
HETATM   27  O   UNL     1      44.868 -21.217   2.365  1.00  0.00    -0.356 OA
HETATM   28  C   UNL     1      43.778 -21.819   1.677  1.00  0.00     0.210 C 
ENDBRANCH  23  27
ENDBRANCH   5  21
TORSDOF 4
ENDMDL
