MODEL 1
REMARK VINA RESULT:      -8.3      0.000      0.000
REMARK  5 active torsions:
REMARK  status: ('A' for Active; 'I' for Inactive)
REMARK    1  A    between atoms: O_2  and  C_3 
REMARK    2  A    between atoms: C_5  and  C_6 
REMARK    3  A    between atoms: C_12  and  C_13 
REMARK    4  A    between atoms: C_15  and  O_16 
REMARK    5  A    between atoms: C_18  and  O_19 
ROOT
HETATM    1  C   UNL     1      43.062 -16.752   5.107  1.00  0.00     0.098 A 
HETATM    2  N   UNL     1      43.737 -16.089   6.082  1.00  0.00    -0.173 NA
HETATM    3  N   UNL     1      42.930 -15.067   6.454  1.00  0.00    -0.272 N 
HETATM    4  H   UNL     1      43.231 -14.442   7.196  1.00  0.00     0.189 HD
HETATM    5  C   UNL     1      41.796 -15.056   5.741  1.00  0.00     0.128 A 
HETATM    6  C   UNL     1      41.845 -16.092   4.852  1.00  0.00     0.034 A 
HETATM    7  C   UNL     1      40.601 -16.114   4.049  1.00  0.00     0.156 A 
HETATM    8  N   UNL     1      39.893 -14.965   4.645  1.00  0.00    -0.343 N 
HETATM    9  C   UNL     1      40.600 -14.311   5.646  1.00  0.00     0.271 A 
HETATM   10  O   UNL     1      40.261 -13.324   6.270  1.00  0.00    -0.266 OA
HETATM   11  H   UNL     1      38.997 -14.625   4.327  1.00  0.00     0.163 HD
ENDROOT
BRANCH   7  12
HETATM   12  C   UNL     1      40.939 -15.884   2.596  1.00  0.00    -0.028 A 
HETATM   13  C   UNL     1      41.232 -14.601   2.080  1.00  0.00     0.049 A 
HETATM   14  C   UNL     1      41.501 -14.417   0.722  1.00  0.00     0.101 A 
HETATM   15  C   UNL     1      41.475 -15.528  -0.126  1.00  0.00     0.099 A 
HETATM   16  C   UNL     1      41.191 -16.799   0.352  1.00  0.00     0.040 A 
HETATM   17  C   UNL     1      40.920 -16.975   1.709  1.00  0.00     0.012 A 
BRANCH  14  18
HETATM   18  O   UNL     1      41.789 -13.226   0.106  1.00  0.00    -0.353 OA
HETATM   19  C   UNL     1      41.954 -12.093   0.952  1.00  0.00     0.210 C 
ENDBRANCH  14  18
BRANCH  15  20
HETATM   20  O   UNL     1      41.726 -15.381  -1.463  1.00  0.00    -0.358 OA
HETATM   21  H   UNL     1      41.656 -16.283  -1.831  1.00  0.00     0.218 HD
ENDBRANCH  15  20
ENDBRANCH   7  12
BRANCH   1  22
HETATM   22  C   UNL     1      43.621 -17.967   4.502  1.00  0.00    -0.002 A 
HETATM   23  C   UNL     1      43.960 -19.064   5.316  1.00  0.00     0.050 A 
HETATM   24  C   UNL     1      44.475 -20.239   4.763  1.00  0.00     0.069 A 
HETATM   25  C   UNL     1      44.669 -20.316   3.383  1.00  0.00     0.037 A 
HETATM   26  C   UNL     1      44.332 -19.243   2.561  1.00  0.00     0.004 A 
HETATM   27  C   UNL     1      43.802 -18.078   3.117  1.00  0.00     0.014 A 
BRANCH  24  28
HETATM   28  O   UNL     1      44.826 -21.367   5.453  1.00  0.00    -0.356 OA
HETATM   29  C   UNL     1      44.823 -22.589   4.723  1.00  0.00     0.210 C 
ENDBRANCH  24  28
ENDBRANCH   1  22
TORSDOF 5
ENDMDL
MODEL 2
REMARK VINA RESULT:      -8.2      3.052      5.527
REMARK  5 active torsions:
REMARK  status: ('A' for Active; 'I' for Inactive)
REMARK    1  A    between atoms: O_2  and  C_3 
REMARK    2  A    between atoms: C_5  and  C_6 
REMARK    3  A    between atoms: C_12  and  C_13 
REMARK    4  A    between atoms: C_15  and  O_16 
REMARK    5  A    between atoms: C_18  and  O_19 
ROOT
HETATM    1  C   UNL     1      44.181 -19.459   5.506  1.00  0.00     0.098 A 
HETATM    2  N   UNL     1      44.234 -20.713   6.027  1.00  0.00    -0.173 NA
HETATM    3  N   UNL     1      44.395 -21.542   4.969  1.00  0.00    -0.272 N 
HETATM    4  H   UNL     1      44.480 -22.541   5.130  1.00  0.00     0.189 HD
HETATM    5  C   UNL     1      44.426 -20.861   3.815  1.00  0.00     0.128 A 
HETATM    6  C   UNL     1      44.266 -19.535   4.103  1.00  0.00     0.034 A 
HETATM    7  C   UNL     1      44.301 -18.750   2.848  1.00  0.00     0.156 A 
HETATM    8  N   UNL     1      44.514 -19.836   1.874  1.00  0.00    -0.343 N 
HETATM    9  C   UNL     1      44.575 -21.106   2.433  1.00  0.00     0.271 A 
HETATM   10  O   UNL     1      44.708 -22.167   1.853  1.00  0.00    -0.266 OA
HETATM   11  H   UNL     1      44.554 -19.700   0.874  1.00  0.00     0.163 HD
ENDROOT
BRANCH   7  12
HETATM   12  C   UNL     1      42.972 -18.061   2.652  1.00  0.00    -0.028 A 
HETATM   13  C   UNL     1      42.453 -17.134   3.584  1.00  0.00     0.049 A 
HETATM   14  C   UNL     1      41.202 -16.545   3.392  1.00  0.00     0.101 A 
HETATM   15  C   UNL     1      40.464 -16.888   2.255  1.00  0.00     0.099 A 
HETATM   16  C   UNL     1      40.947 -17.794   1.322  1.00  0.00     0.040 A 
HETATM   17  C   UNL     1      42.196 -18.382   1.523  1.00  0.00     0.012 A 
BRANCH  14  18
HETATM   18  O   UNL     1      40.592 -15.644   4.226  1.00  0.00    -0.353 OA
HETATM   19  C   UNL     1      40.854 -15.785   5.618  1.00  0.00     0.210 C 
ENDBRANCH  14  18
BRANCH  15  20
HETATM   20  O   UNL     1      39.231 -16.335   2.040  1.00  0.00    -0.358 OA
HETATM   21  H   UNL     1      38.661 -17.086   1.784  1.00  0.00     0.218 HD
ENDBRANCH  15  20
ENDBRANCH   7  12
BRANCH   1  22
HETATM   22  C   UNL     1      44.066 -18.288   6.382  1.00  0.00    -0.002 A 
HETATM   23  C   UNL     1      44.616 -17.055   5.982  1.00  0.00     0.050 A 
HETATM   24  C   UNL     1      44.502 -15.920   6.789  1.00  0.00     0.069 A 
HETATM   25  C   UNL     1      43.846 -16.018   8.016  1.00  0.00     0.037 A 
HETATM   26  C   UNL     1      43.289 -17.228   8.426  1.00  0.00     0.004 A 
HETATM   27  C   UNL     1      43.390 -18.355   7.608  1.00  0.00     0.014 A 
BRANCH  24  28
HETATM   28  O   UNL     1      44.984 -14.674   6.497  1.00  0.00    -0.356 OA
HETATM   29  C   UNL     1      44.854 -13.685   7.512  1.00  0.00     0.210 C 
ENDBRANCH  24  28
ENDBRANCH   1  22
TORSDOF 5
ENDMDL
MODEL 3
REMARK VINA RESULT:      -8.1      1.784      6.299
REMARK  5 active torsions:
REMARK  status: ('A' for Active; 'I' for Inactive)
REMARK    1  A    between atoms: O_2  and  C_3 
REMARK    2  A    between atoms: C_5  and  C_6 
REMARK    3  A    between atoms: C_12  and  C_13 
REMARK    4  A    between atoms: C_15  and  O_16 
REMARK    5  A    between atoms: C_18  and  O_19 
ROOT
HETATM    1  C   UNL     1      41.787 -16.274   4.949  1.00  0.00     0.098 A 
HETATM    2  N   UNL     1      40.836 -16.126   5.908  1.00  0.00    -0.173 NA
HETATM    3  N   UNL     1      41.380 -16.627   7.042  1.00  0.00    -0.272 N 
HETATM    4  H   UNL     1      40.843 -16.601   7.904  1.00  0.00     0.189 HD
HETATM    5  C   UNL     1      42.617 -17.095   6.825  1.00  0.00     0.128 A 
HETATM    6  C   UNL     1      42.909 -16.919   5.502  1.00  0.00     0.034 A 
HETATM    7  C   UNL     1      44.274 -17.422   5.227  1.00  0.00     0.156 A 
HETATM    8  N   UNL     1      44.659 -17.869   6.579  1.00  0.00    -0.343 N 
HETATM    9  C   UNL     1      43.673 -17.697   7.542  1.00  0.00     0.271 A 
HETATM   10  O   UNL     1      43.721 -18.010   8.717  1.00  0.00    -0.266 OA
HETATM   11  H   UNL     1      45.534 -18.322   6.798  1.00  0.00     0.163 HD
ENDROOT
BRANCH   7  12
HETATM   12  C   UNL     1      44.198 -18.568   4.248  1.00  0.00    -0.028 A 
HETATM   13  C   UNL     1      44.489 -19.901   4.617  1.00  0.00     0.049 A 
HETATM   14  C   UNL     1      44.448 -20.933   3.677  1.00  0.00     0.101 A 
HETATM   15  C   UNL     1      44.113 -20.625   2.355  1.00  0.00     0.099 A 
HETATM   16  C   UNL     1      43.822 -19.327   1.963  1.00  0.00     0.040 A 
HETATM   17  C   UNL     1      43.868 -18.301   2.907  1.00  0.00     0.012 A 
BRANCH  14  18
HETATM   18  O   UNL     1      44.717 -22.256   3.913  1.00  0.00    -0.353 OA
HETATM   19  C   UNL     1      45.180 -22.591   5.217  1.00  0.00     0.210 C 
ENDBRANCH  14  18
BRANCH  15  20
HETATM   20  O   UNL     1      44.071 -21.611   1.407  1.00  0.00    -0.358 OA
HETATM   21  H   UNL     1      44.568 -21.250   0.648  1.00  0.00     0.218 HD
ENDBRANCH  15  20
ENDBRANCH   7  12
BRANCH   1  22
HETATM   22  C   UNL     1      41.559 -15.782   3.585  1.00  0.00    -0.002 A 
HETATM   23  C   UNL     1      42.146 -14.571   3.169  1.00  0.00     0.050 A 
HETATM   24  C   UNL     1      41.960 -14.092   1.870  1.00  0.00     0.069 A 
HETATM   25  C   UNL     1      41.169 -14.818   0.980  1.00  0.00     0.037 A 
HETATM   26  C   UNL     1      40.587 -16.021   1.372  1.00  0.00     0.004 A 
HETATM   27  C   UNL     1      40.789 -16.505   2.666  1.00  0.00     0.014 A 
BRANCH  24  28
HETATM   28  O   UNL     1      42.490 -12.940   1.354  1.00  0.00    -0.356 OA
HETATM   29  C   UNL     1      41.783 -12.341   0.274  1.00  0.00     0.210 C 
ENDBRANCH  24  28
ENDBRANCH   1  22
TORSDOF 5
ENDMDL
MODEL 4
REMARK VINA RESULT:      -7.8      2.589      5.689
REMARK  5 active torsions:
REMARK  status: ('A' for Active; 'I' for Inactive)
REMARK    1  A    between atoms: O_2  and  C_3 
REMARK    2  A    between atoms: C_5  and  C_6 
REMARK    3  A    between atoms: C_12  and  C_13 
REMARK    4  A    between atoms: C_15  and  O_16 
REMARK    5  A    between atoms: C_18  and  O_19 
ROOT
HETATM    1  C   UNL     1      42.684 -14.464   3.554  1.00  0.00     0.098 A 
HETATM    2  N   UNL     1      42.958 -13.320   2.875  1.00  0.00    -0.173 NA
HETATM    3  N   UNL     1      42.290 -13.423   1.701  1.00  0.00    -0.272 N 
HETATM    4  H   UNL     1      42.338 -12.658   1.035  1.00  0.00     0.189 HD
HETATM    5  C   UNL     1      41.630 -14.585   1.615  1.00  0.00     0.128 A 
HETATM    6  C   UNL     1      41.873 -15.294   2.757  1.00  0.00     0.034 A 
HETATM    7  C   UNL     1      41.152 -16.586   2.699  1.00  0.00     0.156 A 
HETATM    8  N   UNL     1      40.493 -16.452   1.387  1.00  0.00    -0.343 N 
HETATM    9  C   UNL     1      40.782 -15.269   0.718  1.00  0.00     0.271 A 
HETATM   10  O   UNL     1      40.399 -14.928  -0.385  1.00  0.00    -0.266 OA
HETATM   11  H   UNL     1      39.926 -17.171   0.961  1.00  0.00     0.163 HD
ENDROOT
BRANCH   7  12
HETATM   12  C   UNL     1      42.150 -17.718   2.722  1.00  0.00    -0.028 A 
HETATM   13  C   UNL     1      42.638 -18.275   3.926  1.00  0.00     0.049 A 
HETATM   14  C   UNL     1      43.591 -19.295   3.912  1.00  0.00     0.101 A 
HETATM   15  C   UNL     1      44.062 -19.760   2.680  1.00  0.00     0.099 A 
HETATM   16  C   UNL     1      43.602 -19.233   1.482  1.00  0.00     0.040 A 
HETATM   17  C   UNL     1      42.652 -18.212   1.504  1.00  0.00     0.012 A 
BRANCH  14  18
HETATM   18  O   UNL     1      44.144 -19.905   5.009  1.00  0.00    -0.353 OA
HETATM   19  C   UNL     1      44.770 -19.055   5.964  1.00  0.00     0.210 C 
ENDBRANCH  14  18
BRANCH  15  20
HETATM   20  O   UNL     1      45.002 -20.752   2.631  1.00  0.00    -0.358 OA
HETATM   21  H   UNL     1      44.745 -21.304   1.867  1.00  0.00     0.218 HD
ENDBRANCH  15  20
ENDBRANCH   7  12
BRANCH   1  22
HETATM   22  C   UNL     1      43.204 -14.674   4.910  1.00  0.00    -0.002 A 
HETATM   23  C   UNL     1      44.266 -13.880   5.385  1.00  0.00     0.050 A 
HETATM   24  C   UNL     1      44.766 -14.047   6.679  1.00  0.00     0.069 A 
HETATM   25  C   UNL     1      44.212 -15.026   7.504  1.00  0.00     0.037 A 
HETATM   26  C   UNL     1      43.156 -15.815   7.054  1.00  0.00     0.004 A 
HETATM   27  C   UNL     1      42.649 -15.633   5.766  1.00  0.00     0.014 A 
BRANCH  24  28
HETATM   28  O   UNL     1      45.781 -13.328   7.247  1.00  0.00    -0.356 OA
HETATM   29  C   UNL     1      45.475 -12.635   8.453  1.00  0.00     0.210 C 
ENDBRANCH  24  28
ENDBRANCH   1  22
TORSDOF 5
ENDMDL
MODEL 5
REMARK VINA RESULT:      -7.8      2.480      5.046
REMARK  5 active torsions:
REMARK  status: ('A' for Active; 'I' for Inactive)
REMARK    1  A    between atoms: O_2  and  C_3 
REMARK    2  A    between atoms: C_5  and  C_6 
REMARK    3  A    between atoms: C_12  and  C_13 
REMARK    4  A    between atoms: C_15  and  O_16 
REMARK    5  A    between atoms: C_18  and  O_19 
ROOT
HETATM    1  C   UNL     1      43.650 -17.270   5.295  1.00  0.00     0.098 A 
HETATM    2  N   UNL     1      43.609 -18.297   6.183  1.00  0.00    -0.173 NA
HETATM    3  N   UNL     1      43.760 -19.424   5.447  1.00  0.00    -0.272 N 
HETATM    4  H   UNL     1      43.780 -20.324   5.916  1.00  0.00     0.189 HD
HETATM    5  C   UNL     1      43.873 -19.143   4.142  1.00  0.00     0.128 A 
HETATM    6  C   UNL     1      43.780 -17.788   3.992  1.00  0.00     0.034 A 
HETATM    7  C   UNL     1      43.907 -17.440   2.558  1.00  0.00     0.156 A 
HETATM    8  N   UNL     1      44.091 -18.786   1.985  1.00  0.00    -0.343 N 
HETATM    9  C   UNL     1      44.056 -19.817   2.915  1.00  0.00     0.271 A 
HETATM   10  O   UNL     1      44.148 -21.011   2.704  1.00  0.00    -0.266 OA
HETATM   11  H   UNL     1      44.175 -18.974   0.996  1.00  0.00     0.163 HD
ENDROOT
BRANCH   7  12
HETATM   12  C   UNL     1      42.629 -16.790   2.086  1.00  0.00    -0.028 A 
HETATM   13  C   UNL     1      42.619 -15.577   1.359  1.00  0.00     0.049 A 
HETATM   14  C   UNL     1      41.418 -14.981   0.972  1.00  0.00     0.101 A 
HETATM   15  C   UNL     1      40.215 -15.605   1.317  1.00  0.00     0.099 A 
HETATM   16  C   UNL     1      40.193 -16.795   2.029  1.00  0.00     0.040 A 
HETATM   17  C   UNL     1      41.397 -17.384   2.415  1.00  0.00     0.012 A 
BRANCH  14  18
HETATM   18  O   UNL     1      41.281 -13.808   0.276  1.00  0.00    -0.353 OA
HETATM   19  C   UNL     1      41.632 -13.839  -1.104  1.00  0.00     0.210 C 
ENDBRANCH  14  18
BRANCH  15  20
HETATM   20  O   UNL     1      39.019 -15.044   0.959  1.00  0.00    -0.358 OA
HETATM   21  H   UNL     1      38.530 -15.761   0.512  1.00  0.00     0.218 HD
ENDBRANCH  15  20
ENDBRANCH   7  12
BRANCH   1  22
HETATM   22  C   UNL     1      43.572 -15.879   5.753  1.00  0.00    -0.002 A 
HETATM   23  C   UNL     1      44.404 -15.436   6.799  1.00  0.00     0.050 A 
HETATM   24  C   UNL     1      44.363 -14.111   7.240  1.00  0.00     0.069 A 
HETATM   25  C   UNL     1      43.471 -13.220   6.643  1.00  0.00     0.037 A 
HETATM   26  C   UNL     1      42.646 -13.637   5.602  1.00  0.00     0.004 A 
HETATM   27  C   UNL     1      42.702 -14.958   5.153  1.00  0.00     0.014 A 
BRANCH  24  28
HETATM   28  O   UNL     1      45.131 -13.571   8.235  1.00  0.00    -0.356 OA
HETATM   29  C   UNL     1      44.700 -12.324   8.768  1.00  0.00     0.210 C 
ENDBRANCH  24  28
ENDBRANCH   1  22
TORSDOF 5
ENDMDL
MODEL 6
REMARK VINA RESULT:      -7.7      2.236      5.526
REMARK  5 active torsions:
REMARK  status: ('A' for Active; 'I' for Inactive)
REMARK    1  A    between atoms: O_2  and  C_3 
REMARK    2  A    between atoms: C_5  and  C_6 
REMARK    3  A    between atoms: C_12  and  C_13 
REMARK    4  A    between atoms: C_15  and  O_16 
REMARK    5  A    between atoms: C_18  and  O_19 
ROOT
HETATM    1  C   UNL     1      43.631 -17.425   6.639  1.00  0.00     0.098 A 
HETATM    2  N   UNL     1      43.164 -18.053   7.749  1.00  0.00    -0.173 NA
HETATM    3  N   UNL     1      43.376 -19.374   7.538  1.00  0.00    -0.272 N 
HETATM    4  H   UNL     1      43.117 -20.040   8.260  1.00  0.00     0.189 HD
HETATM    5  C   UNL     1      43.936 -19.593   6.341  1.00  0.00     0.128 A 
HETATM    6  C   UNL     1      44.091 -18.386   5.720  1.00  0.00     0.034 A 
HETATM    7  C   UNL     1      44.714 -18.591   4.392  1.00  0.00     0.156 A 
HETATM    8  N   UNL     1      44.875 -20.056   4.409  1.00  0.00    -0.343 N 
HETATM    9  C   UNL     1      44.399 -20.673   5.559  1.00  0.00     0.271 A 
HETATM   10  O   UNL     1      44.381 -21.863   5.809  1.00  0.00    -0.266 OA
HETATM   11  H   UNL     1      45.240 -20.595   3.637  1.00  0.00     0.163 HD
ENDROOT
BRANCH   7  12
HETATM   12  C   UNL     1      43.759 -18.135   3.316  1.00  0.00    -0.028 A 
HETATM   13  C   UNL     1      42.453 -17.677   3.604  1.00  0.00     0.049 A 
HETATM   14  C   UNL     1      41.581 -17.300   2.582  1.00  0.00     0.101 A 
HETATM   15  C   UNL     1      42.020 -17.384   1.257  1.00  0.00     0.099 A 
HETATM   16  C   UNL     1      43.296 -17.830   0.943  1.00  0.00     0.040 A 
HETATM   17  C   UNL     1      44.161 -18.207   1.969  1.00  0.00     0.012 A 
BRANCH  14  18
HETATM   18  O   UNL     1      40.294 -16.851   2.736  1.00  0.00    -0.353 OA
HETATM   19  C   UNL     1      40.131 -15.461   2.997  1.00  0.00     0.210 C 
ENDBRANCH  14  18
BRANCH  15  20
HETATM   20  O   UNL     1      41.188 -17.031   0.230  1.00  0.00    -0.358 OA
HETATM   21  H   UNL     1      40.631 -16.315   0.594  1.00  0.00     0.218 HD
ENDBRANCH  15  20
ENDBRANCH   7  12
BRANCH   1  22
HETATM   22  C   UNL     1      43.612 -15.961   6.544  1.00  0.00    -0.002 A 
HETATM   23  C   UNL     1      42.508 -15.309   5.962  1.00  0.00     0.050 A 
HETATM   24  C   UNL     1      42.457 -13.916   5.877  1.00  0.00     0.069 A 
HETATM   25  C   UNL     1      43.527 -13.163   6.363  1.00  0.00     0.037 A 
HETATM   26  C   UNL     1      44.624 -13.789   6.948  1.00  0.00     0.004 A 
HETATM   27  C   UNL     1      44.662 -15.182   7.046  1.00  0.00     0.014 A 
BRANCH  24  28
HETATM   28  O   UNL     1      41.434 -13.179   5.346  1.00  0.00    -0.356 OA
HETATM   29  C   UNL     1      41.768 -12.303   4.275  1.00  0.00     0.210 C 
ENDBRANCH  24  28
ENDBRANCH   1  22
TORSDOF 5
ENDMDL
MODEL 7
REMARK VINA RESULT:      -7.7      2.218      6.296
REMARK  5 active torsions:
REMARK  status: ('A' for Active; 'I' for Inactive)
REMARK    1  A    between atoms: O_2  and  C_3 
REMARK    2  A    between atoms: C_5  and  C_6 
REMARK    3  A    between atoms: C_12  and  C_13 
REMARK    4  A    between atoms: C_15  and  O_16 
REMARK    5  A    between atoms: C_18  and  O_19 
ROOT
HETATM    1  C   UNL     1      42.899 -18.082   2.483  1.00  0.00     0.098 A 
HETATM    2  N   UNL     1      43.717 -18.753   1.632  1.00  0.00    -0.173 NA
HETATM    3  N   UNL     1      44.382 -19.651   2.397  1.00  0.00    -0.272 N 
HETATM    4  H   UNL     1      45.044 -20.284   1.957  1.00  0.00     0.189 HD
HETATM    5  C   UNL     1      44.027 -19.554   3.684  1.00  0.00     0.128 A 
HETATM    6  C   UNL     1      43.107 -18.551   3.794  1.00  0.00     0.034 A 
HETATM    7  C   UNL     1      42.686 -18.419   5.208  1.00  0.00     0.156 A 
HETATM    8  N   UNL     1      43.495 -19.491   5.816  1.00  0.00    -0.343 N 
HETATM    9  C   UNL     1      44.315 -20.169   4.922  1.00  0.00     0.271 A 
HETATM   10  O   UNL     1      45.099 -21.065   5.168  1.00  0.00    -0.266 OA
HETATM   11  H   UNL     1      43.516 -19.694   6.805  1.00  0.00     0.163 HD
ENDROOT
BRANCH   7  12
HETATM   12  C   UNL     1      43.074 -17.053   5.720  1.00  0.00    -0.028 A 
HETATM   13  C   UNL     1      42.356 -15.884   5.381  1.00  0.00     0.049 A 
HETATM   14  C   UNL     1      42.764 -14.630   5.840  1.00  0.00     0.101 A 
HETATM   15  C   UNL     1      43.905 -14.547   6.645  1.00  0.00     0.099 A 
HETATM   16  C   UNL     1      44.630 -15.677   6.994  1.00  0.00     0.040 A 
HETATM   17  C   UNL     1      44.217 -16.925   6.530  1.00  0.00     0.012 A 
BRANCH  14  18
HETATM   18  O   UNL     1      42.158 -13.430   5.572  1.00  0.00    -0.353 OA
HETATM   19  C   UNL     1      41.451 -13.333   4.340  1.00  0.00     0.210 C 
ENDBRANCH  14  18
BRANCH  15  20
HETATM   20  O   UNL     1      44.337 -13.334   7.105  1.00  0.00    -0.358 OA
HETATM   21  H   UNL     1      44.870 -13.541   7.897  1.00  0.00     0.218 HD
ENDBRANCH  15  20
ENDBRANCH   7  12
BRANCH   1  22
HETATM   22  C   UNL     1      41.977 -17.056   1.984  1.00  0.00    -0.002 A 
HETATM   23  C   UNL     1      42.401 -16.156   0.986  1.00  0.00     0.050 A 
HETATM   24  C   UNL     1      41.535 -15.184   0.480  1.00  0.00     0.069 A 
HETATM   25  C   UNL     1      40.238 -15.095   0.984  1.00  0.00     0.037 A 
HETATM   26  C   UNL     1      39.798 -15.980   1.965  1.00  0.00     0.004 A 
HETATM   27  C   UNL     1      40.661 -16.962   2.456  1.00  0.00     0.014 A 
BRANCH  24  28
HETATM   28  O   UNL     1      41.834 -14.270  -0.494  1.00  0.00    -0.356 OA
HETATM   29  C   UNL     1      40.879 -14.115  -1.538  1.00  0.00     0.210 C 
ENDBRANCH  24  28
ENDBRANCH   1  22
TORSDOF 5
ENDMDL
MODEL 8
REMARK VINA RESULT:      -7.7      2.813      6.007
REMARK  5 active torsions:
REMARK  status: ('A' for Active; 'I' for Inactive)
REMARK    1  A    between atoms: O_2  and  C_3 
REMARK    2  A    between atoms: C_5  and  C_6 
REMARK    3  A    between atoms: C_12  and  C_13 
REMARK    4  A    between atoms: C_15  and  O_16 
REMARK    5  A    between atoms: C_18  and  O_19 
ROOT
HETATM    1  C   UNL     1      42.132 -13.362   1.949  1.00  0.00     0.098 A 
HETATM    2  N   UNL     1      42.587 -12.388   1.118  1.00  0.00    -0.173 NA
HETATM    3  N   UNL     1      42.239 -12.781  -0.131  1.00  0.00    -0.272 N 
HETATM    4  H   UNL     1      42.466 -12.184  -0.920  1.00  0.00     0.189 HD
HETATM    5  C   UNL     1      41.606 -13.961  -0.112  1.00  0.00     0.128 A 
HETATM    6  C   UNL     1      41.539 -14.385   1.185  1.00  0.00     0.034 A 
HETATM    7  C   UNL     1      40.838 -15.688   1.243  1.00  0.00     0.156 A 
HETATM    8  N   UNL     1      40.538 -15.880  -0.187  1.00  0.00    -0.343 N 
HETATM    9  C   UNL     1      41.005 -14.866  -1.014  1.00  0.00     0.271 A 
HETATM   10  O   UNL     1      40.920 -14.798  -2.225  1.00  0.00    -0.266 OA
HETATM   11  H   UNL     1      40.087 -16.701  -0.566  1.00  0.00     0.163 HD
ENDROOT
BRANCH   7  12
HETATM   12  C   UNL     1      41.781 -16.740   1.774  1.00  0.00    -0.028 A 
HETATM   13  C   UNL     1      41.708 -17.226   3.099  1.00  0.00     0.049 A 
HETATM   14  C   UNL     1      42.621 -18.171   3.570  1.00  0.00     0.101 A 
HETATM   15  C   UNL     1      43.618 -18.632   2.706  1.00  0.00     0.099 A 
HETATM   16  C   UNL     1      43.716 -18.174   1.401  1.00  0.00     0.040 A 
HETATM   17  C   UNL     1      42.802 -17.228   0.937  1.00  0.00     0.012 A 
BRANCH  14  18
HETATM   18  O   UNL     1      42.656 -18.708   4.832  1.00  0.00    -0.353 OA
HETATM   19  C   UNL     1      43.053 -17.836   5.885  1.00  0.00     0.210 C 
ENDBRANCH  14  18
BRANCH  15  20
HETATM   20  O   UNL     1      44.534 -19.552   3.138  1.00  0.00    -0.358 OA
HETATM   21  H   UNL     1      44.602 -19.404   4.101  1.00  0.00     0.218 HD
ENDBRANCH  15  20
ENDBRANCH   7  12
BRANCH   1  22
HETATM   22  C   UNL     1      42.287 -13.239   3.403  1.00  0.00    -0.002 A 
HETATM   23  C   UNL     1      43.278 -13.986   4.069  1.00  0.00     0.050 A 
HETATM   24  C   UNL     1      43.458 -13.871   5.449  1.00  0.00     0.069 A 
HETATM   25  C   UNL     1      42.632 -13.015   6.178  1.00  0.00     0.037 A 
HETATM   26  C   UNL     1      41.652 -12.263   5.535  1.00  0.00     0.004 A 
HETATM   27  C   UNL     1      41.486 -12.367   4.153  1.00  0.00     0.014 A 
BRANCH  24  28
HETATM   28  O   UNL     1      44.393 -14.536   6.196  1.00  0.00    -0.356 OA
HETATM   29  C   UNL     1      44.976 -13.815   7.276  1.00  0.00     0.210 C 
ENDBRANCH  24  28
ENDBRANCH   1  22
TORSDOF 5
ENDMDL
MODEL 9
REMARK VINA RESULT:      -7.6      1.367      2.100
REMARK  5 active torsions:
REMARK  status: ('A' for Active; 'I' for Inactive)
REMARK    1  A    between atoms: O_2  and  C_3 
REMARK    2  A    between atoms: C_5  and  C_6 
REMARK    3  A    between atoms: C_12  and  C_13 
REMARK    4  A    between atoms: C_15  and  O_16 
REMARK    5  A    between atoms: C_18  and  O_19 
ROOT
HETATM    1  C   UNL     1      42.592 -16.196   4.525  1.00  0.00     0.098 A 
HETATM    2  N   UNL     1      43.197 -15.927   5.712  1.00  0.00    -0.173 NA
HETATM    3  N   UNL     1      42.378 -15.058   6.351  1.00  0.00    -0.272 N 
HETATM    4  H   UNL     1      42.628 -14.733   7.280  1.00  0.00     0.189 HD
HETATM    5  C   UNL     1      41.304 -14.762   5.607  1.00  0.00     0.128 A 
HETATM    6  C   UNL     1      41.409 -15.439   4.425  1.00  0.00     0.034 A 
HETATM    7  C   UNL     1      40.233 -15.139   3.578  1.00  0.00     0.156 A 
HETATM    8  N   UNL     1      39.496 -14.231   4.476  1.00  0.00    -0.343 N 
HETATM    9  C   UNL     1      40.131 -13.981   5.687  1.00  0.00     0.271 A 
HETATM   10  O   UNL     1      39.758 -13.249   6.583  1.00  0.00    -0.266 OA
HETATM   11  H   UNL     1      38.633 -13.767   4.231  1.00  0.00     0.163 HD
ENDROOT
BRANCH   7  12
HETATM   12  C   UNL     1      40.688 -14.447   2.316  1.00  0.00    -0.028 A 
HETATM   13  C   UNL     1      40.225 -14.824   1.035  1.00  0.00     0.049 A 
HETATM   14  C   UNL     1      40.696 -14.189  -0.116  1.00  0.00     0.101 A 
HETATM   15  C   UNL     1      41.641 -13.168   0.019  1.00  0.00     0.099 A 
HETATM   16  C   UNL     1      42.115 -12.776   1.262  1.00  0.00     0.040 A 
HETATM   17  C   UNL     1      41.641 -13.416   2.407  1.00  0.00     0.012 A 
BRANCH  14  18
HETATM   18  O   UNL     1      40.330 -14.472  -1.407  1.00  0.00    -0.353 OA
HETATM   19  C   UNL     1      40.948 -15.603  -2.012  1.00  0.00     0.210 C 
ENDBRANCH  14  18
BRANCH  15  20
HETATM   20  O   UNL     1      42.130 -12.530  -1.089  1.00  0.00    -0.358 OA
HETATM   21  H   UNL     1      42.181 -11.589  -0.834  1.00  0.00     0.218 HD
ENDBRANCH  15  20
ENDBRANCH   7  12
BRANCH   1  22
HETATM   22  C   UNL     1      43.179 -17.157   3.585  1.00  0.00    -0.002 A 
HETATM   23  C   UNL     1      43.473 -18.466   4.012  1.00  0.00     0.050 A 
HETATM   24  C   UNL     1      44.014 -19.406   3.131  1.00  0.00     0.069 A 
HETATM   25  C   UNL     1      44.280 -19.033   1.813  1.00  0.00     0.037 A 
HETATM   26  C   UNL     1      43.989 -17.744   1.371  1.00  0.00     0.004 A 
HETATM   27  C   UNL     1      43.433 -16.814   2.251  1.00  0.00     0.014 A 
BRANCH  24  28
HETATM   28  O   UNL     1      44.326 -20.704   3.431  1.00  0.00    -0.356 OA
HETATM   29  C   UNL     1      44.369 -21.619   2.341  1.00  0.00     0.210 C 
ENDBRANCH  24  28
ENDBRANCH   1  22
TORSDOF 5
ENDMDL
MODEL 10
REMARK VINA RESULT:      -7.6      2.186      4.627
REMARK  5 active torsions:
REMARK  status: ('A' for Active; 'I' for Inactive)
REMARK    1  A    between atoms: O_2  and  C_3 
REMARK    2  A    between atoms: C_5  and  C_6 
REMARK    3  A    between atoms: C_12  and  C_13 
REMARK    4  A    between atoms: C_15  and  O_16 
REMARK    5  A    between atoms: C_18  and  O_19 
ROOT
HETATM    1  C   UNL     1      41.992 -17.084   2.201  1.00  0.00     0.098 A 
HETATM    2  N   UNL     1      41.372 -17.771   1.207  1.00  0.00    -0.173 NA
HETATM    3  N   UNL     1      41.034 -16.846   0.278  1.00  0.00    -0.272 N 
HETATM    4  H   UNL     1      40.570 -17.145  -0.574  1.00  0.00     0.189 HD
HETATM    5  C   UNL     1      41.400 -15.615   0.659  1.00  0.00     0.128 A 
HETATM    6  C   UNL     1      41.988 -15.711   1.889  1.00  0.00     0.034 A 
HETATM    7  C   UNL     1      42.412 -14.366   2.340  1.00  0.00     0.156 A 
HETATM    8  N   UNL     1      41.981 -13.561   1.182  1.00  0.00    -0.343 N 
HETATM    9  C   UNL     1      41.359 -14.289   0.176  1.00  0.00     0.271 A 
HETATM   10  O   UNL     1      40.885 -13.866  -0.861  1.00  0.00    -0.266 OA
HETATM   11  H   UNL     1      42.064 -12.556   1.128  1.00  0.00     0.163 HD
ENDROOT
BRANCH   7  12
HETATM   12  C   UNL     1      41.662 -14.001   3.598  1.00  0.00    -0.028 A 
HETATM   13  C   UNL     1      42.157 -13.061   4.530  1.00  0.00     0.049 A 
HETATM   14  C   UNL     1      41.457 -12.775   5.704  1.00  0.00     0.101 A 
HETATM   15  C   UNL     1      40.251 -13.438   5.946  1.00  0.00     0.099 A 
HETATM   16  C   UNL     1      39.739 -14.366   5.051  1.00  0.00     0.040 A 
HETATM   17  C   UNL     1      40.445 -14.648   3.881  1.00  0.00     0.012 A 
BRANCH  14  18
HETATM   18  O   UNL     1      41.839 -11.894   6.683  1.00  0.00    -0.353 OA
HETATM   19  C   UNL     1      41.540 -10.520   6.457  1.00  0.00     0.210 C 
ENDBRANCH  14  18
BRANCH  15  20
HETATM   20  O   UNL     1      39.544 -13.188   7.091  1.00  0.00    -0.358 OA
HETATM   21  H   UNL     1      40.217 -12.932   7.750  1.00  0.00     0.218 HD
ENDBRANCH  15  20
ENDBRANCH   7  12
BRANCH   1  22
HETATM   22  C   UNL     1      42.549 -17.785   3.363  1.00  0.00    -0.002 A 
HETATM   23  C   UNL     1      43.591 -18.716   3.188  1.00  0.00     0.050 A 
HETATM   24  C   UNL     1      44.152 -19.382   4.281  1.00  0.00     0.069 A 
HETATM   25  C   UNL     1      43.659 -19.130   5.561  1.00  0.00     0.037 A 
HETATM   26  C   UNL     1      42.633 -18.207   5.754  1.00  0.00     0.004 A 
HETATM   27  C   UNL     1      42.088 -17.531   4.661  1.00  0.00     0.014 A 
BRANCH  24  28
HETATM   28  O   UNL     1      45.172 -20.292   4.231  1.00  0.00    -0.356 OA
HETATM   29  C   UNL     1      44.938 -21.548   4.860  1.00  0.00     0.210 C 
ENDBRANCH  24  28
ENDBRANCH   1  22
TORSDOF 5
ENDMDL
