MODEL 1
REMARK VINA RESULT:      -8.3      0.000      0.000
REMARK  9 active torsions:
REMARK  status: ('A' for Active; 'I' for Inactive)
REMARK       I    between atoms: C_2  and  N_3 
REMARK    1  A    between atoms: N_3  and  C_4 
REMARK    2  A    between atoms: C_7  and  C_8 
REMARK    3  A    between atoms: C_8  and  N_9 
REMARK    4  A    between atoms: C_11  and  C_12 
REMARK       I    between atoms: C_12  and  N_13 
REMARK    5  A    between atoms: N_13  and  C_14 
REMARK    6  A    between atoms: C_16  and  S_17 
REMARK    7  A    between atoms: C_24  and  N_25 
REMARK    8  A    between atoms: C_28  and  C_29 
REMARK    9  A    between atoms: C_29  and  O_30 
ROOT
HETATM    1  N   UNL     1      42.160 -14.584   0.007  1.00  0.00    -0.052 N 
HETATM    2  H   UNL     1      43.151 -14.837   0.138  1.00  0.00     0.281 HD
HETATM    3  C   UNL     1      41.806 -13.517   1.061  1.00  0.00     0.282 C 
HETATM    4  C   UNL     1      40.541 -12.906   0.480  1.00  0.00     0.072 C 
HETATM    5  C   UNL     1      40.821 -12.853  -1.037  1.00  0.00     0.134 C 
HETATM    6  C   UNL     1      41.936 -13.880  -1.305  1.00  0.00     0.263 C 
ENDROOT
BRANCH   1   7
HETATM    7  C   UNL     1      41.381 -15.883   0.169  1.00  0.00     0.274 C 
BRANCH   7   8
HETATM    8  C   UNL     1      42.093 -16.941   0.962  1.00  0.00    -0.032 A 
HETATM    9  C   UNL     1      43.477 -17.112   0.838  1.00  0.00     0.011 A 
HETATM   10  C   UNL     1      44.160 -18.003   1.673  1.00  0.00     0.030 A 
HETATM   11  C   UNL     1      43.480 -18.730   2.650  1.00  0.00     0.034 A 
HETATM   12  C   UNL     1      42.090 -18.594   2.742  1.00  0.00     0.030 A 
HETATM   13  C   UNL     1      41.401 -17.709   1.907  1.00  0.00     0.011 A 
BRANCH  11  14
HETATM   14  N   UNL     1      44.113 -19.566   3.593  1.00  0.00    -0.328 N 
HETATM   15  C   UNL     1      44.426 -20.906   3.446  1.00  0.00     0.218 C 
HETATM   16  C   UNL     1      45.249 -21.438   4.593  1.00  0.00     0.117 C 
HETATM   17  O   UNL     1      44.135 -21.624   2.496  1.00  0.00    -0.274 OA
HETATM   18  H   UNL     1      44.427 -19.120   4.446  1.00  0.00     0.169 HD
ENDBRANCH  11  14
ENDBRANCH   7   8
ENDBRANCH   1   7
BRANCH   3  19
HETATM   19  C   UNL     1      41.849 -14.111   2.478  1.00  0.00     0.253 C 
HETATM   20  N   UNL     1      43.075 -14.487   2.972  1.00  0.00    -0.325 N 
HETATM   21  H   UNL     1      43.844 -14.662   2.334  1.00  0.00     0.169 HD
HETATM   22  O   UNL     1      40.781 -14.130   3.094  1.00  0.00    -0.271 OA
BRANCH  20  23
HETATM   23  C   UNL     1      43.367 -14.766   4.333  1.00  0.00     0.036 A 
HETATM   24  C   UNL     1      43.000 -15.957   4.976  1.00  0.00     0.048 A 
HETATM   25  C   UNL     1      43.283 -16.170   6.332  1.00  0.00     0.002 A 
HETATM   26  C   UNL     1      43.927 -15.158   7.050  1.00  0.00     0.018 A 
HETATM   27  C   UNL     1      44.289 -13.965   6.426  1.00  0.00     0.004 A 
HETATM   28  C   UNL     1      44.007 -13.768   5.074  1.00  0.00     0.029 A 
BRANCH  25  29
HETATM   29  S   UNL     1      42.812 -17.642   7.234  1.00  0.00    -0.134 SA
HETATM   30  C   UNL     1      44.374 -18.553   7.385  1.00  0.00     0.095 C 
ENDBRANCH  25  29
ENDBRANCH  20  23
ENDBRANCH   3  19
BRANCH   5  31
HETATM   31  N   UNL     1      39.677 -13.134  -1.876  1.00  0.00    -0.276 N 
HETATM   32  N   UNL     1      38.454 -12.768  -1.468  1.00  0.00     0.005 NA
HETATM   33  N   UNL     1      37.574 -13.402  -2.229  1.00  0.00    -0.152 NA
HETATM   34  C   UNL     1      38.261 -14.169  -3.142  1.00  0.00     0.166 A 
HETATM   35  C   UNL     1      39.616 -13.976  -2.941  1.00  0.00     0.147 A 
BRANCH  34  36
HETATM   36  C   UNL     1      37.641 -15.073  -4.099  1.00  0.00     0.314 C 
HETATM   37  O   UNL     1      38.274 -15.931  -4.703  1.00  0.00    -0.257 OA
BRANCH  36  38
HETATM   38  O   UNL     1      36.293 -14.890  -4.194  1.00  0.00    -0.321 OA
HETATM   39  C   UNL     1      35.892 -14.047  -5.275  1.00  0.00     0.213 C 
ENDBRANCH  36  38
ENDBRANCH  34  36
ENDBRANCH   5  31
TORSDOF 9
ENDMDL
MODEL 2
REMARK VINA RESULT:      -8.1      1.931      2.498
REMARK  9 active torsions:
REMARK  status: ('A' for Active; 'I' for Inactive)
REMARK       I    between atoms: C_2  and  N_3 
REMARK    1  A    between atoms: N_3  and  C_4 
REMARK    2  A    between atoms: C_7  and  C_8 
REMARK    3  A    between atoms: C_8  and  N_9 
REMARK    4  A    between atoms: C_11  and  C_12 
REMARK       I    between atoms: C_12  and  N_13 
REMARK    5  A    between atoms: N_13  and  C_14 
REMARK    6  A    between atoms: C_16  and  S_17 
REMARK    7  A    between atoms: C_24  and  N_25 
REMARK    8  A    between atoms: C_28  and  C_29 
REMARK    9  A    between atoms: C_29  and  O_30 
ROOT
HETATM    1  N   UNL     1      41.466 -14.611  -0.935  1.00  0.00    -0.052 N 
HETATM    2  H   UNL     1      42.454 -14.852  -0.762  1.00  0.00     0.281 HD
HETATM    3  C   UNL     1      41.258 -13.148  -0.499  1.00  0.00     0.282 C 
HETATM    4  C   UNL     1      39.971 -12.783  -1.220  1.00  0.00     0.072 C 
HETATM    5  C   UNL     1      40.109 -13.476  -2.593  1.00  0.00     0.134 C 
HETATM    6  C   UNL     1      41.150 -14.594  -2.408  1.00  0.00     0.263 C 
ENDROOT
BRANCH   1   7
HETATM    7  C   UNL     1      40.653 -15.612  -0.125  1.00  0.00     0.274 C 
BRANCH   7   8
HETATM    8  C   UNL     1      41.475 -16.561   0.699  1.00  0.00    -0.032 A 
HETATM    9  C   UNL     1      42.843 -16.719   0.447  1.00  0.00     0.011 A 
HETATM   10  C   UNL     1      43.636 -17.498   1.295  1.00  0.00     0.030 A 
HETATM   11  C   UNL     1      43.085 -18.123   2.414  1.00  0.00     0.034 A 
HETATM   12  C   UNL     1      41.708 -18.002   2.640  1.00  0.00     0.030 A 
HETATM   13  C   UNL     1      40.909 -17.229   1.792  1.00  0.00     0.011 A 
BRANCH  11  14
HETATM   14  N   UNL     1      43.837 -18.835   3.369  1.00  0.00    -0.328 N 
HETATM   15  C   UNL     1      44.296 -20.138   3.272  1.00  0.00     0.218 C 
HETATM   16  C   UNL     1      45.210 -20.518   4.410  1.00  0.00     0.117 C 
HETATM   17  O   UNL     1      44.057 -20.930   2.366  1.00  0.00    -0.274 OA
HETATM   18  H   UNL     1      44.126 -18.316   4.190  1.00  0.00     0.169 HD
ENDBRANCH  11  14
ENDBRANCH   7   8
ENDBRANCH   1   7
BRANCH   3  19
HETATM   19  C   UNL     1      41.409 -13.004   1.024  1.00  0.00     0.253 C 
HETATM   20  N   UNL     1      40.261 -13.006   1.779  1.00  0.00    -0.325 N 
HETATM   21  H   UNL     1      39.371 -12.789   1.344  1.00  0.00     0.169 HD
HETATM   22  O   UNL     1      42.563 -12.980   1.457  1.00  0.00    -0.271 OA
BRANCH  20  23
HETATM   23  C   UNL     1      40.198 -13.187   3.186  1.00  0.00     0.036 A 
HETATM   24  C   UNL     1      40.557 -14.380   3.831  1.00  0.00     0.048 A 
HETATM   25  C   UNL     1      40.445 -14.518   5.221  1.00  0.00     0.002 A 
HETATM   26  C   UNL     1      39.947 -13.444   5.964  1.00  0.00     0.018 A 
HETATM   27  C   UNL     1      39.578 -12.255   5.336  1.00  0.00     0.004 A 
HETATM   28  C   UNL     1      39.700 -12.128   3.951  1.00  0.00     0.029 A 
BRANCH  25  29
HETATM   29  S   UNL     1      40.841 -16.018   6.112  1.00  0.00    -0.134 SA
HETATM   30  C   UNL     1      42.622 -16.212   5.827  1.00  0.00     0.095 C 
ENDBRANCH  25  29
ENDBRANCH  20  23
ENDBRANCH   3  19
BRANCH   5  31
HETATM   31  N   UNL     1      38.881 -14.025  -3.122  1.00  0.00    -0.276 N 
HETATM   32  N   UNL     1      38.893 -15.238  -3.694  1.00  0.00     0.005 NA
HETATM   33  N   UNL     1      37.758 -15.373  -4.364  1.00  0.00    -0.152 NA
HETATM   34  C   UNL     1      37.014 -14.229  -4.195  1.00  0.00     0.166 A 
HETATM   35  C   UNL     1      37.716 -13.369  -3.370  1.00  0.00     0.147 A 
BRANCH  34  36
HETATM   36  C   UNL     1      35.738 -13.966  -4.844  1.00  0.00     0.314 C 
HETATM   37  O   UNL     1      35.173 -14.793  -5.550  1.00  0.00    -0.257 OA
BRANCH  36  38
HETATM   38  O   UNL     1      35.233 -12.739  -4.530  1.00  0.00    -0.321 OA
HETATM   39  C   UNL     1      33.806 -12.678  -4.519  1.00  0.00     0.213 C 
ENDBRANCH  36  38
ENDBRANCH  34  36
ENDBRANCH   5  31
TORSDOF 9
ENDMDL
MODEL 3
REMARK VINA RESULT:      -8.0      4.360      8.814
REMARK  9 active torsions:
REMARK  status: ('A' for Active; 'I' for Inactive)
REMARK       I    between atoms: C_2  and  N_3 
REMARK    1  A    between atoms: N_3  and  C_4 
REMARK    2  A    between atoms: C_7  and  C_8 
REMARK    3  A    between atoms: C_8  and  N_9 
REMARK    4  A    between atoms: C_11  and  C_12 
REMARK       I    between atoms: C_12  and  N_13 
REMARK    5  A    between atoms: N_13  and  C_14 
REMARK    6  A    between atoms: C_16  and  S_17 
REMARK    7  A    between atoms: C_24  and  N_25 
REMARK    8  A    between atoms: C_28  and  C_29 
REMARK    9  A    between atoms: C_29  and  O_30 
ROOT
HETATM    1  N   UNL     1      40.178 -13.707   5.056  1.00  0.00    -0.052 N 
HETATM    2  H   UNL     1      39.740 -14.607   4.809  1.00  0.00     0.281 HD
HETATM    3  C   UNL     1      39.756 -12.673   3.994  1.00  0.00     0.282 C 
HETATM    4  C   UNL     1      40.045 -11.358   4.700  1.00  0.00     0.072 C 
HETATM    5  C   UNL     1      39.615 -11.623   6.159  1.00  0.00     0.134 C 
HETATM    6  C   UNL     1      39.619 -13.151   6.339  1.00  0.00     0.263 C 
ENDROOT
BRANCH   1   7
HETATM    7  C   UNL     1      41.677 -13.977   5.084  1.00  0.00     0.274 C 
BRANCH   7   8
HETATM    8  C   UNL     1      42.081 -15.312   4.526  1.00  0.00    -0.032 A 
HETATM    9  C   UNL     1      41.381 -16.471   4.883  1.00  0.00     0.011 A 
HETATM   10  C   UNL     1      41.668 -17.692   4.264  1.00  0.00     0.030 A 
HETATM   11  C   UNL     1      42.647 -17.778   3.273  1.00  0.00     0.034 A 
HETATM   12  C   UNL     1      43.377 -16.629   2.949  1.00  0.00     0.030 A 
HETATM   13  C   UNL     1      43.098 -15.406   3.569  1.00  0.00     0.011 A 
BRANCH  11  14
HETATM   14  N   UNL     1      42.918 -18.947   2.534  1.00  0.00    -0.328 N 
HETATM   15  C   UNL     1      43.861 -19.919   2.821  1.00  0.00     0.218 C 
HETATM   16  C   UNL     1      43.761 -21.113   1.904  1.00  0.00     0.117 C 
HETATM   17  O   UNL     1      44.683 -19.892   3.730  1.00  0.00    -0.274 OA
HETATM   18  H   UNL     1      42.315 -19.125   1.740  1.00  0.00     0.169 HD
ENDBRANCH  11  14
ENDBRANCH   7   8
ENDBRANCH   1   7
BRANCH   3  19
HETATM   19  C   UNL     1      40.366 -13.015   2.625  1.00  0.00     0.253 C 
HETATM   20  N   UNL     1      39.894 -14.134   1.981  1.00  0.00    -0.325 N 
HETATM   21  H   UNL     1      39.419 -14.857   2.510  1.00  0.00     0.169 HD
HETATM   22  O   UNL     1      41.179 -12.206   2.173  1.00  0.00    -0.271 OA
BRANCH  20  23
HETATM   23  C   UNL     1      40.099 -14.446   0.611  1.00  0.00     0.036 A 
HETATM   24  C   UNL     1      39.333 -13.904  -0.431  1.00  0.00     0.048 A 
HETATM   25  C   UNL     1      39.554 -14.271  -1.765  1.00  0.00     0.002 A 
HETATM   26  C   UNL     1      40.549 -15.211  -2.046  1.00  0.00     0.018 A 
HETATM   27  C   UNL     1      41.314 -15.765  -1.019  1.00  0.00     0.004 A 
HETATM   28  C   UNL     1      41.087 -15.387   0.305  1.00  0.00     0.029 A 
BRANCH  25  29
HETATM   29  S   UNL     1      38.594 -13.657  -3.144  1.00  0.00    -0.134 SA
HETATM   30  C   UNL     1      37.490 -15.043  -3.531  1.00  0.00     0.095 C 
ENDBRANCH  25  29
ENDBRANCH  20  23
ENDBRANCH   3  19
BRANCH   5  31
HETATM   31  N   UNL     1      40.456 -11.005   7.161  1.00  0.00    -0.276 N 
HETATM   32  N   UNL     1      41.754 -10.802   6.899  1.00  0.00     0.005 NA
HETATM   33  N   UNL     1      42.355 -10.532   8.048  1.00  0.00    -0.152 NA
HETATM   34  C   UNL     1      41.410 -10.551   9.048  1.00  0.00     0.166 A 
HETATM   35  C   UNL     1      40.179 -10.823   8.479  1.00  0.00     0.147 A 
BRANCH  34  36
HETATM   36  C   UNL     1      41.698 -10.379  10.464  1.00  0.00     0.314 C 
HETATM   37  O   UNL     1      41.058  -9.618  11.181  1.00  0.00    -0.257 OA
BRANCH  36  38
HETATM   38  O   UNL     1      42.704 -11.192  10.896  1.00  0.00    -0.321 OA
HETATM   39  C   UNL     1      43.822 -10.496  11.449  1.00  0.00     0.213 C 
ENDBRANCH  36  38
ENDBRANCH  34  36
ENDBRANCH   5  31
TORSDOF 9
ENDMDL
MODEL 4
REMARK VINA RESULT:      -7.8      3.626      6.488
REMARK  9 active torsions:
REMARK  status: ('A' for Active; 'I' for Inactive)
REMARK       I    between atoms: C_2  and  N_3 
REMARK    1  A    between atoms: N_3  and  C_4 
REMARK    2  A    between atoms: C_7  and  C_8 
REMARK    3  A    between atoms: C_8  and  N_9 
REMARK    4  A    between atoms: C_11  and  C_12 
REMARK       I    between atoms: C_12  and  N_13 
REMARK    5  A    between atoms: N_13  and  C_14 
REMARK    6  A    between atoms: C_16  and  S_17 
REMARK    7  A    between atoms: C_24  and  N_25 
REMARK    8  A    between atoms: C_28  and  C_29 
REMARK    9  A    between atoms: C_29  and  O_30 
ROOT
HETATM    1  N   UNL     1      40.405 -14.543   1.843  1.00  0.00    -0.052 N 
HETATM    2  H   UNL     1      39.598 -14.764   2.446  1.00  0.00     0.281 HD
HETATM    3  C   UNL     1      40.704 -15.789   0.986  1.00  0.00     0.282 C 
HETATM    4  C   UNL     1      41.544 -15.205  -0.138  1.00  0.00     0.072 C 
HETATM    5  C   UNL     1      40.873 -13.846  -0.431  1.00  0.00     0.134 C 
HETATM    6  C   UNL     1      40.067 -13.483   0.828  1.00  0.00     0.263 C 
ENDROOT
BRANCH   1   7
HETATM    7  C   UNL     1      41.535 -14.171   2.794  1.00  0.00     0.274 C 
BRANCH   7   8
HETATM    8  C   UNL     1      41.095 -13.434   4.026  1.00  0.00    -0.032 A 
HETATM    9  C   UNL     1      40.119 -13.978   4.869  1.00  0.00     0.011 A 
HETATM   10  C   UNL     1      39.804 -13.360   6.084  1.00  0.00     0.030 A 
HETATM   11  C   UNL     1      40.463 -12.197   6.485  1.00  0.00     0.034 A 
HETATM   12  C   UNL     1      41.406 -11.628   5.621  1.00  0.00     0.030 A 
HETATM   13  C   UNL     1      41.721 -12.238   4.402  1.00  0.00     0.011 A 
BRANCH  11  14
HETATM   14  N   UNL     1      40.275 -11.577   7.737  1.00  0.00    -0.328 N 
HETATM   15  C   UNL     1      39.450 -10.504   8.024  1.00  0.00     0.218 C 
HETATM   16  C   UNL     1      39.372 -10.211   9.501  1.00  0.00     0.117 C 
HETATM   17  O   UNL     1      38.796  -9.850   7.218  1.00  0.00    -0.274 OA
HETATM   18  H   UNL     1      40.749 -12.004   8.523  1.00  0.00     0.169 HD
ENDBRANCH  11  14
ENDBRANCH   7   8
ENDBRANCH   1   7
BRANCH   3  19
HETATM   19  C   UNL     1      41.205 -16.948   1.862  1.00  0.00     0.253 C 
HETATM   20  N   UNL     1      42.506 -17.358   1.691  1.00  0.00    -0.325 N 
HETATM   21  H   UNL     1      42.996 -17.134   0.832  1.00  0.00     0.169 HD
HETATM   22  O   UNL     1      40.417 -17.369   2.712  1.00  0.00    -0.271 OA
BRANCH  20  23
HETATM   23  C   UNL     1      43.236 -18.183   2.586  1.00  0.00     0.036 A 
HETATM   24  C   UNL     1      43.601 -17.789   3.882  1.00  0.00     0.048 A 
HETATM   25  C   UNL     1      44.351 -18.630   4.715  1.00  0.00     0.002 A 
HETATM   26  C   UNL     1      44.754 -19.875   4.224  1.00  0.00     0.018 A 
HETATM   27  C   UNL     1      44.406 -20.276   2.934  1.00  0.00     0.004 A 
HETATM   28  C   UNL     1      43.654 -19.432   2.117  1.00  0.00     0.029 A 
BRANCH  25  29
HETATM   29  S   UNL     1      44.890 -18.185   6.362  1.00  0.00    -0.134 SA
HETATM   30  C   UNL     1      44.165 -16.540   6.606  1.00  0.00     0.095 C 
ENDBRANCH  25  29
ENDBRANCH  20  23
ENDBRANCH   3  19
BRANCH   5  31
HETATM   31  N   UNL     1      41.787 -12.775  -0.759  1.00  0.00    -0.276 N 
HETATM   32  N   UNL     1      42.486 -12.182   0.218  1.00  0.00     0.005 NA
HETATM   33  N   UNL     1      42.989 -11.060  -0.276  1.00  0.00    -0.152 NA
HETATM   34  C   UNL     1      42.610 -10.958  -1.595  1.00  0.00     0.166 A 
HETATM   35  C   UNL     1      41.863 -12.075  -1.922  1.00  0.00     0.147 A 
BRANCH  34  36
HETATM   36  C   UNL     1      42.902  -9.821  -2.455  1.00  0.00     0.314 C 
HETATM   37  O   UNL     1      43.277  -8.740  -2.017  1.00  0.00    -0.257 OA
BRANCH  36  38
HETATM   38  O   UNL     1      42.764 -10.117  -3.779  1.00  0.00    -0.321 OA
HETATM   39  C   UNL     1      42.357  -9.012  -4.587  1.00  0.00     0.213 C 
ENDBRANCH  36  38
ENDBRANCH  34  36
ENDBRANCH   5  31
TORSDOF 9
ENDMDL
MODEL 5
REMARK VINA RESULT:      -7.7      4.411      5.939
REMARK  9 active torsions:
REMARK  status: ('A' for Active; 'I' for Inactive)
REMARK       I    between atoms: C_2  and  N_3 
REMARK    1  A    between atoms: N_3  and  C_4 
REMARK    2  A    between atoms: C_7  and  C_8 
REMARK    3  A    between atoms: C_8  and  N_9 
REMARK    4  A    between atoms: C_11  and  C_12 
REMARK       I    between atoms: C_12  and  N_13 
REMARK    5  A    between atoms: N_13  and  C_14 
REMARK    6  A    between atoms: C_16  and  S_17 
REMARK    7  A    between atoms: C_24  and  N_25 
REMARK    8  A    between atoms: C_28  and  C_29 
REMARK    9  A    between atoms: C_29  and  O_30 
ROOT
HETATM    1  N   UNL     1      41.960 -12.916   5.567  1.00  0.00    -0.052 N 
HETATM    2  H   UNL     1      42.719 -12.657   6.215  1.00  0.00     0.281 HD
HETATM    3  C   UNL     1      40.934 -11.766   5.562  1.00  0.00     0.282 C 
HETATM    4  C   UNL     1      40.167 -12.033   4.277  1.00  0.00     0.072 C 
HETATM    5  C   UNL     1      41.258 -12.492   3.286  1.00  0.00     0.134 C 
HETATM    6  C   UNL     1      42.443 -12.972   4.141  1.00  0.00     0.263 C 
ENDROOT
BRANCH   1   7
HETATM    7  C   UNL     1      41.402 -14.231   6.097  1.00  0.00     0.274 C 
BRANCH   7   8
HETATM    8  C   UNL     1      42.206 -15.444   5.726  1.00  0.00    -0.032 A 
HETATM    9  C   UNL     1      43.460 -15.670   6.308  1.00  0.00     0.011 A 
HETATM   10  C   UNL     1      44.149 -16.862   6.067  1.00  0.00     0.030 A 
HETATM   11  C   UNL     1      43.599 -17.854   5.253  1.00  0.00     0.034 A 
HETATM   12  C   UNL     1      42.367 -17.608   4.636  1.00  0.00     0.030 A 
HETATM   13  C   UNL     1      41.675 -16.415   4.869  1.00  0.00     0.011 A 
BRANCH  11  14
HETATM   14  N   UNL     1      44.185 -19.119   5.048  1.00  0.00    -0.328 N 
HETATM   15  C   UNL     1      44.153 -20.205   5.906  1.00  0.00     0.218 C 
HETATM   16  C   UNL     1      44.742 -21.449   5.290  1.00  0.00     0.117 C 
HETATM   17  O   UNL     1      43.674 -20.229   7.035  1.00  0.00    -0.274 OA
HETATM   18  H   UNL     1      44.624 -19.269   4.148  1.00  0.00     0.169 HD
ENDBRANCH  11  14
ENDBRANCH   7   8
ENDBRANCH   1   7
BRANCH   3  19
HETATM   19  C   UNL     1      40.231 -11.655   6.924  1.00  0.00     0.253 C 
HETATM   20  N   UNL     1      40.936 -11.088   7.959  1.00  0.00    -0.325 N 
HETATM   21  H   UNL     1      41.949 -11.047   7.915  1.00  0.00     0.169 HD
HETATM   22  O   UNL     1      39.052 -12.012   6.959  1.00  0.00    -0.271 OA
BRANCH  20  23
HETATM   23  C   UNL     1      40.382 -10.626   9.181  1.00  0.00     0.036 A 
HETATM   24  C   UNL     1      40.907 -10.947  10.441  1.00  0.00     0.048 A 
HETATM   25  C   UNL     1      40.302 -10.491  11.620  1.00  0.00     0.002 A 
HETATM   26  C   UNL     1      39.142  -9.718  11.523  1.00  0.00     0.018 A 
HETATM   27  C   UNL     1      38.603  -9.398  10.277  1.00  0.00     0.004 A 
HETATM   28  C   UNL     1      39.219  -9.853   9.110  1.00  0.00     0.029 A 
BRANCH  25  29
HETATM   29  S   UNL     1      40.885 -10.891  13.263  1.00  0.00    -0.134 SA
HETATM   30  C   UNL     1      42.688 -10.928  13.067  1.00  0.00     0.095 C 
ENDBRANCH  25  29
ENDBRANCH  20  23
ENDBRANCH   3  19
BRANCH   5  31
HETATM   31  N   UNL     1      40.849 -13.538   2.375  1.00  0.00    -0.276 N 
HETATM   32  N   UNL     1      39.777 -14.287   2.669  1.00  0.00     0.005 NA
HETATM   33  N   UNL     1      39.801 -15.346   1.873  1.00  0.00    -0.152 NA
HETATM   34  C   UNL     1      40.902 -15.249   1.053  1.00  0.00     0.166 A 
HETATM   35  C   UNL     1      41.563 -14.071   1.349  1.00  0.00     0.147 A 
BRANCH  34  36
HETATM   36  C   UNL     1      41.313 -16.265   0.095  1.00  0.00     0.314 C 
HETATM   37  O   UNL     1      41.269 -16.086  -1.116  1.00  0.00    -0.257 OA
BRANCH  36  38
HETATM   38  O   UNL     1      41.796 -17.388   0.698  1.00  0.00    -0.321 OA
HETATM   39  C   UNL     1      43.191 -17.335   1.003  1.00  0.00     0.213 C 
ENDBRANCH  36  38
ENDBRANCH  34  36
ENDBRANCH   5  31
TORSDOF 9
ENDMDL
MODEL 6
REMARK VINA RESULT:      -7.6      3.309      8.386
REMARK  9 active torsions:
REMARK  status: ('A' for Active; 'I' for Inactive)
REMARK       I    between atoms: C_2  and  N_3 
REMARK    1  A    between atoms: N_3  and  C_4 
REMARK    2  A    between atoms: C_7  and  C_8 
REMARK    3  A    between atoms: C_8  and  N_9 
REMARK    4  A    between atoms: C_11  and  C_12 
REMARK       I    between atoms: C_12  and  N_13 
REMARK    5  A    between atoms: N_13  and  C_14 
REMARK    6  A    between atoms: C_16  and  S_17 
REMARK    7  A    between atoms: C_24  and  N_25 
REMARK    8  A    between atoms: C_28  and  C_29 
REMARK    9  A    between atoms: C_29  and  O_30 
ROOT
HETATM    1  N   UNL     1      40.177 -15.354   1.706  1.00  0.00    -0.052 N 
HETATM    2  H   UNL     1      39.518 -16.081   1.388  1.00  0.00     0.281 HD
HETATM    3  C   UNL     1      39.519 -13.983   1.454  1.00  0.00     0.282 C 
HETATM    4  C   UNL     1      40.329 -13.073   2.363  1.00  0.00     0.072 C 
HETATM    5  C   UNL     1      40.560 -13.927   3.628  1.00  0.00     0.134 C 
HETATM    6  C   UNL     1      40.365 -15.392   3.200  1.00  0.00     0.263 C 
ENDROOT
BRANCH   1   7
HETATM    7  C   UNL     1      41.451 -15.578   0.902  1.00  0.00     0.274 C 
BRANCH   7   8
HETATM    8  C   UNL     1      42.262 -16.765   1.336  1.00  0.00    -0.032 A 
HETATM    9  C   UNL     1      43.603 -16.611   1.707  1.00  0.00     0.011 A 
HETATM   10  C   UNL     1      44.321 -17.688   2.238  1.00  0.00     0.030 A 
HETATM   11  C   UNL     1      43.713 -18.931   2.419  1.00  0.00     0.034 A 
HETATM   12  C   UNL     1      42.386 -19.096   2.005  1.00  0.00     0.030 A 
HETATM   13  C   UNL     1      41.665 -18.025   1.468  1.00  0.00     0.011 A 
BRANCH  11  14
HETATM   14  N   UNL     1      44.338 -20.030   3.042  1.00  0.00    -0.328 N 
HETATM   15  C   UNL     1      44.543 -20.219   4.398  1.00  0.00     0.218 C 
HETATM   16  C   UNL     1      45.094 -21.586   4.717  1.00  0.00     0.117 C 
HETATM   17  O   UNL     1      44.285 -19.420   5.293  1.00  0.00    -0.274 OA
HETATM   18  H   UNL     1      44.612 -20.793   2.435  1.00  0.00     0.169 HD
ENDBRANCH  11  14
ENDBRANCH   7   8
ENDBRANCH   1   7
BRANCH   3  19
HETATM   19  C   UNL     1      39.375 -13.714  -0.052  1.00  0.00     0.253 C 
HETATM   20  N   UNL     1      38.281 -14.246  -0.691  1.00  0.00    -0.325 N 
HETATM   21  H   UNL     1      37.783 -15.025  -0.274  1.00  0.00     0.169 HD
HETATM   22  O   UNL     1      40.218 -12.969  -0.556  1.00  0.00    -0.271 OA
BRANCH  20  23
HETATM   23  C   UNL     1      37.813 -13.872  -1.978  1.00  0.00     0.036 A 
HETATM   24  C   UNL     1      37.482 -12.555  -2.329  1.00  0.00     0.048 A 
HETATM   25  C   UNL     1      36.992 -12.242  -3.605  1.00  0.00     0.002 A 
HETATM   26  C   UNL     1      36.817 -13.277  -4.528  1.00  0.00     0.018 A 
HETATM   27  C   UNL     1      37.134 -14.592  -4.190  1.00  0.00     0.004 A 
HETATM   28  C   UNL     1      37.626 -14.889  -2.918  1.00  0.00     0.029 A 
BRANCH  25  29
HETATM   29  S   UNL     1      36.508 -10.597  -4.116  1.00  0.00    -0.134 SA
HETATM   30  C   UNL     1      35.288 -10.115  -2.864  1.00  0.00     0.095 C 
ENDBRANCH  25  29
ENDBRANCH  20  23
ENDBRANCH   3  19
BRANCH   5  31
HETATM   31  N   UNL     1      41.858 -13.760   4.244  1.00  0.00    -0.276 N 
HETATM   32  N   UNL     1      42.933 -13.549   3.472  1.00  0.00     0.005 NA
HETATM   33  N   UNL     1      44.007 -13.746   4.222  1.00  0.00    -0.152 NA
HETATM   34  C   UNL     1      43.595 -14.071   5.494  1.00  0.00     0.166 A 
HETATM   35  C   UNL     1      42.212 -14.050   5.524  1.00  0.00     0.147 A 
BRANCH  34  36
HETATM   36  C   UNL     1      44.486 -14.438   6.585  1.00  0.00     0.314 C 
HETATM   37  O   UNL     1      45.004 -13.608   7.323  1.00  0.00    -0.257 OA
BRANCH  36  38
HETATM   38  O   UNL     1      44.623 -15.789   6.717  1.00  0.00    -0.321 OA
HETATM   39  C   UNL     1      43.645 -16.396   7.563  1.00  0.00     0.213 C 
ENDBRANCH  36  38
ENDBRANCH  34  36
ENDBRANCH   5  31
TORSDOF 9
ENDMDL
MODEL 7
REMARK VINA RESULT:      -7.6      3.749      8.808
REMARK  9 active torsions:
REMARK  status: ('A' for Active; 'I' for Inactive)
REMARK       I    between atoms: C_2  and  N_3 
REMARK    1  A    between atoms: N_3  and  C_4 
REMARK    2  A    between atoms: C_7  and  C_8 
REMARK    3  A    between atoms: C_8  and  N_9 
REMARK    4  A    between atoms: C_11  and  C_12 
REMARK       I    between atoms: C_12  and  N_13 
REMARK    5  A    between atoms: N_13  and  C_14 
REMARK    6  A    between atoms: C_16  and  S_17 
REMARK    7  A    between atoms: C_24  and  N_25 
REMARK    8  A    between atoms: C_28  and  C_29 
REMARK    9  A    between atoms: C_29  and  O_30 
ROOT
HETATM    1  N   UNL     1      41.340 -14.427   4.280  1.00  0.00    -0.052 N 
HETATM    2  H   UNL     1      40.710 -15.180   3.964  1.00  0.00     0.281 HD
HETATM    3  C   UNL     1      40.607 -13.086   4.079  1.00  0.00     0.282 C 
HETATM    4  C   UNL     1      41.397 -12.155   4.985  1.00  0.00     0.072 C 
HETATM    5  C   UNL     1      41.709 -13.024   6.222  1.00  0.00     0.134 C 
HETATM    6  C   UNL     1      41.576 -14.488   5.766  1.00  0.00     0.263 C 
ENDROOT
BRANCH   1   7
HETATM    7  C   UNL     1      42.599 -14.567   3.434  1.00  0.00     0.274 C 
BRANCH   7   8
HETATM    8  C   UNL     1      42.976 -15.984   3.108  1.00  0.00    -0.032 A 
HETATM    9  C   UNL     1      42.410 -17.051   3.817  1.00  0.00     0.011 A 
HETATM   10  C   UNL     1      42.657 -18.371   3.429  1.00  0.00     0.030 A 
HETATM   11  C   UNL     1      43.460 -18.653   2.323  1.00  0.00     0.034 A 
HETATM   12  C   UNL     1      44.063 -17.588   1.643  1.00  0.00     0.030 A 
HETATM   13  C   UNL     1      43.825 -16.265   2.030  1.00  0.00     0.011 A 
BRANCH  11  14
HETATM   14  N   UNL     1      43.668 -19.949   1.811  1.00  0.00    -0.328 N 
HETATM   15  C   UNL     1      44.360 -20.986   2.412  1.00  0.00     0.218 C 
HETATM   16  C   UNL     1      44.240 -22.283   1.651  1.00  0.00     0.117 C 
HETATM   17  O   UNL     1      44.984 -20.932   3.467  1.00  0.00    -0.274 OA
HETATM   18  H   UNL     1      43.209 -20.163   0.934  1.00  0.00     0.169 HD
ENDBRANCH  11  14
ENDBRANCH   7   8
ENDBRANCH   1   7
BRANCH   3  19
HETATM   19  C   UNL     1      40.404 -12.792   2.584  1.00  0.00     0.253 C 
HETATM   20  N   UNL     1      39.578 -13.633   1.878  1.00  0.00    -0.325 N 
HETATM   21  H   UNL     1      39.378 -14.561   2.235  1.00  0.00     0.169 HD
HETATM   22  O   UNL     1      40.940 -11.769   2.153  1.00  0.00    -0.271 OA
BRANCH  20  23
HETATM   23  C   UNL     1      39.030 -13.367   0.595  1.00  0.00     0.036 A 
HETATM   24  C   UNL     1      39.557 -13.888  -0.596  1.00  0.00     0.048 A 
HETATM   25  C   UNL     1      38.999 -13.568  -1.841  1.00  0.00     0.002 A 
HETATM   26  C   UNL     1      37.907 -12.697  -1.882  1.00  0.00     0.018 A 
HETATM   27  C   UNL     1      37.377 -12.165  -0.707  1.00  0.00     0.004 A 
HETATM   28  C   UNL     1      37.939 -12.495   0.527  1.00  0.00     0.029 A 
BRANCH  25  29
HETATM   29  S   UNL     1      39.637 -14.157  -3.405  1.00  0.00    -0.134 SA
HETATM   30  C   UNL     1      41.413 -14.341  -3.086  1.00  0.00     0.095 C 
ENDBRANCH  25  29
ENDBRANCH  20  23
ENDBRANCH   3  19
BRANCH   5  31
HETATM   31  N   UNL     1      43.015 -12.804   6.804  1.00  0.00    -0.276 N 
HETATM   32  N   UNL     1      43.977 -13.722   6.633  1.00  0.00     0.005 NA
HETATM   33  N   UNL     1      44.941 -13.455   7.501  1.00  0.00    -0.152 NA
HETATM   34  C   UNL     1      44.583 -12.338   8.219  1.00  0.00     0.166 A 
HETATM   35  C   UNL     1      43.358 -11.894   7.754  1.00  0.00     0.147 A 
BRANCH  34  36
HETATM   36  C   UNL     1      45.350 -11.781   9.323  1.00  0.00     0.314 C 
HETATM   37  O   UNL     1      45.856 -10.666   9.280  1.00  0.00    -0.257 OA
BRANCH  36  38
HETATM   38  O   UNL     1      45.386 -12.609  10.406  1.00  0.00    -0.321 OA
HETATM   39  C   UNL     1      44.288 -12.444  11.305  1.00  0.00     0.213 C 
ENDBRANCH  36  38
ENDBRANCH  34  36
ENDBRANCH   5  31
TORSDOF 9
ENDMDL
MODEL 8
REMARK VINA RESULT:      -7.5      3.315      9.095
REMARK  9 active torsions:
REMARK  status: ('A' for Active; 'I' for Inactive)
REMARK       I    between atoms: C_2  and  N_3 
REMARK    1  A    between atoms: N_3  and  C_4 
REMARK    2  A    between atoms: C_7  and  C_8 
REMARK    3  A    between atoms: C_8  and  N_9 
REMARK    4  A    between atoms: C_11  and  C_12 
REMARK       I    between atoms: C_12  and  N_13 
REMARK    5  A    between atoms: N_13  and  C_14 
REMARK    6  A    between atoms: C_16  and  S_17 
REMARK    7  A    between atoms: C_24  and  N_25 
REMARK    8  A    between atoms: C_28  and  C_29 
REMARK    9  A    between atoms: C_29  and  O_30 
ROOT
HETATM    1  N   UNL     1      40.628 -14.385   1.526  1.00  0.00    -0.052 N 
HETATM    2  H   UNL     1      39.637 -14.112   1.447  1.00  0.00     0.281 HD
HETATM    3  C   UNL     1      41.387 -13.212   2.176  1.00  0.00     0.282 C 
HETATM    4  C   UNL     1      42.659 -13.887   2.661  1.00  0.00     0.072 C 
HETATM    5  C   UNL     1      42.173 -15.258   3.178  1.00  0.00     0.134 C 
HETATM    6  C   UNL     1      40.815 -15.517   2.502  1.00  0.00     0.263 C 
ENDROOT
BRANCH   1   7
HETATM    7  C   UNL     1      41.082 -14.694   0.105  1.00  0.00     0.274 C 
BRANCH   7   8
HETATM    8  C   UNL     1      40.070 -14.371  -0.956  1.00  0.00    -0.032 A 
HETATM    9  C   UNL     1      38.811 -13.868  -0.607  1.00  0.00     0.011 A 
HETATM   10  C   UNL     1      37.918 -13.440  -1.596  1.00  0.00     0.030 A 
HETATM   11  C   UNL     1      38.267 -13.496  -2.945  1.00  0.00     0.034 A 
HETATM   12  C   UNL     1      39.507 -14.041  -3.296  1.00  0.00     0.030 A 
HETATM   13  C   UNL     1      40.402 -14.475  -2.313  1.00  0.00     0.011 A 
BRANCH  11  14
HETATM   14  N   UNL     1      37.465 -12.989  -3.988  1.00  0.00    -0.328 N 
HETATM   15  C   UNL     1      36.434 -13.640  -4.643  1.00  0.00     0.218 C 
HETATM   16  C   UNL     1      35.687 -12.735  -5.591  1.00  0.00     0.117 C 
HETATM   17  O   UNL     1      36.090 -14.806  -4.485  1.00  0.00    -0.274 OA
HETATM   18  H   UNL     1      37.620 -12.020  -4.242  1.00  0.00     0.169 HD
ENDBRANCH  11  14
ENDBRANCH   7   8
ENDBRANCH   1   7
BRANCH   3  19
HETATM   19  C   UNL     1      41.416 -11.994   1.239  1.00  0.00     0.253 C 
HETATM   20  N   UNL     1      42.563 -11.776   0.514  1.00  0.00    -0.325 N 
HETATM   21  H   UNL     1      43.437 -12.194   0.817  1.00  0.00     0.169 HD
HETATM   22  O   UNL     1      40.369 -11.349   1.151  1.00  0.00    -0.271 OA
BRANCH  20  23
HETATM   23  C   UNL     1      42.682 -10.909  -0.604  1.00  0.00     0.036 A 
HETATM   24  C   UNL     1      42.420 -11.306  -1.923  1.00  0.00     0.048 A 
HETATM   25  C   UNL     1      42.585 -10.420  -2.997  1.00  0.00     0.002 A 
HETATM   26  C   UNL     1      43.038  -9.124  -2.734  1.00  0.00     0.018 A 
HETATM   27  C   UNL     1      43.311  -8.719  -1.427  1.00  0.00     0.004 A 
HETATM   28  C   UNL     1      43.137  -9.609  -0.367  1.00  0.00     0.029 A 
BRANCH  25  29
HETATM   29  S   UNL     1      42.312 -10.861  -4.709  1.00  0.00    -0.134 SA
HETATM   30  C   UNL     1      42.052  -9.256  -5.514  1.00  0.00     0.095 C 
ENDBRANCH  25  29
ENDBRANCH  20  23
ENDBRANCH   3  19
BRANCH   5  31
HETATM   31  N   UNL     1      43.073 -16.360   2.916  1.00  0.00    -0.276 N 
HETATM   32  N   UNL     1      43.738 -16.407   1.753  1.00  0.00     0.005 NA
HETATM   33  N   UNL     1      44.228 -17.631   1.623  1.00  0.00    -0.152 NA
HETATM   34  C   UNL     1      43.877 -18.360   2.737  1.00  0.00     0.166 A 
HETATM   35  C   UNL     1      43.161 -17.538   3.588  1.00  0.00     0.147 A 
BRANCH  34  36
HETATM   36  C   UNL     1      44.165 -19.774   2.926  1.00  0.00     0.314 C 
HETATM   37  O   UNL     1      44.638 -20.218   3.965  1.00  0.00    -0.257 OA
BRANCH  36  38
HETATM   38  O   UNL     1      43.797 -20.531   1.853  1.00  0.00    -0.321 OA
HETATM   39  C   UNL     1      44.256 -21.883   1.906  1.00  0.00     0.213 C 
ENDBRANCH  36  38
ENDBRANCH  34  36
ENDBRANCH   5  31
TORSDOF 9
ENDMDL
MODEL 9
REMARK VINA RESULT:      -7.2      3.297      6.054
REMARK  9 active torsions:
REMARK  status: ('A' for Active; 'I' for Inactive)
REMARK       I    between atoms: C_2  and  N_3 
REMARK    1  A    between atoms: N_3  and  C_4 
REMARK    2  A    between atoms: C_7  and  C_8 
REMARK    3  A    between atoms: C_8  and  N_9 
REMARK    4  A    between atoms: C_11  and  C_12 
REMARK       I    between atoms: C_12  and  N_13 
REMARK    5  A    between atoms: N_13  and  C_14 
REMARK    6  A    between atoms: C_16  and  S_17 
REMARK    7  A    between atoms: C_24  and  N_25 
REMARK    8  A    between atoms: C_28  and  C_29 
REMARK    9  A    between atoms: C_29  and  O_30 
ROOT
HETATM    1  N   UNL     1      40.505 -14.308   1.567  1.00  0.00    -0.052 N 
HETATM    2  H   UNL     1      39.932 -14.432   2.416  1.00  0.00     0.281 HD
HETATM    3  C   UNL     1      41.092 -15.682   1.192  1.00  0.00     0.282 C 
HETATM    4  C   UNL     1      41.485 -15.473  -0.262  1.00  0.00     0.072 C 
HETATM    5  C   UNL     1      40.337 -14.613  -0.832  1.00  0.00     0.134 C 
HETATM    6  C   UNL     1      39.659 -13.943   0.375  1.00  0.00     0.263 C 
ENDROOT
BRANCH   1   7
HETATM    7  C   UNL     1      41.560 -13.272   1.934  1.00  0.00     0.274 C 
BRANCH   7   8
HETATM    8  C   UNL     1      41.445 -12.735   3.332  1.00  0.00    -0.032 A 
HETATM    9  C   UNL     1      40.355 -11.937   3.699  1.00  0.00     0.011 A 
HETATM   10  C   UNL     1      40.177 -11.547   5.030  1.00  0.00     0.030 A 
HETATM   11  C   UNL     1      41.072 -11.954   6.020  1.00  0.00     0.034 A 
HETATM   12  C   UNL     1      42.187 -12.713   5.645  1.00  0.00     0.030 A 
HETATM   13  C   UNL     1      42.374 -13.101   4.314  1.00  0.00     0.011 A 
BRANCH  11  14
HETATM   14  N   UNL     1      40.902 -11.689   7.394  1.00  0.00    -0.328 N 
HETATM   15  C   UNL     1      41.453 -10.648   8.120  1.00  0.00     0.218 C 
HETATM   16  C   UNL     1      40.922 -10.579   9.530  1.00  0.00     0.117 C 
HETATM   17  O   UNL     1      42.255  -9.816   7.709  1.00  0.00    -0.274 OA
HETATM   18  H   UNL     1      40.256 -12.291   7.889  1.00  0.00     0.169 HD
ENDBRANCH  11  14
ENDBRANCH   7   8
ENDBRANCH   1   7
BRANCH   3  19
HETATM   19  C   UNL     1      42.102 -16.153   2.251  1.00  0.00     0.253 C 
HETATM   20  N   UNL     1      41.603 -16.606   3.448  1.00  0.00    -0.325 N 
HETATM   21  H   UNL     1      40.666 -16.345   3.734  1.00  0.00     0.169 HD
HETATM   22  O   UNL     1      43.287 -16.161   1.908  1.00  0.00    -0.271 OA
BRANCH  20  23
HETATM   23  C   UNL     1      42.328 -17.350   4.416  1.00  0.00     0.036 A 
HETATM   24  C   UNL     1      43.119 -18.465   4.105  1.00  0.00     0.048 A 
HETATM   25  C   UNL     1      43.788 -19.185   5.103  1.00  0.00     0.002 A 
HETATM   26  C   UNL     1      43.640 -18.784   6.434  1.00  0.00     0.018 A 
HETATM   27  C   UNL     1      42.849 -17.682   6.760  1.00  0.00     0.004 A 
HETATM   28  C   UNL     1      42.193 -16.970   5.755  1.00  0.00     0.029 A 
BRANCH  25  29
HETATM   29  S   UNL     1      44.781 -20.641   4.792  1.00  0.00    -0.134 SA
HETATM   30  C   UNL     1      44.673 -20.841   2.993  1.00  0.00     0.095 C 
ENDBRANCH  25  29
ENDBRANCH  20  23
ENDBRANCH   3  19
BRANCH   5  31
HETATM   31  N   UNL     1      40.747 -13.610  -1.789  1.00  0.00    -0.276 N 
HETATM   32  N   UNL     1      41.150 -13.988  -3.011  1.00  0.00     0.005 NA
HETATM   33  N   UNL     1      41.759 -12.952  -3.568  1.00  0.00    -0.152 NA
HETATM   34  C   UNL     1      41.723 -11.899  -2.683  1.00  0.00     0.166 A 
HETATM   35  C   UNL     1      41.044 -12.306  -1.549  1.00  0.00     0.147 A 
BRANCH  34  36
HETATM   36  C   UNL     1      42.360 -10.609  -2.904  1.00  0.00     0.314 C 
HETATM   37  O   UNL     1      42.696 -10.220  -4.016  1.00  0.00    -0.257 OA
BRANCH  36  38
HETATM   38  O   UNL     1      42.481  -9.882  -1.756  1.00  0.00    -0.321 OA
HETATM   39  C   UNL     1      43.816  -9.800  -1.254  1.00  0.00     0.213 C 
ENDBRANCH  36  38
ENDBRANCH  34  36
ENDBRANCH   5  31
TORSDOF 9
ENDMDL
MODEL 10
REMARK VINA RESULT:      -7.2      4.186      8.628
REMARK  9 active torsions:
REMARK  status: ('A' for Active; 'I' for Inactive)
REMARK       I    between atoms: C_2  and  N_3 
REMARK    1  A    between atoms: N_3  and  C_4 
REMARK    2  A    between atoms: C_7  and  C_8 
REMARK    3  A    between atoms: C_8  and  N_9 
REMARK    4  A    between atoms: C_11  and  C_12 
REMARK       I    between atoms: C_12  and  N_13 
REMARK    5  A    between atoms: N_13  and  C_14 
REMARK    6  A    between atoms: C_16  and  S_17 
REMARK    7  A    between atoms: C_24  and  N_25 
REMARK    8  A    between atoms: C_28  and  C_29 
REMARK    9  A    between atoms: C_29  and  O_30 
ROOT
HETATM    1  N   UNL     1      39.810 -13.072   4.490  1.00  0.00    -0.052 N 
HETATM    2  H   UNL     1      39.407 -13.974   4.196  1.00  0.00     0.281 HD
HETATM    3  C   UNL     1      39.122 -11.962   3.671  1.00  0.00     0.282 C 
HETATM    4  C   UNL     1      39.429 -10.723   4.496  1.00  0.00     0.072 C 
HETATM    5  C   UNL     1      39.293 -11.210   5.955  1.00  0.00     0.134 C 
HETATM    6  C   UNL     1      39.450 -12.741   5.915  1.00  0.00     0.263 C 
ENDROOT
BRANCH   1   7
HETATM    7  C   UNL     1      41.306 -13.188   4.226  1.00  0.00     0.274 C 
BRANCH   7   8
HETATM    8  C   UNL     1      41.718 -14.447   3.521  1.00  0.00    -0.032 A 
HETATM    9  C   UNL     1      43.042 -14.625   3.099  1.00  0.00     0.011 A 
HETATM   10  C   UNL     1      43.459 -15.848   2.563  1.00  0.00     0.030 A 
HETATM   11  C   UNL     1      42.570 -16.917   2.449  1.00  0.00     0.034 A 
HETATM   12  C   UNL     1      41.236 -16.725   2.827  1.00  0.00     0.030 A 
HETATM   13  C   UNL     1      40.812 -15.502   3.359  1.00  0.00     0.011 A 
BRANCH  11  14
HETATM   14  N   UNL     1      42.941 -18.207   2.018  1.00  0.00    -0.328 N 
HETATM   15  C   UNL     1      43.584 -19.184   2.758  1.00  0.00     0.218 C 
HETATM   16  C   UNL     1      43.673 -20.500   2.027  1.00  0.00     0.117 C 
HETATM   17  O   UNL     1      44.016 -19.068   3.900  1.00  0.00    -0.274 OA
HETATM   18  H   UNL     1      42.650 -18.468   1.084  1.00  0.00     0.169 HD
ENDBRANCH  11  14
ENDBRANCH   7   8
ENDBRANCH   1   7
BRANCH   3  19
HETATM   19  C   UNL     1      39.499 -12.067   2.184  1.00  0.00     0.253 C 
HETATM   20  N   UNL     1      39.048 -13.163   1.489  1.00  0.00    -0.325 N 
HETATM   21  H   UNL     1      38.768 -13.998   1.993  1.00  0.00     0.169 HD
HETATM   22  O   UNL     1      40.114 -11.109   1.709  1.00  0.00    -0.271 OA
BRANCH  20  23
HETATM   23  C   UNL     1      39.026 -13.295   0.076  1.00  0.00     0.036 A 
HETATM   24  C   UNL     1      40.137 -13.694  -0.682  1.00  0.00     0.048 A 
HETATM   25  C   UNL     1      40.073 -13.777  -2.080  1.00  0.00     0.002 A 
HETATM   26  C   UNL     1      38.878 -13.432  -2.718  1.00  0.00     0.018 A 
HETATM   27  C   UNL     1      37.769 -13.025  -1.978  1.00  0.00     0.004 A 
HETATM   28  C   UNL     1      37.843 -12.953  -0.586  1.00  0.00     0.029 A 
BRANCH  25  29
HETATM   29  S   UNL     1      41.455 -14.237  -3.119  1.00  0.00    -0.134 SA
HETATM   30  C   UNL     1      42.684 -12.950  -2.770  1.00  0.00     0.095 C 
ENDBRANCH  25  29
ENDBRANCH  20  23
ENDBRANCH   3  19
BRANCH   5  31
HETATM   31  N   UNL     1      40.249 -10.639   6.877  1.00  0.00    -0.276 N 
HETATM   32  N   UNL     1      41.112  -9.710   6.442  1.00  0.00     0.005 NA
HETATM   33  N   UNL     1      42.060  -9.586   7.359  1.00  0.00    -0.152 NA
HETATM   34  C   UNL     1      41.775 -10.443   8.397  1.00  0.00     0.166 A 
HETATM   35  C   UNL     1      40.593 -11.101   8.108  1.00  0.00     0.147 A 
BRANCH  34  36
HETATM   36  C   UNL     1      42.629 -10.652   9.557  1.00  0.00     0.314 C 
HETATM   37  O   UNL     1      42.181 -10.850  10.680  1.00  0.00    -0.257 OA
BRANCH  36  38
HETATM   38  O   UNL     1      43.954 -10.659   9.237  1.00  0.00    -0.321 OA
HETATM   39  C   UNL     1      44.456 -11.938   8.847  1.00  0.00     0.213 C 
ENDBRANCH  36  38
ENDBRANCH  34  36
ENDBRANCH   5  31
TORSDOF 9
ENDMDL
