MODEL 1
REMARK VINA RESULT:      -9.4      0.000      0.000
REMARK  11 active torsions:
REMARK  status: ('A' for Active; 'I' for Inactive)
REMARK    1  A    between atoms: C_2  and  C_3 
REMARK    2  A    between atoms: C_3  and  C_4 
REMARK    3  A    between atoms: C_4  and  O_5 
REMARK    4  A    between atoms: O_5  and  C_6 
REMARK    5  A    between atoms: C_8  and  C_9 
REMARK       I    between atoms: C_9  and  N_10 
REMARK    6  A    between atoms: N_10  and  C_11 
REMARK    7  A    between atoms: C_11  and  N_12 
REMARK    8  A    between atoms: N_12  and  C_13 
REMARK    9  A    between atoms: C_15  and  O_16 
REMARK   10  A    between atoms: C_17  and  C_18 
REMARK   11  A    between atoms: C_25  and  C_26 
ROOT
HETATM    1  C   UNL     1      40.495 -13.247   5.699  1.00  0.00     0.036 C 
HETATM    2  C   UNL     1      41.820 -12.965   5.370  1.00  0.00     0.067 C 
HETATM    3  C   UNL     1      42.622 -13.927   4.754  1.00  0.00     0.082 C 
HETATM    4  C   UNL     1      42.107 -15.191   4.438  1.00  0.00     0.050 C 
HETATM    5  C   UNL     1      40.725 -15.393   4.608  1.00  0.00     0.021 C 
HETATM    6  C   UNL     1      39.920 -14.423   5.220  1.00  0.00     0.030 C 
ENDROOT
BRANCH   1   7
HETATM    7  N   UNL     1      39.717 -12.410   6.528  1.00  0.00    -0.333 N 
HETATM    8  H   UNL     1      38.965 -12.863   7.049  1.00  0.00     0.168 HD
BRANCH   7   9
HETATM    9  C   UNL     1      40.046 -11.159   7.003  1.00  0.00     0.179 C 
HETATM   10  S   UNL     1      39.973  -9.666   6.241  1.00  0.00    -0.040 SA
BRANCH   9  11
HETATM   11  N   UNL     1      40.561 -11.120   8.280  1.00  0.00    -0.299 N 
HETATM   12  C   UNL     1      39.964 -10.807   9.492  1.00  0.00     0.257 C 
HETATM   13  O   UNL     1      38.812 -10.414   9.625  1.00  0.00    -0.267 OA
HETATM   14  H   UNL     1      41.538 -11.383   8.293  1.00  0.00     0.171 HD
BRANCH  12  15
HETATM   15  C   UNL     1      40.880 -10.951  10.656  1.00  0.00     0.035 A 
HETATM   16  C   UNL     1      42.258 -10.756  10.497  1.00  0.00     0.053 A 
HETATM   17  C   UNL     1      43.086 -10.759  11.616  1.00  0.00     0.069 A 
HETATM   18  C   UNL     1      42.563 -11.030  12.878  1.00  0.00     0.037 A 
HETATM   19  C   UNL     1      41.194 -11.261  13.030  1.00  0.00     0.004 A 
HETATM   20  C   UNL     1      40.347 -11.221  11.918  1.00  0.00     0.017 A 
BRANCH  17  21
HETATM   21  O   UNL     1      44.432 -10.548  11.499  1.00  0.00    -0.351 OA
BRANCH  21  22
HETATM   22  C   UNL     1      45.096 -11.626  10.821  1.00  0.00     0.175 C 
BRANCH  22  23
HETATM   23  C   UNL     1      45.753 -11.133   9.532  1.00  0.00     0.026 C 
BRANCH  23  24
HETATM   24  C   UNL     1      46.048 -12.271   8.554  1.00  0.00    -0.002 C 
HETATM   25  C   UNL     1      44.782 -13.037   8.197  1.00  0.00     0.005 C 
ENDBRANCH  23  24
ENDBRANCH  22  23
ENDBRANCH  21  22
ENDBRANCH  17  21
ENDBRANCH  12  15
ENDBRANCH   9  11
ENDBRANCH   7   9
ENDBRANCH   1   7
BRANCH   3  26
HETATM   26  O   UNL     1      43.930 -13.616   4.496  1.00  0.00    -0.360 OA
HETATM   27  H   UNL     1      44.471 -13.830   5.275  1.00  0.00     0.217 HD
ENDBRANCH   3  26
BRANCH   4  28
HETATM   28  C   UNL     1      42.944 -16.346   4.104  1.00  0.00     0.183 A 
HETATM   29  O   UNL     1      43.709 -16.861   5.121  1.00  0.00    -0.289 OA
HETATM   30  C   UNL     1      44.084 -18.087   4.676  1.00  0.00     0.106 A 
HETATM   31  C   UNL     1      43.572 -18.247   3.402  1.00  0.00     0.094 A 
HETATM   32  C   UNL     1      44.796 -19.050   5.377  1.00  0.00     0.040 A 
HETATM   33  N   UNL     1      42.883 -17.119   3.030  1.00  0.00    -0.221 NA
HETATM   34  C   UNL     1      43.761 -19.472   2.749  1.00  0.00     0.041 A 
HETATM   35  C   UNL     1      44.436 -20.503   3.435  1.00  0.00    -0.056 A 
HETATM   36  C   UNL     1      44.949 -20.279   4.728  1.00  0.00     0.010 A 
BRANCH  35  37
HETATM   37  C   UNL     1      44.537 -21.873   2.811  1.00  0.00     0.034 C 
HETATM   38  C   UNL     1      43.944 -21.887   1.409  1.00  0.00     0.010 C 
ENDBRANCH  35  37
ENDBRANCH   4  28
TORSDOF 11
ENDMDL
MODEL 2
REMARK VINA RESULT:      -9.3      4.811      8.820
REMARK  11 active torsions:
REMARK  status: ('A' for Active; 'I' for Inactive)
REMARK    1  A    between atoms: C_2  and  C_3 
REMARK    2  A    between atoms: C_3  and  C_4 
REMARK    3  A    between atoms: C_4  and  O_5 
REMARK    4  A    between atoms: O_5  and  C_6 
REMARK    5  A    between atoms: C_8  and  C_9 
REMARK       I    between atoms: C_9  and  N_10 
REMARK    6  A    between atoms: N_10  and  C_11 
REMARK    7  A    between atoms: C_11  and  N_12 
REMARK    8  A    between atoms: N_12  and  C_13 
REMARK    9  A    between atoms: C_15  and  O_16 
REMARK   10  A    between atoms: C_17  and  C_18 
REMARK   11  A    between atoms: C_25  and  C_26 
ROOT
HETATM    1  C   UNL     1      42.104 -14.758   4.253  1.00  0.00     0.036 C 
HETATM    2  C   UNL     1      41.003 -15.534   3.892  1.00  0.00     0.067 C 
HETATM    3  C   UNL     1      40.545 -15.552   2.573  1.00  0.00     0.082 C 
HETATM    4  C   UNL     1      41.193 -14.804   1.582  1.00  0.00     0.050 C 
HETATM    5  C   UNL     1      42.405 -14.177   1.925  1.00  0.00     0.021 C 
HETATM    6  C   UNL     1      42.867 -14.167   3.248  1.00  0.00     0.030 C 
ENDROOT
BRANCH   1   7
HETATM    7  N   UNL     1      42.461 -14.515   5.597  1.00  0.00    -0.333 N 
HETATM    8  H   UNL     1      41.722 -14.155   6.202  1.00  0.00     0.168 HD
BRANCH   7   9
HETATM    9  C   UNL     1      43.543 -15.023   6.283  1.00  0.00     0.179 C 
HETATM   10  S   UNL     1      44.727 -14.225   7.163  1.00  0.00    -0.040 SA
BRANCH   9  11
HETATM   11  N   UNL     1      43.717 -16.387   6.201  1.00  0.00    -0.299 N 
HETATM   12  C   UNL     1      43.517 -17.386   7.141  1.00  0.00     0.257 C 
HETATM   13  O   UNL     1      43.198 -17.198   8.308  1.00  0.00    -0.267 OA
HETATM   14  H   UNL     1      44.033 -16.665   5.281  1.00  0.00     0.171 HD
BRANCH  12  15
HETATM   15  C   UNL     1      43.772 -18.753   6.612  1.00  0.00     0.035 A 
HETATM   16  C   UNL     1      44.298 -18.924   5.325  1.00  0.00     0.053 A 
HETATM   17  C   UNL     1      44.660 -20.199   4.893  1.00  0.00     0.069 A 
HETATM   18  C   UNL     1      44.429 -21.307   5.704  1.00  0.00     0.037 A 
HETATM   19  C   UNL     1      43.869 -21.139   6.972  1.00  0.00     0.004 A 
HETATM   20  C   UNL     1      43.540 -19.860   7.432  1.00  0.00     0.017 A 
BRANCH  17  21
HETATM   21  O   UNL     1      45.197 -20.397   3.653  1.00  0.00    -0.351 OA
BRANCH  21  22
HETATM   22  C   UNL     1      44.521 -21.434   2.924  1.00  0.00     0.175 C 
BRANCH  22  23
HETATM   23  C   UNL     1      43.563 -20.837   1.894  1.00  0.00     0.026 C 
BRANCH  23  24
HETATM   24  C   UNL     1      43.792 -19.340   1.682  1.00  0.00    -0.002 C 
HETATM   25  C   UNL     1      42.564 -18.532   2.075  1.00  0.00     0.005 C 
ENDBRANCH  23  24
ENDBRANCH  22  23
ENDBRANCH  21  22
ENDBRANCH  17  21
ENDBRANCH  12  15
ENDBRANCH   9  11
ENDBRANCH   7   9
ENDBRANCH   1   7
BRANCH   3  26
HETATM   26  O   UNL     1      39.430 -16.291   2.281  1.00  0.00    -0.360 OA
HETATM   27  H   UNL     1      39.394 -16.455   1.324  1.00  0.00     0.217 HD
ENDBRANCH   3  26
BRANCH   4  28
HETATM   28  C   UNL     1      40.599 -14.506   0.275  1.00  0.00     0.183 A 
HETATM   29  O   UNL     1      41.190 -15.097  -0.813  1.00  0.00    -0.289 OA
HETATM   30  C   UNL     1      40.274 -14.970  -1.807  1.00  0.00     0.106 A 
HETATM   31  C   UNL     1      39.193 -14.277  -1.296  1.00  0.00     0.094 A 
HETATM   32  C   UNL     1      40.356 -15.490  -3.091  1.00  0.00     0.040 A 
HETATM   33  N   UNL     1      39.425 -13.949   0.017  1.00  0.00    -0.221 NA
HETATM   34  C   UNL     1      38.072 -14.080  -2.114  1.00  0.00     0.041 A 
HETATM   35  C   UNL     1      38.082 -14.630  -3.413  1.00  0.00    -0.056 A 
HETATM   36  C   UNL     1      39.218 -15.316  -3.885  1.00  0.00     0.010 A 
BRANCH  35  37
HETATM   37  C   UNL     1      36.840 -14.550  -4.267  1.00  0.00     0.034 C 
HETATM   38  C   UNL     1      36.351 -13.114  -4.397  1.00  0.00     0.010 C 
ENDBRANCH  35  37
ENDBRANCH   4  28
TORSDOF 11
ENDMDL
MODEL 3
REMARK VINA RESULT:      -8.9      2.000      2.752
REMARK  11 active torsions:
REMARK  status: ('A' for Active; 'I' for Inactive)
REMARK    1  A    between atoms: C_2  and  C_3 
REMARK    2  A    between atoms: C_3  and  C_4 
REMARK    3  A    between atoms: C_4  and  O_5 
REMARK    4  A    between atoms: O_5  and  C_6 
REMARK    5  A    between atoms: C_8  and  C_9 
REMARK       I    between atoms: C_9  and  N_10 
REMARK    6  A    between atoms: N_10  and  C_11 
REMARK    7  A    between atoms: C_11  and  N_12 
REMARK    8  A    between atoms: N_12  and  C_13 
REMARK    9  A    between atoms: C_15  and  O_16 
REMARK   10  A    between atoms: C_17  and  C_18 
REMARK   11  A    between atoms: C_25  and  C_26 
ROOT
HETATM    1  C   UNL     1      39.775 -12.031   5.440  1.00  0.00     0.036 C 
HETATM    2  C   UNL     1      39.676 -12.131   4.053  1.00  0.00     0.067 C 
HETATM    3  C   UNL     1      39.935 -13.340   3.405  1.00  0.00     0.082 C 
HETATM    4  C   UNL     1      40.283 -14.482   4.137  1.00  0.00     0.050 C 
HETATM    5  C   UNL     1      40.198 -14.410   5.539  1.00  0.00     0.021 C 
HETATM    6  C   UNL     1      39.931 -13.197   6.188  1.00  0.00     0.030 C 
ENDROOT
BRANCH   1   7
HETATM    7  N   UNL     1      39.761 -10.795   6.122  1.00  0.00    -0.333 N 
HETATM    8  H   UNL     1      38.988 -10.646   6.771  1.00  0.00     0.168 HD
BRANCH   7   9
HETATM    9  C   UNL     1      40.814  -9.924   6.302  1.00  0.00     0.179 C 
HETATM   10  S   UNL     1      41.266  -8.583   5.401  1.00  0.00    -0.040 SA
BRANCH   9  11
HETATM   11  N   UNL     1      41.659 -10.215   7.350  1.00  0.00    -0.299 N 
HETATM   12  C   UNL     1      41.654  -9.786   8.669  1.00  0.00     0.257 C 
HETATM   13  O   UNL     1      40.880  -8.957   9.133  1.00  0.00    -0.267 OA
HETATM   14  H   UNL     1      42.383 -10.864   7.072  1.00  0.00     0.171 HD
BRANCH  12  15
HETATM   15  C   UNL     1      42.728 -10.401   9.494  1.00  0.00     0.035 A 
HETATM   16  C   UNL     1      43.530 -11.418   8.963  1.00  0.00     0.053 A 
HETATM   17  C   UNL     1      44.617 -11.890   9.695  1.00  0.00     0.069 A 
HETATM   18  C   UNL     1      44.862 -11.410  10.979  1.00  0.00     0.037 A 
HETATM   19  C   UNL     1      44.038 -10.422  11.523  1.00  0.00     0.004 A 
HETATM   20  C   UNL     1      42.968  -9.913  10.781  1.00  0.00     0.017 A 
BRANCH  17  21
HETATM   21  O   UNL     1      45.434 -12.865   9.196  1.00  0.00    -0.351 OA
BRANCH  21  22
HETATM   22  C   UNL     1      45.749 -12.657   7.810  1.00  0.00     0.175 C 
BRANCH  22  23
HETATM   23  C   UNL     1      45.450 -13.913   6.991  1.00  0.00     0.026 C 
BRANCH  23  24
HETATM   24  C   UNL     1      43.987 -13.991   6.552  1.00  0.00    -0.002 C 
HETATM   25  C   UNL     1      43.556 -15.432   6.317  1.00  0.00     0.005 C 
ENDBRANCH  23  24
ENDBRANCH  22  23
ENDBRANCH  21  22
ENDBRANCH  17  21
ENDBRANCH  12  15
ENDBRANCH   9  11
ENDBRANCH   7   9
ENDBRANCH   1   7
BRANCH   3  26
HETATM   26  O   UNL     1      39.871 -13.372   2.038  1.00  0.00    -0.360 OA
HETATM   27  H   UNL     1      39.077 -13.860   1.764  1.00  0.00     0.217 HD
ENDBRANCH   3  26
BRANCH   4  28
HETATM   28  C   UNL     1      40.881 -15.677   3.535  1.00  0.00     0.183 A 
HETATM   29  O   UNL     1      41.601 -15.486   2.382  1.00  0.00    -0.289 OA
HETATM   30  C   UNL     1      42.325 -16.626   2.242  1.00  0.00     0.106 A 
HETATM   31  C   UNL     1      41.987 -17.470   3.283  1.00  0.00     0.094 A 
HETATM   32  C   UNL     1      43.285 -16.892   1.276  1.00  0.00     0.040 A 
HETATM   33  N   UNL     1      41.038 -16.876   4.078  1.00  0.00    -0.221 NA
HETATM   34  C   UNL     1      42.660 -18.693   3.403  1.00  0.00     0.041 A 
HETATM   35  C   UNL     1      43.680 -18.994   2.476  1.00  0.00    -0.056 A 
HETATM   36  C   UNL     1      43.972 -18.101   1.427  1.00  0.00     0.010 A 
BRANCH  35  37
HETATM   37  C   UNL     1      44.511 -20.240   2.659  1.00  0.00     0.034 C 
HETATM   38  C   UNL     1      43.939 -21.408   1.868  1.00  0.00     0.010 C 
ENDBRANCH  35  37
ENDBRANCH   4  28
TORSDOF 11
ENDMDL
MODEL 4
REMARK VINA RESULT:      -8.8      2.418      9.462
REMARK  11 active torsions:
REMARK  status: ('A' for Active; 'I' for Inactive)
REMARK    1  A    between atoms: C_2  and  C_3 
REMARK    2  A    between atoms: C_3  and  C_4 
REMARK    3  A    between atoms: C_4  and  O_5 
REMARK    4  A    between atoms: O_5  and  C_6 
REMARK    5  A    between atoms: C_8  and  C_9 
REMARK       I    between atoms: C_9  and  N_10 
REMARK    6  A    between atoms: N_10  and  C_11 
REMARK    7  A    between atoms: C_11  and  N_12 
REMARK    8  A    between atoms: N_12  and  C_13 
REMARK    9  A    between atoms: C_15  and  O_16 
REMARK   10  A    between atoms: C_17  and  C_18 
REMARK   11  A    between atoms: C_25  and  C_26 
ROOT
HETATM    1  C   UNL     1      40.891 -12.826   3.937  1.00  0.00     0.036 C 
HETATM    2  C   UNL     1      40.202 -13.355   5.027  1.00  0.00     0.067 C 
HETATM    3  C   UNL     1      40.164 -12.673   6.245  1.00  0.00     0.082 C 
HETATM    4  C   UNL     1      40.803 -11.436   6.392  1.00  0.00     0.050 C 
HETATM    5  C   UNL     1      41.333 -10.834   5.235  1.00  0.00     0.021 C 
HETATM    6  C   UNL     1      41.363 -11.516   4.012  1.00  0.00     0.030 C 
ENDROOT
BRANCH   1   7
HETATM    7  N   UNL     1      41.164 -13.571   2.769  1.00  0.00    -0.333 N 
HETATM    8  H   UNL     1      42.010 -13.316   2.258  1.00  0.00     0.168 HD
BRANCH   7   9
HETATM    9  C   UNL     1      40.656 -14.804   2.422  1.00  0.00     0.179 C 
HETATM   10  S   UNL     1      39.121 -15.224   1.892  1.00  0.00    -0.040 SA
BRANCH   9  11
HETATM   11  N   UNL     1      41.515 -15.870   2.576  1.00  0.00    -0.299 N 
HETATM   12  C   UNL     1      42.880 -15.910   2.814  1.00  0.00     0.257 C 
HETATM   13  O   UNL     1      43.614 -14.929   2.857  1.00  0.00    -0.267 OA
HETATM   14  H   UNL     1      41.025 -16.752   2.510  1.00  0.00     0.171 HD
BRANCH  12  15
HETATM   15  C   UNL     1      43.411 -17.290   2.976  1.00  0.00     0.035 A 
HETATM   16  C   UNL     1      43.887 -17.721   4.221  1.00  0.00     0.053 A 
HETATM   17  C   UNL     1      44.253 -19.054   4.392  1.00  0.00     0.069 A 
HETATM   18  C   UNL     1      44.222 -19.937   3.316  1.00  0.00     0.037 A 
HETATM   19  C   UNL     1      43.784 -19.496   2.065  1.00  0.00     0.004 A 
HETATM   20  C   UNL     1      43.375 -18.170   1.891  1.00  0.00     0.017 A 
BRANCH  17  21
HETATM   21  O   UNL     1      44.699 -19.513   5.600  1.00  0.00    -0.351 OA
BRANCH  21  22
HETATM   22  C   UNL     1      43.674 -19.483   6.607  1.00  0.00     0.175 C 
BRANCH  22  23
HETATM   23  C   UNL     1      44.076 -18.568   7.763  1.00  0.00     0.026 C 
BRANCH  23  24
HETATM   24  C   UNL     1      43.131 -17.375   7.920  1.00  0.00    -0.002 C 
HETATM   25  C   UNL     1      43.772 -16.091   7.414  1.00  0.00     0.005 C 
ENDBRANCH  23  24
ENDBRANCH  22  23
ENDBRANCH  21  22
ENDBRANCH  17  21
ENDBRANCH  12  15
ENDBRANCH   9  11
ENDBRANCH   7   9
ENDBRANCH   1   7
BRANCH   3  26
HETATM   26  O   UNL     1      39.516 -13.260   7.299  1.00  0.00    -0.360 OA
HETATM   27  H   UNL     1      38.626 -13.530   7.018  1.00  0.00     0.217 HD
ENDBRANCH   3  26
BRANCH   4  28
HETATM   28  C   UNL     1      41.091 -10.823   7.691  1.00  0.00     0.183 A 
HETATM   29  O   UNL     1      40.166 -11.030   8.683  1.00  0.00    -0.289 OA
HETATM   30  C   UNL     1      40.815 -10.694   9.827  1.00  0.00     0.106 A 
HETATM   31  C   UNL     1      42.082 -10.262   9.481  1.00  0.00     0.094 A 
HETATM   32  C   UNL     1      40.339 -10.816  11.125  1.00  0.00     0.040 A 
HETATM   33  N   UNL     1      42.236 -10.308   8.117  1.00  0.00    -0.221 NA
HETATM   34  C   UNL     1      42.981  -9.926  10.502  1.00  0.00     0.041 A 
HETATM   35  C   UNL     1      42.565 -10.078  11.842  1.00  0.00    -0.056 A 
HETATM   36  C   UNL     1      41.257 -10.510  12.135  1.00  0.00     0.010 A 
BRANCH  35  37
HETATM   37  C   UNL     1      43.553  -9.853  12.960  1.00  0.00     0.034 C 
HETATM   38  C   UNL     1      42.845  -9.494  14.259  1.00  0.00     0.010 C 
ENDBRANCH  35  37
ENDBRANCH   4  28
TORSDOF 11
ENDMDL
MODEL 5
REMARK VINA RESULT:      -8.7      1.350      1.738
REMARK  11 active torsions:
REMARK  status: ('A' for Active; 'I' for Inactive)
REMARK    1  A    between atoms: C_2  and  C_3 
REMARK    2  A    between atoms: C_3  and  C_4 
REMARK    3  A    between atoms: C_4  and  O_5 
REMARK    4  A    between atoms: O_5  and  C_6 
REMARK    5  A    between atoms: C_8  and  C_9 
REMARK       I    between atoms: C_9  and  N_10 
REMARK    6  A    between atoms: N_10  and  C_11 
REMARK    7  A    between atoms: C_11  and  N_12 
REMARK    8  A    between atoms: N_12  and  C_13 
REMARK    9  A    between atoms: C_15  and  O_16 
REMARK   10  A    between atoms: C_17  and  C_18 
REMARK   11  A    between atoms: C_25  and  C_26 
ROOT
HETATM    1  C   UNL     1      40.384 -12.207   5.170  1.00  0.00     0.036 C 
HETATM    2  C   UNL     1      39.943 -13.462   5.586  1.00  0.00     0.067 C 
HETATM    3  C   UNL     1      40.734 -14.596   5.393  1.00  0.00     0.082 C 
HETATM    4  C   UNL     1      41.994 -14.494   4.792  1.00  0.00     0.050 C 
HETATM    5  C   UNL     1      42.499 -13.203   4.548  1.00  0.00     0.021 C 
HETATM    6  C   UNL     1      41.706 -12.065   4.750  1.00  0.00     0.030 C 
ENDROOT
BRANCH   1   7
HETATM    7  N   UNL     1      39.540 -11.076   5.121  1.00  0.00    -0.333 N 
HETATM    8  H   UNL     1      38.769 -11.117   4.453  1.00  0.00     0.168 HD
BRANCH   7   9
HETATM    9  C   UNL     1      39.396 -10.094   6.076  1.00  0.00     0.179 C 
HETATM   10  S   UNL     1      38.698  -8.574   5.958  1.00  0.00    -0.040 SA
BRANCH   9  11
HETATM   11  N   UNL     1      39.948 -10.371   7.308  1.00  0.00    -0.299 N 
HETATM   12  C   UNL     1      41.087  -9.877   7.925  1.00  0.00     0.257 C 
HETATM   13  O   UNL     1      41.889  -9.110   7.406  1.00  0.00    -0.267 OA
HETATM   14  H   UNL     1      39.391 -11.042   7.820  1.00  0.00     0.171 HD
BRANCH  12  15
HETATM   15  C   UNL     1      41.289 -10.406   9.301  1.00  0.00     0.035 A 
HETATM   16  C   UNL     1      42.582 -10.541   9.821  1.00  0.00     0.053 A 
HETATM   17  C   UNL     1      42.752 -10.907  11.154  1.00  0.00     0.069 A 
HETATM   18  C   UNL     1      41.648 -11.211  11.947  1.00  0.00     0.037 A 
HETATM   19  C   UNL     1      40.360 -11.113  11.415  1.00  0.00     0.004 A 
HETATM   20  C   UNL     1      40.176 -10.708  10.090  1.00  0.00     0.017 A 
BRANCH  17  21
HETATM   21  O   UNL     1      44.000 -11.025  11.700  1.00  0.00    -0.351 OA
BRANCH  21  22
HETATM   22  C   UNL     1      45.041 -10.836  10.728  1.00  0.00     0.175 C 
BRANCH  22  23
HETATM   23  C   UNL     1      45.587 -12.181  10.249  1.00  0.00     0.026 C 
BRANCH  23  24
HETATM   24  C   UNL     1      45.873 -12.195   8.747  1.00  0.00    -0.002 C 
HETATM   25  C   UNL     1      44.955 -13.164   8.017  1.00  0.00     0.005 C 
ENDBRANCH  23  24
ENDBRANCH  22  23
ENDBRANCH  21  22
ENDBRANCH  17  21
ENDBRANCH  12  15
ENDBRANCH   9  11
ENDBRANCH   7   9
ENDBRANCH   1   7
BRANCH   3  26
HETATM   26  O   UNL     1      40.233 -15.812   5.776  1.00  0.00    -0.360 OA
HETATM   27  H   UNL     1      40.967 -16.430   5.923  1.00  0.00     0.217 HD
ENDBRANCH   3  26
BRANCH   4  28
HETATM   28  C   UNL     1      42.733 -15.642   4.260  1.00  0.00     0.183 A 
HETATM   29  O   UNL     1      43.316 -16.474   5.182  1.00  0.00    -0.289 OA
HETATM   30  C   UNL     1      43.604 -17.604   4.486  1.00  0.00     0.106 A 
HETATM   31  C   UNL     1      43.223 -17.397   3.173  1.00  0.00     0.094 A 
HETATM   32  C   UNL     1      44.122 -18.788   4.991  1.00  0.00     0.040 A 
HETATM   33  N   UNL     1      42.709 -16.132   3.029  1.00  0.00    -0.221 NA
HETATM   34  C   UNL     1      43.350 -18.453   2.262  1.00  0.00     0.041 A 
HETATM   35  C   UNL     1      43.826 -19.695   2.732  1.00  0.00    -0.056 A 
HETATM   36  C   UNL     1      44.211 -19.844   4.079  1.00  0.00     0.010 A 
BRANCH  35  37
HETATM   37  C   UNL     1      43.847 -20.886   1.806  1.00  0.00     0.034 C 
HETATM   38  C   UNL     1      44.354 -22.132   2.520  1.00  0.00     0.010 C 
ENDBRANCH  35  37
ENDBRANCH   4  28
TORSDOF 11
ENDMDL
MODEL 6
REMARK VINA RESULT:      -8.7      1.456      2.801
REMARK  11 active torsions:
REMARK  status: ('A' for Active; 'I' for Inactive)
REMARK    1  A    between atoms: C_2  and  C_3 
REMARK    2  A    between atoms: C_3  and  C_4 
REMARK    3  A    between atoms: C_4  and  O_5 
REMARK    4  A    between atoms: O_5  and  C_6 
REMARK    5  A    between atoms: C_8  and  C_9 
REMARK       I    between atoms: C_9  and  N_10 
REMARK    6  A    between atoms: N_10  and  C_11 
REMARK    7  A    between atoms: C_11  and  N_12 
REMARK    8  A    between atoms: N_12  and  C_13 
REMARK    9  A    between atoms: C_15  and  O_16 
REMARK   10  A    between atoms: C_17  and  C_18 
REMARK   11  A    between atoms: C_25  and  C_26 
ROOT
HETATM    1  C   UNL     1      40.418 -12.377   5.705  1.00  0.00     0.036 C 
HETATM    2  C   UNL     1      40.038 -13.659   6.103  1.00  0.00     0.067 C 
HETATM    3  C   UNL     1      40.793 -14.773   5.731  1.00  0.00     0.082 C 
HETATM    4  C   UNL     1      41.956 -14.625   4.965  1.00  0.00     0.050 C 
HETATM    5  C   UNL     1      42.422 -13.318   4.732  1.00  0.00     0.021 C 
HETATM    6  C   UNL     1      41.667 -12.200   5.112  1.00  0.00     0.030 C 
ENDROOT
BRANCH   1   7
HETATM    7  N   UNL     1      39.576 -11.252   5.844  1.00  0.00    -0.333 N 
HETATM    8  H   UNL     1      38.611 -11.369   5.531  1.00  0.00     0.168 HD
BRANCH   7   9
HETATM    9  C   UNL     1      39.767 -10.156   6.657  1.00  0.00     0.179 C 
HETATM   10  S   UNL     1      39.104  -8.619   6.562  1.00  0.00    -0.040 SA
BRANCH   9  11
HETATM   11  N   UNL     1      40.677 -10.320   7.678  1.00  0.00    -0.299 N 
HETATM   12  C   UNL     1      40.492 -10.566   9.030  1.00  0.00     0.257 C 
HETATM   13  O   UNL     1      39.405 -10.610   9.592  1.00  0.00    -0.267 OA
HETATM   14  H   UNL     1      41.629 -10.254   7.340  1.00  0.00     0.171 HD
BRANCH  12  15
HETATM   15  C   UNL     1      41.767 -10.737   9.779  1.00  0.00     0.035 A 
HETATM   16  C   UNL     1      41.747 -10.961  11.161  1.00  0.00     0.053 A 
HETATM   17  C   UNL     1      42.935 -11.254  11.827  1.00  0.00     0.069 A 
HETATM   18  C   UNL     1      44.146 -11.249  11.140  1.00  0.00     0.037 A 
HETATM   19  C   UNL     1      44.168 -10.988   9.768  1.00  0.00     0.004 A 
HETATM   20  C   UNL     1      42.978 -10.733   9.082  1.00  0.00     0.017 A 
BRANCH  17  21
HETATM   21  O   UNL     1      42.948 -11.500  13.171  1.00  0.00    -0.351 OA
BRANCH  21  22
HETATM   22  C   UNL     1      42.346 -10.438  13.927  1.00  0.00     0.175 C 
BRANCH  22  23
HETATM   23  C   UNL     1      43.274  -9.224  13.991  1.00  0.00     0.026 C 
BRANCH  23  24
HETATM   24  C   UNL     1      42.534  -7.909  13.743  1.00  0.00    -0.002 C 
HETATM   25  C   UNL     1      42.507  -7.560  12.262  1.00  0.00     0.005 C 
ENDBRANCH  23  24
ENDBRANCH  22  23
ENDBRANCH  21  22
ENDBRANCH  17  21
ENDBRANCH  12  15
ENDBRANCH   9  11
ENDBRANCH   7   9
ENDBRANCH   1   7
BRANCH   3  26
HETATM   26  O   UNL     1      40.351 -16.013   6.106  1.00  0.00    -0.360 OA
HETATM   27  H   UNL     1      40.995 -16.683   5.824  1.00  0.00     0.217 HD
ENDBRANCH   3  26
BRANCH   4  28
HETATM   28  C   UNL     1      42.611 -15.733   4.265  1.00  0.00     0.183 A 
HETATM   29  O   UNL     1      43.515 -16.467   4.993  1.00  0.00    -0.289 OA
HETATM   30  C   UNL     1      43.690 -17.602   4.269  1.00  0.00     0.106 A 
HETATM   31  C   UNL     1      42.925 -17.493   3.123  1.00  0.00     0.094 A 
HETATM   32  C   UNL     1      44.443 -18.712   4.625  1.00  0.00     0.040 A 
HETATM   33  N   UNL     1      42.274 -16.284   3.108  1.00  0.00    -0.221 NA
HETATM   34  C   UNL     1      42.878 -18.580   2.240  1.00  0.00     0.041 A 
HETATM   35  C   UNL     1      43.585 -19.752   2.577  1.00  0.00    -0.056 A 
HETATM   36  C   UNL     1      44.360 -19.802   3.752  1.00  0.00     0.010 A 
BRANCH  35  37
HETATM   37  C   UNL     1      43.445 -20.983   1.714  1.00  0.00     0.034 C 
HETATM   38  C   UNL     1      44.556 -21.985   1.997  1.00  0.00     0.010 C 
ENDBRANCH  35  37
ENDBRANCH   4  28
TORSDOF 11
ENDMDL
MODEL 7
REMARK VINA RESULT:      -8.7      2.401      9.475
REMARK  11 active torsions:
REMARK  status: ('A' for Active; 'I' for Inactive)
REMARK    1  A    between atoms: C_2  and  C_3 
REMARK    2  A    between atoms: C_3  and  C_4 
REMARK    3  A    between atoms: C_4  and  O_5 
REMARK    4  A    between atoms: O_5  and  C_6 
REMARK    5  A    between atoms: C_8  and  C_9 
REMARK       I    between atoms: C_9  and  N_10 
REMARK    6  A    between atoms: N_10  and  C_11 
REMARK    7  A    between atoms: C_11  and  N_12 
REMARK    8  A    between atoms: N_12  and  C_13 
REMARK    9  A    between atoms: C_15  and  O_16 
REMARK   10  A    between atoms: C_17  and  C_18 
REMARK   11  A    between atoms: C_25  and  C_26 
ROOT
HETATM    1  C   UNL     1      40.224 -13.571   4.187  1.00  0.00     0.036 C 
HETATM    2  C   UNL     1      39.545 -13.666   5.401  1.00  0.00     0.067 C 
HETATM    3  C   UNL     1      39.814 -12.774   6.441  1.00  0.00     0.082 C 
HETATM    4  C   UNL     1      40.761 -11.755   6.280  1.00  0.00     0.050 C 
HETATM    5  C   UNL     1      41.299 -11.560   4.995  1.00  0.00     0.021 C 
HETATM    6  C   UNL     1      41.021 -12.452   3.950  1.00  0.00     0.030 C 
ENDROOT
BRANCH   1   7
HETATM    7  N   UNL     1      40.169 -14.577   3.198  1.00  0.00    -0.333 N 
HETATM    8  H   UNL     1      39.319 -14.609   2.634  1.00  0.00     0.168 HD
BRANCH   7   9
HETATM    9  C   UNL     1      41.223 -15.278   2.655  1.00  0.00     0.179 C 
HETATM   10  S   UNL     1      41.801 -15.302   1.081  1.00  0.00    -0.040 SA
BRANCH   9  11
HETATM   11  N   UNL     1      41.881 -16.131   3.514  1.00  0.00    -0.299 N 
HETATM   12  C   UNL     1      42.901 -15.897   4.423  1.00  0.00     0.257 C 
HETATM   13  O   UNL     1      43.479 -14.827   4.569  1.00  0.00    -0.267 OA
HETATM   14  H   UNL     1      41.519 -17.074   3.449  1.00  0.00     0.171 HD
BRANCH  12  15
HETATM   15  C   UNL     1      43.284 -17.104   5.205  1.00  0.00     0.035 A 
HETATM   16  C   UNL     1      44.046 -18.117   4.610  1.00  0.00     0.053 A 
HETATM   17  C   UNL     1      44.512 -19.174   5.388  1.00  0.00     0.069 A 
HETATM   18  C   UNL     1      44.160 -19.267   6.733  1.00  0.00     0.037 A 
HETATM   19  C   UNL     1      43.367 -18.275   7.315  1.00  0.00     0.004 A 
HETATM   20  C   UNL     1      42.928 -17.189   6.553  1.00  0.00     0.017 A 
BRANCH  17  21
HETATM   21  O   UNL     1      45.278 -20.167   4.844  1.00  0.00    -0.351 OA
BRANCH  21  22
HETATM   22  C   UNL     1      44.707 -21.470   5.046  1.00  0.00     0.175 C 
BRANCH  22  23
HETATM   23  C   UNL     1      44.619 -22.234   3.725  1.00  0.00     0.026 C 
BRANCH  23  24
HETATM   24  C   UNL     1      44.600 -21.304   2.511  1.00  0.00    -0.002 C 
HETATM   25  C   UNL     1      43.645 -21.811   1.440  1.00  0.00     0.005 C 
ENDBRANCH  23  24
ENDBRANCH  22  23
ENDBRANCH  21  22
ENDBRANCH  17  21
ENDBRANCH  12  15
ENDBRANCH   9  11
ENDBRANCH   7   9
ENDBRANCH   1   7
BRANCH   3  26
HETATM   26  O   UNL     1      39.155 -12.942   7.629  1.00  0.00    -0.360 OA
HETATM   27  H   UNL     1      39.794 -12.899   8.360  1.00  0.00     0.217 HD
ENDBRANCH   3  26
BRANCH   4  28
HETATM   28  C   UNL     1      41.335 -11.001   7.398  1.00  0.00     0.183 A 
HETATM   29  O   UNL     1      40.451 -10.307   8.186  1.00  0.00    -0.289 OA
HETATM   30  C   UNL     1      41.155 -10.015   9.309  1.00  0.00     0.106 A 
HETATM   31  C   UNL     1      42.437 -10.504   9.141  1.00  0.00     0.094 A 
HETATM   32  C   UNL     1      40.678  -9.400  10.458  1.00  0.00     0.040 A 
HETATM   33  N   UNL     1      42.555 -11.093   7.906  1.00  0.00    -0.221 NA
HETATM   34  C   UNL     1      43.344 -10.392  10.203  1.00  0.00     0.041 A 
HETATM   35  C   UNL     1      42.899  -9.818  11.412  1.00  0.00    -0.056 A 
HETATM   36  C   UNL     1      41.584  -9.326  11.522  1.00  0.00     0.010 A 
BRANCH  35  37
HETATM   37  C   UNL     1      43.810  -9.807  12.614  1.00  0.00     0.034 C 
HETATM   38  C   UNL     1      43.140  -9.143  13.809  1.00  0.00     0.010 C 
ENDBRANCH  35  37
ENDBRANCH   4  28
TORSDOF 11
ENDMDL
MODEL 8
REMARK VINA RESULT:      -8.7      1.988      2.680
REMARK  11 active torsions:
REMARK  status: ('A' for Active; 'I' for Inactive)
REMARK    1  A    between atoms: C_2  and  C_3 
REMARK    2  A    between atoms: C_3  and  C_4 
REMARK    3  A    between atoms: C_4  and  O_5 
REMARK    4  A    between atoms: O_5  and  C_6 
REMARK    5  A    between atoms: C_8  and  C_9 
REMARK       I    between atoms: C_9  and  N_10 
REMARK    6  A    between atoms: N_10  and  C_11 
REMARK    7  A    between atoms: C_11  and  N_12 
REMARK    8  A    between atoms: N_12  and  C_13 
REMARK    9  A    between atoms: C_15  and  O_16 
REMARK   10  A    between atoms: C_17  and  C_18 
REMARK   11  A    between atoms: C_25  and  C_26 
ROOT
HETATM    1  C   UNL     1      39.767 -13.188   5.082  1.00  0.00     0.036 C 
HETATM    2  C   UNL     1      39.857 -13.490   3.724  1.00  0.00     0.067 C 
HETATM    3  C   UNL     1      40.540 -14.628   3.290  1.00  0.00     0.082 C 
HETATM    4  C   UNL     1      41.135 -15.498   4.211  1.00  0.00     0.050 C 
HETATM    5  C   UNL     1      40.879 -15.278   5.577  1.00  0.00     0.021 C 
HETATM    6  C   UNL     1      40.186 -14.140   6.011  1.00  0.00     0.030 C 
ENDROOT
BRANCH   1   7
HETATM    7  N   UNL     1      39.303 -11.943   5.561  1.00  0.00    -0.333 N 
HETATM    8  H   UNL     1      38.374 -11.940   5.983  1.00  0.00     0.168 HD
BRANCH   7   9
HETATM    9  C   UNL     1      40.053 -10.826   5.860  1.00  0.00     0.179 C 
HETATM   10  S   UNL     1      41.125  -9.963   4.901  1.00  0.00    -0.040 SA
BRANCH   9  11
HETATM   11  N   UNL     1      39.953 -10.368   7.155  1.00  0.00    -0.299 N 
HETATM   12  C   UNL     1      39.437 -10.966   8.294  1.00  0.00     0.257 C 
HETATM   13  O   UNL     1      38.877 -12.055   8.321  1.00  0.00    -0.267 OA
HETATM   14  H   UNL     1      40.346  -9.440   7.250  1.00  0.00     0.171 HD
BRANCH  12  15
HETATM   15  C   UNL     1      39.584 -10.132   9.517  1.00  0.00     0.035 A 
HETATM   16  C   UNL     1      40.858  -9.773   9.977  1.00  0.00     0.053 A 
HETATM   17  C   UNL     1      40.978  -8.882  11.040  1.00  0.00     0.069 A 
HETATM   18  C   UNL     1      39.843  -8.409  11.695  1.00  0.00     0.037 A 
HETATM   19  C   UNL     1      38.575  -8.799  11.259  1.00  0.00     0.004 A 
HETATM   20  C   UNL     1      38.441  -9.661  10.167  1.00  0.00     0.017 A 
BRANCH  17  21
HETATM   21  O   UNL     1      42.206  -8.492  11.498  1.00  0.00    -0.351 OA
BRANCH  21  22
HETATM   22  C   UNL     1      43.188  -9.532  11.380  1.00  0.00     0.175 C 
BRANCH  22  23
HETATM   23  C   UNL     1      43.364 -10.267  12.709  1.00  0.00     0.026 C 
BRANCH  23  24
HETATM   24  C   UNL     1      43.358  -9.317  13.907  1.00  0.00    -0.002 C 
HETATM   25  C   UNL     1      42.284  -9.702  14.914  1.00  0.00     0.005 C 
ENDBRANCH  23  24
ENDBRANCH  22  23
ENDBRANCH  21  22
ENDBRANCH  17  21
ENDBRANCH  12  15
ENDBRANCH   9  11
ENDBRANCH   7   9
ENDBRANCH   1   7
BRANCH   3  26
HETATM   26  O   UNL     1      40.640 -14.852   1.943  1.00  0.00    -0.360 OA
HETATM   27  H   UNL     1      41.548 -14.665   1.653  1.00  0.00     0.217 HD
ENDBRANCH   3  26
BRANCH   4  28
HETATM   28  C   UNL     1      42.131 -16.508   3.843  1.00  0.00     0.183 A 
HETATM   29  O   UNL     1      43.081 -16.803   4.789  1.00  0.00    -0.289 OA
HETATM   30  C   UNL     1      43.626 -17.973   4.369  1.00  0.00     0.106 A 
HETATM   31  C   UNL     1      43.019 -18.316   3.175  1.00  0.00     0.094 A 
HETATM   32  C   UNL     1      44.574 -18.740   5.032  1.00  0.00     0.040 A 
HETATM   33  N   UNL     1      42.098 -17.358   2.827  1.00  0.00    -0.221 NA
HETATM   34  C   UNL     1      43.360 -19.533   2.571  1.00  0.00     0.041 A 
HETATM   35  C   UNL     1      44.283 -20.374   3.227  1.00  0.00    -0.056 A 
HETATM   36  C   UNL     1      44.880 -19.968   4.436  1.00  0.00     0.010 A 
BRANCH  35  37
HETATM   37  C   UNL     1      44.567 -21.748   2.671  1.00  0.00     0.034 C 
HETATM   38  C   UNL     1      43.941 -21.927   1.294  1.00  0.00     0.010 C 
ENDBRANCH  35  37
ENDBRANCH   4  28
TORSDOF 11
ENDMDL
MODEL 9
REMARK VINA RESULT:      -8.1      2.383      8.855
REMARK  11 active torsions:
REMARK  status: ('A' for Active; 'I' for Inactive)
REMARK    1  A    between atoms: C_2  and  C_3 
REMARK    2  A    between atoms: C_3  and  C_4 
REMARK    3  A    between atoms: C_4  and  O_5 
REMARK    4  A    between atoms: O_5  and  C_6 
REMARK    5  A    between atoms: C_8  and  C_9 
REMARK       I    between atoms: C_9  and  N_10 
REMARK    6  A    between atoms: N_10  and  C_11 
REMARK    7  A    between atoms: C_11  and  N_12 
REMARK    8  A    between atoms: N_12  and  C_13 
REMARK    9  A    between atoms: C_15  and  O_16 
REMARK   10  A    between atoms: C_17  and  C_18 
REMARK   11  A    between atoms: C_25  and  C_26 
ROOT
HETATM    1  C   UNL     1      40.253 -12.764   3.901  1.00  0.00     0.036 C 
HETATM    2  C   UNL     1      39.366 -11.784   4.346  1.00  0.00     0.067 C 
HETATM    3  C   UNL     1      39.668 -11.006   5.465  1.00  0.00     0.082 C 
HETATM    4  C   UNL     1      40.875 -11.181   6.153  1.00  0.00     0.050 C 
HETATM    5  C   UNL     1      41.832 -12.040   5.583  1.00  0.00     0.021 C 
HETATM    6  C   UNL     1      41.531 -12.815   4.455  1.00  0.00     0.030 C 
ENDROOT
BRANCH   1   7
HETATM    7  N   UNL     1      39.902 -13.731   2.935  1.00  0.00    -0.333 N 
HETATM    8  H   UNL     1      38.943 -13.695   2.588  1.00  0.00     0.168 HD
BRANCH   7   9
HETATM    9  C   UNL     1      40.751 -14.475   2.144  1.00  0.00     0.179 C 
HETATM   10  S   UNL     1      40.912 -14.509   0.475  1.00  0.00    -0.040 SA
BRANCH   9  11
HETATM   11  N   UNL     1      41.563 -15.366   2.811  1.00  0.00    -0.299 N 
HETATM   12  C   UNL     1      41.615 -16.751   2.775  1.00  0.00     0.257 C 
HETATM   13  O   UNL     1      40.839 -17.466   2.152  1.00  0.00    -0.267 OA
HETATM   14  H   UNL     1      42.227 -14.888   3.407  1.00  0.00     0.171 HD
BRANCH  12  15
HETATM   15  C   UNL     1      42.699 -17.324   3.618  1.00  0.00     0.035 A 
HETATM   16  C   UNL     1      43.174 -16.618   4.731  1.00  0.00     0.053 A 
HETATM   17  C   UNL     1      44.090 -17.222   5.588  1.00  0.00     0.069 A 
HETATM   18  C   UNL     1      44.591 -18.490   5.303  1.00  0.00     0.037 A 
HETATM   19  C   UNL     1      44.145 -19.177   4.172  1.00  0.00     0.004 A 
HETATM   20  C   UNL     1      43.195 -18.597   3.326  1.00  0.00     0.017 A 
BRANCH  17  21
HETATM   21  O   UNL     1      44.556 -16.570   6.695  1.00  0.00    -0.351 OA
BRANCH  21  22
HETATM   22  C   UNL     1      43.944 -15.282   6.869  1.00  0.00     0.175 C 
BRANCH  22  23
HETATM   23  C   UNL     1      45.005 -14.187   6.974  1.00  0.00     0.026 C 
BRANCH  23  24
HETATM   24  C   UNL     1      44.736 -13.221   8.129  1.00  0.00    -0.002 C 
HETATM   25  C   UNL     1      45.970 -12.393   8.457  1.00  0.00     0.005 C 
ENDBRANCH  23  24
ENDBRANCH  22  23
ENDBRANCH  21  22
ENDBRANCH  17  21
ENDBRANCH  12  15
ENDBRANCH   9  11
ENDBRANCH   7   9
ENDBRANCH   1   7
BRANCH   3  26
HETATM   26  O   UNL     1      38.741 -10.092   5.891  1.00  0.00    -0.360 OA
HETATM   27  H   UNL     1      38.475  -9.532   5.143  1.00  0.00     0.217 HD
ENDBRANCH   3  26
BRANCH   4  28
HETATM   28  C   UNL     1      41.123 -10.655   7.498  1.00  0.00     0.183 A 
HETATM   29  O   UNL     1      40.145 -10.882   8.434  1.00  0.00    -0.289 OA
HETATM   30  C   UNL     1      40.751 -10.639   9.624  1.00  0.00     0.106 A 
HETATM   31  C   UNL     1      42.047 -10.237   9.362  1.00  0.00     0.094 A 
HETATM   32  C   UNL     1      40.209 -10.817  10.889  1.00  0.00     0.040 A 
HETATM   33  N   UNL     1      42.264 -10.211   8.006  1.00  0.00    -0.221 NA
HETATM   34  C   UNL     1      42.908  -9.996  10.440  1.00  0.00     0.041 A 
HETATM   35  C   UNL     1      42.424 -10.208  11.748  1.00  0.00    -0.056 A 
HETATM   36  C   UNL     1      41.089 -10.605  11.956  1.00  0.00     0.010 A 
BRANCH  35  37
HETATM   37  C   UNL     1      43.365 -10.087  12.922  1.00  0.00     0.034 C 
HETATM   38  C   UNL     1      42.606 -10.093  14.242  1.00  0.00     0.010 C 
ENDBRANCH  35  37
ENDBRANCH   4  28
TORSDOF 11
ENDMDL
MODEL 10
REMARK VINA RESULT:      -8.1      4.344      7.320
REMARK  11 active torsions:
REMARK  status: ('A' for Active; 'I' for Inactive)
REMARK    1  A    between atoms: C_2  and  C_3 
REMARK    2  A    between atoms: C_3  and  C_4 
REMARK    3  A    between atoms: C_4  and  O_5 
REMARK    4  A    between atoms: O_5  and  C_6 
REMARK    5  A    between atoms: C_8  and  C_9 
REMARK       I    between atoms: C_9  and  N_10 
REMARK    6  A    between atoms: N_10  and  C_11 
REMARK    7  A    between atoms: C_11  and  N_12 
REMARK    8  A    between atoms: N_12  and  C_13 
REMARK    9  A    between atoms: C_15  and  O_16 
REMARK   10  A    between atoms: C_17  and  C_18 
REMARK   11  A    between atoms: C_25  and  C_26 
ROOT
HETATM    1  C   UNL     1      40.731 -12.471   4.798  1.00  0.00     0.036 C 
HETATM    2  C   UNL     1      40.199 -13.705   5.171  1.00  0.00     0.067 C 
HETATM    3  C   UNL     1      40.988 -14.857   5.149  1.00  0.00     0.082 C 
HETATM    4  C   UNL     1      42.333 -14.794   4.767  1.00  0.00     0.050 C 
HETATM    5  C   UNL     1      42.898 -13.520   4.574  1.00  0.00     0.021 C 
HETATM    6  C   UNL     1      42.107 -12.364   4.604  1.00  0.00     0.030 C 
ENDROOT
BRANCH   1   7
HETATM    7  N   UNL     1      39.931 -11.330   4.573  1.00  0.00    -0.333 N 
HETATM    8  H   UNL     1      39.981 -10.597   5.282  1.00  0.00     0.168 HD
BRANCH   7   9
HETATM    9  C   UNL     1      39.379 -10.913   3.381  1.00  0.00     0.179 C 
HETATM   10  S   UNL     1      37.856 -10.288   3.062  1.00  0.00    -0.040 SA
BRANCH   9  11
HETATM   11  N   UNL     1      40.172 -11.075   2.265  1.00  0.00    -0.299 N 
HETATM   12  C   UNL     1      40.935 -10.163   1.553  1.00  0.00     0.257 C 
HETATM   13  O   UNL     1      40.975  -8.958   1.773  1.00  0.00    -0.267 OA
HETATM   14  H   UNL     1      40.181 -12.037   1.954  1.00  0.00     0.171 HD
BRANCH  12  15
HETATM   15  C   UNL     1      41.697 -10.778   0.433  1.00  0.00     0.035 A 
HETATM   16  C   UNL     1      41.429 -12.095   0.037  1.00  0.00     0.053 A 
HETATM   17  C   UNL     1      42.050 -12.612  -1.097  1.00  0.00     0.069 A 
HETATM   18  C   UNL     1      42.990 -11.854  -1.791  1.00  0.00     0.037 A 
HETATM   19  C   UNL     1      43.285 -10.555  -1.373  1.00  0.00     0.004 A 
HETATM   20  C   UNL     1      42.637 -10.011  -0.260  1.00  0.00     0.017 A 
BRANCH  17  21
HETATM   21  O   UNL     1      41.793 -13.884  -1.524  1.00  0.00    -0.351 OA
BRANCH  21  22
HETATM   22  C   UNL     1      40.641 -14.453  -0.882  1.00  0.00     0.175 C 
BRANCH  22  23
HETATM   23  C   UNL     1      41.049 -15.584   0.063  1.00  0.00     0.026 C 
BRANCH  23  24
HETATM   24  C   UNL     1      40.568 -15.352   1.496  1.00  0.00    -0.002 C 
HETATM   25  C   UNL     1      39.134 -14.842   1.522  1.00  0.00     0.005 C 
ENDBRANCH  23  24
ENDBRANCH  22  23
ENDBRANCH  21  22
ENDBRANCH  17  21
ENDBRANCH  12  15
ENDBRANCH   9  11
ENDBRANCH   7   9
ENDBRANCH   1   7
BRANCH   3  26
HETATM   26  O   UNL     1      40.404 -16.051   5.477  1.00  0.00    -0.360 OA
HETATM   27  H   UNL     1      39.976 -15.972   6.346  1.00  0.00     0.217 HD
ENDBRANCH   3  26
BRANCH   4  28
HETATM   28  C   UNL     1      43.127 -15.971   4.402  1.00  0.00     0.183 A 
HETATM   29  O   UNL     1      43.560 -16.761   5.438  1.00  0.00    -0.289 OA
HETATM   30  C   UNL     1      43.931 -17.925   4.844  1.00  0.00     0.106 A 
HETATM   31  C   UNL     1      43.748 -17.779   3.482  1.00  0.00     0.094 A 
HETATM   32  C   UNL     1      44.355 -19.086   5.474  1.00  0.00     0.040 A 
HETATM   33  N   UNL     1      43.275 -16.519   3.205  1.00  0.00    -0.221 NA
HETATM   34  C   UNL     1      43.992 -18.878   2.648  1.00  0.00     0.041 A 
HETATM   35  C   UNL     1      44.379 -20.098   3.240  1.00  0.00    -0.056 A 
HETATM   36  C   UNL     1      44.563 -20.185   4.634  1.00  0.00     0.010 A 
BRANCH  35  37
HETATM   37  C   UNL     1      44.519 -21.333   2.384  1.00  0.00     0.034 C 
HETATM   38  C   UNL     1      44.567 -22.594   3.236  1.00  0.00     0.010 C 
ENDBRANCH  35  37
ENDBRANCH   4  28
TORSDOF 11
ENDMDL
