MODEL 1
REMARK VINA RESULT:      -9.0      0.000      0.000
REMARK  3 active torsions:
REMARK  status: ('A' for Active; 'I' for Inactive)
REMARK    1  A    between atoms: C_5  and  N_6 
REMARK       I    between atoms: N_6  and  C_7 
REMARK    2  A    between atoms: C_7  and  C_8 
REMARK    3  A    between atoms: C_8  and  N_9 
ROOT
HETATM    1  N   UNL     1      44.342 -13.936   7.883  1.00  0.00    -0.367 N 
HETATM    2  C   UNL     1      43.786 -14.497   6.826  1.00  0.00     0.108 C 
HETATM    3  C   UNL     1      43.620 -15.972   6.768  1.00  0.00     0.014 A 
HETATM    4  C   UNL     1      43.366 -16.581   5.522  1.00  0.00    -0.042 A 
HETATM    5  C   UNL     1      43.217 -17.971   5.421  1.00  0.00     0.008 A 
HETATM    6  C   UNL     1      43.282 -18.762   6.563  1.00  0.00     0.001 A 
HETATM    7  C   UNL     1      43.501 -18.174   7.805  1.00  0.00     0.001 A 
HETATM    8  C   UNL     1      43.668 -16.790   7.909  1.00  0.00     0.016 A 
HETATM    9  C   UNL     1      43.295 -15.720   4.287  1.00  0.00     0.069 C 
HETATM   10  C   UNL     1      42.702 -14.333   4.599  1.00  0.00     0.028 C 
HETATM   11  C   UNL     1      42.983 -13.375   3.435  1.00  0.00     0.038 C 
HETATM   12  C   UNL     1      41.194 -14.384   4.871  1.00  0.00     0.038 C 
HETATM   13  N   UNL     1      43.358 -13.760   5.807  1.00  0.00    -0.367 N 
HETATM   14  H   UNL     1      43.490 -12.761   5.837  1.00  0.00     0.162 HD
HETATM   15  H   UNL     1      44.749 -14.539   8.601  1.00  0.00     0.161 HD
ENDROOT
BRANCH   1  16
HETATM   16  C   UNL     1      44.473 -12.500   8.170  1.00  0.00     0.224 C 
BRANCH  16  17
HETATM   17  C   UNL     1      44.298 -12.320   9.676  1.00  0.00     0.239 C 
HETATM   18  N   UNL     1      43.246 -11.490  10.013  1.00  0.00    -0.326 N 
HETATM   19  H   UNL     1      42.599 -11.207   9.287  1.00  0.00     0.169 HD
HETATM   20  O   UNL     1      45.051 -12.924  10.439  1.00  0.00    -0.271 OA
BRANCH  18  21
HETATM   21  C   UNL     1      42.901 -11.035  11.304  1.00  0.00     0.034 A 
HETATM   22  C   UNL     1      41.770 -11.454  12.003  1.00  0.00     0.030 A 
HETATM   23  C   UNL     1      41.527 -10.986  13.300  1.00  0.00     0.009 A 
HETATM   24  C   UNL     1      42.407 -10.089  13.913  1.00  0.00    -0.062 A 
HETATM   25  C   UNL     1      42.160  -9.585  15.304  1.00  0.00     0.048 C 
HETATM   26  C   UNL     1      43.535  -9.662  13.207  1.00  0.00     0.009 A 
HETATM   27  C   UNL     1      43.784 -10.136  11.918  1.00  0.00     0.030 A 
ENDBRANCH  18  21
ENDBRANCH  16  17
ENDBRANCH   1  16
TORSDOF 3
ENDMDL
MODEL 2
REMARK VINA RESULT:      -9.0      6.212      9.007
REMARK  3 active torsions:
REMARK  status: ('A' for Active; 'I' for Inactive)
REMARK    1  A    between atoms: C_5  and  N_6 
REMARK       I    between atoms: N_6  and  C_7 
REMARK    2  A    between atoms: C_7  and  C_8 
REMARK    3  A    between atoms: C_8  and  N_9 
ROOT
HETATM    1  N   UNL     1      41.631 -17.093   4.433  1.00  0.00    -0.367 N 
HETATM    2  C   UNL     1      42.614 -17.846   4.889  1.00  0.00     0.108 C 
HETATM    3  C   UNL     1      43.237 -18.868   4.009  1.00  0.00     0.014 A 
HETATM    4  C   UNL     1      44.016 -19.888   4.595  1.00  0.00    -0.042 A 
HETATM    5  C   UNL     1      44.610 -20.879   3.803  1.00  0.00     0.008 A 
HETATM    6  C   UNL     1      44.464 -20.845   2.420  1.00  0.00     0.001 A 
HETATM    7  C   UNL     1      43.725 -19.828   1.823  1.00  0.00     0.001 A 
HETATM    8  C   UNL     1      43.116 -18.845   2.610  1.00  0.00     0.016 A 
HETATM    9  C   UNL     1      44.172 -19.921   6.094  1.00  0.00     0.069 C 
HETATM   10  C   UNL     1      44.191 -18.501   6.691  1.00  0.00     0.028 C 
HETATM   11  C   UNL     1      43.977 -18.575   8.208  1.00  0.00     0.038 C 
HETATM   12  C   UNL     1      45.494 -17.752   6.390  1.00  0.00     0.038 C 
HETATM   13  N   UNL     1      43.070 -17.699   6.128  1.00  0.00    -0.367 N 
HETATM   14  H   UNL     1      42.633 -17.019   6.732  1.00  0.00     0.162 HD
HETATM   15  H   UNL     1      41.241 -17.302   3.512  1.00  0.00     0.161 HD
ENDROOT
BRANCH   1  16
HETATM   16  C   UNL     1      40.986 -15.957   5.108  1.00  0.00     0.224 C 
BRANCH  16  17
HETATM   17  C   UNL     1      40.483 -15.010   4.022  1.00  0.00     0.239 C 
HETATM   18  N   UNL     1      39.969 -15.662   2.917  1.00  0.00    -0.326 N 
HETATM   19  H   UNL     1      39.818 -16.663   2.970  1.00  0.00     0.169 HD
HETATM   20  O   UNL     1      40.542 -13.797   4.216  1.00  0.00    -0.271 OA
BRANCH  18  21
HETATM   21  C   UNL     1      39.538 -15.076   1.707  1.00  0.00     0.034 A 
HETATM   22  C   UNL     1      38.255 -14.571   1.499  1.00  0.00     0.030 A 
HETATM   23  C   UNL     1      37.924 -13.964   0.281  1.00  0.00     0.009 A 
HETATM   24  C   UNL     1      38.867 -13.860  -0.746  1.00  0.00    -0.062 A 
HETATM   25  C   UNL     1      38.525 -13.207  -2.053  1.00  0.00     0.048 C 
HETATM   26  C   UNL     1      40.149 -14.376  -0.539  1.00  0.00     0.009 A 
HETATM   27  C   UNL     1      40.483 -14.972   0.679  1.00  0.00     0.030 A 
ENDBRANCH  18  21
ENDBRANCH  16  17
ENDBRANCH   1  16
TORSDOF 3
ENDMDL
MODEL 3
REMARK VINA RESULT:      -8.7      6.249     10.301
REMARK  3 active torsions:
REMARK  status: ('A' for Active; 'I' for Inactive)
REMARK    1  A    between atoms: C_5  and  N_6 
REMARK       I    between atoms: N_6  and  C_7 
REMARK    2  A    between atoms: C_7  and  C_8 
REMARK    3  A    between atoms: C_8  and  N_9 
ROOT
HETATM    1  N   UNL     1      40.127 -16.343   1.796  1.00  0.00    -0.367 N 
HETATM    2  C   UNL     1      40.863 -16.707   2.830  1.00  0.00     0.108 C 
HETATM    3  C   UNL     1      42.031 -17.603   2.631  1.00  0.00     0.014 A 
HETATM    4  C   UNL     1      42.581 -18.263   3.749  1.00  0.00    -0.042 A 
HETATM    5  C   UNL     1      43.674 -19.128   3.603  1.00  0.00     0.008 A 
HETATM    6  C   UNL     1      44.252 -19.314   2.352  1.00  0.00     0.001 A 
HETATM    7  C   UNL     1      43.741 -18.646   1.243  1.00  0.00     0.001 A 
HETATM    8  C   UNL     1      42.640 -17.795   1.380  1.00  0.00     0.016 A 
HETATM    9  C   UNL     1      41.952 -18.058   5.103  1.00  0.00     0.069 C 
HETATM   10  C   UNL     1      41.389 -16.632   5.254  1.00  0.00     0.028 C 
HETATM   11  C   UNL     1      40.450 -16.571   6.464  1.00  0.00     0.038 C 
HETATM   12  C   UNL     1      42.490 -15.576   5.403  1.00  0.00     0.038 C 
HETATM   13  N   UNL     1      40.583 -16.275   4.054  1.00  0.00    -0.367 N 
HETATM   14  H   UNL     1      39.778 -15.684   4.192  1.00  0.00     0.162 HD
HETATM   15  H   UNL     1      40.311 -16.773   0.888  1.00  0.00     0.161 HD
ENDROOT
BRANCH   1  16
HETATM   16  C   UNL     1      39.023 -15.372   1.782  1.00  0.00     0.224 C 
BRANCH  16  17
HETATM   17  C   UNL     1      39.412 -14.256   0.814  1.00  0.00     0.239 C 
HETATM   18  N   UNL     1      39.928 -14.719  -0.381  1.00  0.00    -0.326 N 
HETATM   19  H   UNL     1      39.862 -15.709  -0.588  1.00  0.00     0.169 HD
HETATM   20  O   UNL     1      39.218 -13.087   1.145  1.00  0.00    -0.271 OA
BRANCH  18  21
HETATM   21  C   UNL     1      40.484 -13.946  -1.424  1.00  0.00     0.034 A 
HETATM   22  C   UNL     1      39.773 -13.524  -2.546  1.00  0.00     0.030 A 
HETATM   23  C   UNL     1      40.390 -12.721  -3.513  1.00  0.00     0.009 A 
HETATM   24  C   UNL     1      41.727 -12.334  -3.374  1.00  0.00    -0.062 A 
HETATM   25  C   UNL     1      42.397 -11.469  -4.400  1.00  0.00     0.048 C 
HETATM   26  C   UNL     1      42.441 -12.767  -2.254  1.00  0.00     0.009 A 
HETATM   27  C   UNL     1      41.823 -13.559  -1.284  1.00  0.00     0.030 A 
ENDBRANCH  18  21
ENDBRANCH  16  17
ENDBRANCH   1  16
TORSDOF 3
ENDMDL
MODEL 4
REMARK VINA RESULT:      -8.5      6.178     10.242
REMARK  3 active torsions:
REMARK  status: ('A' for Active; 'I' for Inactive)
REMARK    1  A    between atoms: C_5  and  N_6 
REMARK       I    between atoms: N_6  and  C_7 
REMARK    2  A    between atoms: C_7  and  C_8 
REMARK    3  A    between atoms: C_8  and  N_9 
ROOT
HETATM    1  N   UNL     1      43.362 -17.820   2.508  1.00  0.00    -0.367 N 
HETATM    2  C   UNL     1      43.693 -18.323   3.682  1.00  0.00     0.108 C 
HETATM    3  C   UNL     1      44.066 -19.756   3.798  1.00  0.00     0.014 A 
HETATM    4  C   UNL     1      44.067 -20.359   5.073  1.00  0.00    -0.042 A 
HETATM    5  C   UNL     1      44.399 -21.711   5.226  1.00  0.00     0.008 A 
HETATM    6  C   UNL     1      44.768 -22.466   4.117  1.00  0.00     0.001 A 
HETATM    7  C   UNL     1      44.802 -21.879   2.856  1.00  0.00     0.001 A 
HETATM    8  C   UNL     1      44.456 -20.534   2.696  1.00  0.00     0.016 A 
HETATM    9  C   UNL     1      43.668 -19.537   6.272  1.00  0.00     0.069 C 
HETATM   10  C   UNL     1      44.100 -18.066   6.117  1.00  0.00     0.028 C 
HETATM   11  C   UNL     1      43.370 -17.200   7.152  1.00  0.00     0.038 C 
HETATM   12  C   UNL     1      45.614 -17.877   6.264  1.00  0.00     0.038 C 
HETATM   13  N   UNL     1      43.711 -17.562   4.771  1.00  0.00    -0.367 N 
HETATM   14  H   UNL     1      43.439 -16.595   4.696  1.00  0.00     0.162 HD
HETATM   15  H   UNL     1      43.262 -18.455   1.714  1.00  0.00     0.161 HD
ENDROOT
BRANCH   1  16
HETATM   16  C   UNL     1      43.090 -16.412   2.181  1.00  0.00     0.224 C 
BRANCH  16  17
HETATM   17  C   UNL     1      41.900 -16.390   1.225  1.00  0.00     0.239 C 
HETATM   18  N   UNL     1      42.054 -15.505   0.175  1.00  0.00    -0.326 N 
HETATM   19  H   UNL     1      42.961 -15.078   0.028  1.00  0.00     0.169 HD
HETATM   20  O   UNL     1      40.954 -17.148   1.435  1.00  0.00    -0.271 OA
BRANCH  18  21
HETATM   21  C   UNL     1      41.091 -15.169  -0.802  1.00  0.00     0.034 A 
HETATM   22  C   UNL     1      41.067 -15.705  -2.089  1.00  0.00     0.030 A 
HETATM   23  C   UNL     1      40.048 -15.351  -2.983  1.00  0.00     0.009 A 
HETATM   24  C   UNL     1      39.045 -14.453  -2.604  1.00  0.00    -0.062 A 
HETATM   25  C   UNL     1      37.946 -14.070  -3.551  1.00  0.00     0.048 C 
HETATM   26  C   UNL     1      39.078 -13.909  -1.317  1.00  0.00     0.009 A 
HETATM   27  C   UNL     1      40.087 -14.270  -0.422  1.00  0.00     0.030 A 
ENDBRANCH  18  21
ENDBRANCH  16  17
ENDBRANCH   1  16
TORSDOF 3
ENDMDL
MODEL 5
REMARK VINA RESULT:      -8.3      8.201     10.713
REMARK  3 active torsions:
REMARK  status: ('A' for Active; 'I' for Inactive)
REMARK    1  A    between atoms: C_5  and  N_6 
REMARK       I    between atoms: N_6  and  C_7 
REMARK    2  A    between atoms: C_7  and  C_8 
REMARK    3  A    between atoms: C_8  and  N_9 
ROOT
HETATM    1  N   UNL     1      40.851 -15.712   0.619  1.00  0.00    -0.367 N 
HETATM    2  C   UNL     1      40.129 -14.986  -0.214  1.00  0.00     0.108 C 
HETATM    3  C   UNL     1      39.215 -13.940   0.313  1.00  0.00     0.014 A 
HETATM    4  C   UNL     1      38.205 -13.430  -0.529  1.00  0.00    -0.042 A 
HETATM    5  C   UNL     1      37.314 -12.454  -0.067  1.00  0.00     0.008 A 
HETATM    6  C   UNL     1      37.441 -11.950   1.223  1.00  0.00     0.001 A 
HETATM    7  C   UNL     1      38.450 -12.420   2.057  1.00  0.00     0.001 A 
HETATM    8  C   UNL     1      39.333 -13.407   1.607  1.00  0.00     0.016 A 
HETATM    9  C   UNL     1      38.072 -13.978  -1.927  1.00  0.00     0.069 C 
HETATM   10  C   UNL     1      39.443 -14.362  -2.516  1.00  0.00     0.028 C 
HETATM   11  C   UNL     1      39.245 -15.241  -3.757  1.00  0.00     0.038 C 
HETATM   12  C   UNL     1      40.291 -13.139  -2.881  1.00  0.00     0.038 C 
HETATM   13  N   UNL     1      40.213 -15.166  -1.527  1.00  0.00    -0.367 N 
HETATM   14  H   UNL     1      40.818 -15.889  -1.884  1.00  0.00     0.162 HD
HETATM   15  H   UNL     1      40.687 -15.616   1.622  1.00  0.00     0.161 HD
ENDROOT
BRANCH   1  16
HETATM   16  C   UNL     1      41.892 -16.694   0.279  1.00  0.00     0.224 C 
BRANCH  16  17
HETATM   17  C   UNL     1      42.158 -17.525   1.531  1.00  0.00     0.239 C 
HETATM   18  N   UNL     1      43.340 -18.239   1.478  1.00  0.00    -0.326 N 
HETATM   19  H   UNL     1      43.991 -18.045   0.726  1.00  0.00     0.169 HD
HETATM   20  O   UNL     1      41.354 -17.474   2.461  1.00  0.00    -0.271 OA
BRANCH  18  21
HETATM   21  C   UNL     1      43.807 -19.183   2.419  1.00  0.00     0.034 A 
HETATM   22  C   UNL     1      44.113 -18.878   3.744  1.00  0.00     0.030 A 
HETATM   23  C   UNL     1      44.528 -19.886   4.623  1.00  0.00     0.009 A 
HETATM   24  C   UNL     1      44.648 -21.209   4.189  1.00  0.00    -0.062 A 
HETATM   25  C   UNL     1      45.086 -22.298   5.123  1.00  0.00     0.048 C 
HETATM   26  C   UNL     1      44.350 -21.512   2.857  1.00  0.00     0.009 A 
HETATM   27  C   UNL     1      43.926 -20.509   1.982  1.00  0.00     0.030 A 
ENDBRANCH  18  21
ENDBRANCH  16  17
ENDBRANCH   1  16
TORSDOF 3
ENDMDL
MODEL 6
REMARK VINA RESULT:      -8.2      1.474      3.398
REMARK  3 active torsions:
REMARK  status: ('A' for Active; 'I' for Inactive)
REMARK    1  A    between atoms: C_5  and  N_6 
REMARK       I    between atoms: N_6  and  C_7 
REMARK    2  A    between atoms: C_7  and  C_8 
REMARK    3  A    between atoms: C_8  and  N_9 
ROOT
HETATM    1  N   UNL     1      43.961 -13.075   7.125  1.00  0.00    -0.367 N 
HETATM    2  C   UNL     1      43.279 -14.104   6.659  1.00  0.00     0.108 C 
HETATM    3  C   UNL     1      42.210 -13.891   5.650  1.00  0.00     0.014 A 
HETATM    4  C   UNL     1      41.266 -14.916   5.430  1.00  0.00    -0.042 A 
HETATM    5  C   UNL     1      40.234 -14.751   4.498  1.00  0.00     0.008 A 
HETATM    6  C   UNL     1      40.152 -13.581   3.750  1.00  0.00     0.001 A 
HETATM    7  C   UNL     1      41.093 -12.572   3.932  1.00  0.00     0.001 A 
HETATM    8  C   UNL     1      42.116 -12.725   4.873  1.00  0.00     0.016 A 
HETATM    9  C   UNL     1      41.359 -16.183   6.241  1.00  0.00     0.069 C 
HETATM   10  C   UNL     1      42.822 -16.542   6.563  1.00  0.00     0.028 C 
HETATM   11  C   UNL     1      42.864 -17.596   7.675  1.00  0.00     0.038 C 
HETATM   12  C   UNL     1      43.586 -17.056   5.337  1.00  0.00     0.038 C 
HETATM   13  N   UNL     1      43.540 -15.340   7.070  1.00  0.00    -0.367 N 
HETATM   14  H   UNL     1      44.252 -15.482   7.770  1.00  0.00     0.162 HD
HETATM   15  H   UNL     1      43.666 -12.133   6.863  1.00  0.00     0.161 HD
ENDROOT
BRANCH   1  16
HETATM   16  C   UNL     1      45.126 -13.105   8.022  1.00  0.00     0.224 C 
BRANCH  16  17
HETATM   17  C   UNL     1      45.009 -11.904   8.957  1.00  0.00     0.239 C 
HETATM   18  N   UNL     1      43.905 -11.957   9.787  1.00  0.00    -0.326 N 
HETATM   19  H   UNL     1      43.372 -12.817   9.831  1.00  0.00     0.169 HD
HETATM   20  O   UNL     1      45.882 -11.038   8.925  1.00  0.00    -0.271 OA
BRANCH  18  21
HETATM   21  C   UNL     1      43.458 -10.953  10.673  1.00  0.00     0.034 A 
HETATM   22  C   UNL     1      43.959 -10.770  11.960  1.00  0.00     0.030 A 
HETATM   23  C   UNL     1      43.490  -9.718  12.758  1.00  0.00     0.009 A 
HETATM   24  C   UNL     1      42.510  -8.842  12.282  1.00  0.00    -0.062 A 
HETATM   25  C   UNL     1      42.004  -7.709  13.125  1.00  0.00     0.048 C 
HETATM   26  C   UNL     1      42.001  -9.034  10.995  1.00  0.00     0.009 A 
HETATM   27  C   UNL     1      42.476 -10.075  10.195  1.00  0.00     0.030 A 
ENDBRANCH  18  21
ENDBRANCH  16  17
ENDBRANCH   1  16
TORSDOF 3
ENDMDL
MODEL 7
REMARK VINA RESULT:      -8.2      7.162      9.858
REMARK  3 active torsions:
REMARK  status: ('A' for Active; 'I' for Inactive)
REMARK    1  A    between atoms: C_5  and  N_6 
REMARK       I    between atoms: N_6  and  C_7 
REMARK    2  A    between atoms: C_7  and  C_8 
REMARK    3  A    between atoms: C_8  and  N_9 
ROOT
HETATM    1  N   UNL     1      41.609 -13.705   0.663  1.00  0.00    -0.367 N 
HETATM    2  C   UNL     1      40.391 -13.653   0.157  1.00  0.00     0.108 C 
HETATM    3  C   UNL     1      40.110 -14.264  -1.167  1.00  0.00     0.014 A 
HETATM    4  C   UNL     1      38.930 -13.900  -1.849  1.00  0.00    -0.042 A 
HETATM    5  C   UNL     1      38.634 -14.442  -3.106  1.00  0.00     0.008 A 
HETATM    6  C   UNL     1      39.489 -15.377  -3.680  1.00  0.00     0.001 A 
HETATM    7  C   UNL     1      40.642 -15.770  -3.008  1.00  0.00     0.001 A 
HETATM    8  C   UNL     1      40.952 -15.220  -1.760  1.00  0.00     0.016 A 
HETATM    9  C   UNL     1      38.005 -12.888  -1.223  1.00  0.00     0.069 C 
HETATM   10  C   UNL     1      38.002 -13.001   0.314  1.00  0.00     0.028 C 
HETATM   11  C   UNL     1      37.360 -11.748   0.923  1.00  0.00     0.038 C 
HETATM   12  C   UNL     1      37.266 -14.250   0.811  1.00  0.00     0.038 C 
HETATM   13  N   UNL     1      39.400 -13.069   0.821  1.00  0.00    -0.367 N 
HETATM   14  H   UNL     1      39.595 -12.637   1.710  1.00  0.00     0.162 HD
HETATM   15  H   UNL     1      42.366 -14.072   0.082  1.00  0.00     0.161 HD
ENDROOT
BRANCH   1  16
HETATM   16  C   UNL     1      42.042 -13.273   2.000  1.00  0.00     0.224 C 
BRANCH  16  17
HETATM   17  C   UNL     1      42.946 -14.369   2.560  1.00  0.00     0.239 C 
HETATM   18  N   UNL     1      42.513 -15.646   2.261  1.00  0.00    -0.326 N 
HETATM   19  H   UNL     1      41.762 -15.760   1.590  1.00  0.00     0.169 HD
HETATM   20  O   UNL     1      43.959 -14.046   3.179  1.00  0.00    -0.271 OA
BRANCH  18  21
HETATM   21  C   UNL     1      43.059 -16.861   2.729  1.00  0.00     0.034 A 
HETATM   22  C   UNL     1      43.739 -17.773   1.923  1.00  0.00     0.030 A 
HETATM   23  C   UNL     1      44.289 -18.935   2.479  1.00  0.00     0.009 A 
HETATM   24  C   UNL     1      44.162 -19.203   3.846  1.00  0.00    -0.062 A 
HETATM   25  C   UNL     1      44.752 -20.441   4.454  1.00  0.00     0.048 C 
HETATM   26  C   UNL     1      43.471 -18.293   4.650  1.00  0.00     0.009 A 
HETATM   27  C   UNL     1      42.931 -17.129   4.098  1.00  0.00     0.030 A 
ENDBRANCH  18  21
ENDBRANCH  16  17
ENDBRANCH   1  16
TORSDOF 3
ENDMDL
MODEL 8
REMARK VINA RESULT:      -8.2      2.352      8.313
REMARK  3 active torsions:
REMARK  status: ('A' for Active; 'I' for Inactive)
REMARK    1  A    between atoms: C_5  and  N_6 
REMARK       I    between atoms: N_6  and  C_7 
REMARK    2  A    between atoms: C_7  and  C_8 
REMARK    3  A    between atoms: C_8  and  N_9 
ROOT
HETATM    1  N   UNL     1      43.584 -11.749   8.673  1.00  0.00    -0.367 N 
HETATM    2  C   UNL     1      42.878 -11.069   9.556  1.00  0.00     0.108 C 
HETATM    3  C   UNL     1      41.617 -10.401   9.143  1.00  0.00     0.014 A 
HETATM    4  C   UNL     1      41.071  -9.402   9.975  1.00  0.00    -0.042 A 
HETATM    5  C   UNL     1      39.891  -8.737   9.616  1.00  0.00     0.008 A 
HETATM    6  C   UNL     1      39.226  -9.084   8.445  1.00  0.00     0.001 A 
HETATM    7  C   UNL     1      39.735 -10.088   7.627  1.00  0.00     0.001 A 
HETATM    8  C   UNL     1      40.921 -10.744   7.972  1.00  0.00     0.016 A 
HETATM    9  C   UNL     1      41.794  -9.030  11.244  1.00  0.00     0.069 C 
HETATM   10  C   UNL     1      42.503 -10.247  11.868  1.00  0.00     0.028 C 
HETATM   11  C   UNL     1      43.512  -9.775  12.921  1.00  0.00     0.038 C 
HETATM   12  C   UNL     1      41.522 -11.239  12.503  1.00  0.00     0.038 C 
HETATM   13  N   UNL     1      43.269 -10.979  10.822  1.00  0.00    -0.367 N 
HETATM   14  H   UNL     1      44.135 -11.416  11.098  1.00  0.00     0.162 HD
HETATM   15  H   UNL     1      43.306 -11.713   7.691  1.00  0.00     0.161 HD
ENDROOT
BRANCH   1  16
HETATM   16  C   UNL     1      44.776 -12.573   8.924  1.00  0.00     0.224 C 
BRANCH  16  17
HETATM   17  C   UNL     1      44.963 -13.482   7.711  1.00  0.00     0.239 C 
HETATM   18  N   UNL     1      43.944 -14.401   7.549  1.00  0.00    -0.326 N 
HETATM   19  H   UNL     1      43.109 -14.305   8.116  1.00  0.00     0.169 HD
HETATM   20  O   UNL     1      45.944 -13.314   6.988  1.00  0.00    -0.271 OA
BRANCH  18  21
HETATM   21  C   UNL     1      43.884 -15.446   6.602  1.00  0.00     0.034 A 
HETATM   22  C   UNL     1      44.327 -16.745   6.845  1.00  0.00     0.030 A 
HETATM   23  C   UNL     1      44.189 -17.735   5.863  1.00  0.00     0.009 A 
HETATM   24  C   UNL     1      43.612 -17.437   4.625  1.00  0.00    -0.062 A 
HETATM   25  C   UNL     1      43.454 -18.489   3.567  1.00  0.00     0.048 C 
HETATM   26  C   UNL     1      43.179 -16.131   4.379  1.00  0.00     0.009 A 
HETATM   27  C   UNL     1      43.307 -15.147   5.361  1.00  0.00     0.030 A 
ENDBRANCH  18  21
ENDBRANCH  16  17
ENDBRANCH   1  16
TORSDOF 3
ENDMDL
MODEL 9
REMARK VINA RESULT:      -8.1      1.485      1.868
REMARK  3 active torsions:
REMARK  status: ('A' for Active; 'I' for Inactive)
REMARK    1  A    between atoms: C_5  and  N_6 
REMARK       I    between atoms: N_6  and  C_7 
REMARK    2  A    between atoms: C_7  and  C_8 
REMARK    3  A    between atoms: C_8  and  N_9 
ROOT
HETATM    1  N   UNL     1      44.088 -14.839   6.493  1.00  0.00    -0.367 N 
HETATM    2  C   UNL     1      43.642 -15.648   5.551  1.00  0.00     0.108 C 
HETATM    3  C   UNL     1      43.809 -17.117   5.693  1.00  0.00     0.014 A 
HETATM    4  C   UNL     1      43.663 -17.933   4.553  1.00  0.00    -0.042 A 
HETATM    5  C   UNL     1      43.826 -19.322   4.640  1.00  0.00     0.008 A 
HETATM    6  C   UNL     1      44.098 -19.914   5.869  1.00  0.00     0.001 A 
HETATM    7  C   UNL     1      44.215 -19.127   7.010  1.00  0.00     0.001 A 
HETATM    8  C   UNL     1      44.070 -17.739   6.925  1.00  0.00     0.016 A 
HETATM    9  C   UNL     1      43.366 -17.288   3.223  1.00  0.00     0.069 C 
HETATM   10  C   UNL     1      42.486 -16.034   3.389  1.00  0.00     0.028 C 
HETATM   11  C   UNL     1      42.512 -15.209   2.096  1.00  0.00     0.038 C 
HETATM   12  C   UNL     1      41.036 -16.375   3.752  1.00  0.00     0.038 C 
HETATM   13  N   UNL     1      43.031 -15.171   4.472  1.00  0.00    -0.367 N 
HETATM   14  H   UNL     1      42.936 -14.173   4.366  1.00  0.00     0.162 HD
HETATM   15  H   UNL     1      44.639 -15.233   7.257  1.00  0.00     0.161 HD
ENDROOT
BRANCH   1  16
HETATM   16  C   UNL     1      43.901 -13.383   6.584  1.00  0.00     0.224 C 
BRANCH  16  17
HETATM   17  C   UNL     1      43.999 -13.005   8.060  1.00  0.00     0.239 C 
HETATM   18  N   UNL     1      43.263 -11.883   8.392  1.00  0.00    -0.326 N 
HETATM   19  H   UNL     1      42.616 -11.508   7.709  1.00  0.00     0.169 HD
HETATM   20  O   UNL     1      44.669 -13.711   8.812  1.00  0.00    -0.271 OA
BRANCH  18  21
HETATM   21  C   UNL     1      43.241 -11.218   9.637  1.00  0.00     0.034 A 
HETATM   22  C   UNL     1      42.074 -10.836  10.297  1.00  0.00     0.030 A 
HETATM   23  C   UNL     1      42.142 -10.219  11.553  1.00  0.00     0.009 A 
HETATM   24  C   UNL     1      43.376  -9.971  12.161  1.00  0.00    -0.062 A 
HETATM   25  C   UNL     1      43.460  -9.316  13.508  1.00  0.00     0.048 C 
HETATM   26  C   UNL     1      44.545 -10.344  11.494  1.00  0.00     0.009 A 
HETATM   27  C   UNL     1      44.478 -10.969  10.246  1.00  0.00     0.030 A 
ENDBRANCH  18  21
ENDBRANCH  16  17
ENDBRANCH   1  16
TORSDOF 3
ENDMDL
MODEL 10
REMARK VINA RESULT:      -8.0      4.014      9.210
REMARK  3 active torsions:
REMARK  status: ('A' for Active; 'I' for Inactive)
REMARK    1  A    between atoms: C_5  and  N_6 
REMARK       I    between atoms: N_6  and  C_7 
REMARK    2  A    between atoms: C_7  and  C_8 
REMARK    3  A    between atoms: C_8  and  N_9 
ROOT
HETATM    1  N   UNL     1      41.999 -14.963   5.075  1.00  0.00    -0.367 N 
HETATM    2  C   UNL     1      41.364 -13.812   5.198  1.00  0.00     0.108 C 
HETATM    3  C   UNL     1      40.443 -13.354   4.127  1.00  0.00     0.014 A 
HETATM    4  C   UNL     1      40.058 -11.997   4.095  1.00  0.00    -0.042 A 
HETATM    5  C   UNL     1      39.202 -11.520   3.094  1.00  0.00     0.008 A 
HETATM    6  C   UNL     1      38.693 -12.394   2.139  1.00  0.00     0.001 A 
HETATM    7  C   UNL     1      39.038 -13.742   2.174  1.00  0.00     0.001 A 
HETATM    8  C   UNL     1      39.905 -14.220   3.161  1.00  0.00     0.016 A 
HETATM    9  C   UNL     1      40.610 -11.054   5.132  1.00  0.00     0.069 C 
HETATM   10  C   UNL     1      40.819 -11.761   6.485  1.00  0.00     0.028 C 
HETATM   11  C   UNL     1      41.709 -10.899   7.389  1.00  0.00     0.038 C 
HETATM   12  C   UNL     1      39.498 -12.064   7.201  1.00  0.00     0.038 C 
HETATM   13  N   UNL     1      41.525 -13.055   6.278  1.00  0.00    -0.367 N 
HETATM   14  H   UNL     1      42.166 -13.357   6.995  1.00  0.00     0.162 HD
HETATM   15  H   UNL     1      41.929 -15.468   4.190  1.00  0.00     0.161 HD
ENDROOT
BRANCH   1  16
HETATM   16  C   UNL     1      42.842 -15.632   6.077  1.00  0.00     0.224 C 
BRANCH  16  17
HETATM   17  C   UNL     1      42.948 -17.100   5.672  1.00  0.00     0.239 C 
HETATM   18  N   UNL     1      43.731 -17.308   4.552  1.00  0.00    -0.326 N 
HETATM   19  H   UNL     1      44.283 -16.537   4.196  1.00  0.00     0.169 HD
HETATM   20  O   UNL     1      42.381 -17.949   6.358  1.00  0.00    -0.271 OA
BRANCH  18  21
HETATM   21  C   UNL     1      43.927 -18.526   3.866  1.00  0.00     0.034 A 
HETATM   22  C   UNL     1      44.663 -19.597   4.370  1.00  0.00     0.030 A 
HETATM   23  C   UNL     1      44.770 -20.788   3.641  1.00  0.00     0.009 A 
HETATM   24  C   UNL     1      44.148 -20.921   2.396  1.00  0.00    -0.062 A 
HETATM   25  C   UNL     1      44.251 -22.194   1.607  1.00  0.00     0.048 C 
HETATM   26  C   UNL     1      43.420 -19.843   1.886  1.00  0.00     0.009 A 
HETATM   27  C   UNL     1      43.304 -18.659   2.618  1.00  0.00     0.030 A 
ENDBRANCH  18  21
ENDBRANCH  16  17
ENDBRANCH   1  16
TORSDOF 3
ENDMDL
