MODEL 1
REMARK VINA RESULT:      -7.0      0.000      0.000
REMARK  5 active torsions:
REMARK  status: ('A' for Active; 'I' for Inactive)
REMARK    1  A    between atoms: C_8  and  C_9 
REMARK    2  A    between atoms: C_11  and  O_12 
REMARK    3  A    between atoms: C_14  and  O_15 
REMARK    4  A    between atoms: C_18  and  C_19 
REMARK    5  A    between atoms: C_22  and  O_23 
ROOT
HETATM    1  C   UNL     1      40.957 -17.659   1.058  1.00  0.00     0.070 C 
HETATM    2  C   UNL     1      41.363 -16.238   0.957  1.00  0.00     0.033 A 
HETATM    3  N   UNL     1      41.662 -15.665  -0.252  1.00  0.00    -0.282 N 
HETATM    4  H   UNL     1      41.671 -16.103  -1.166  1.00  0.00     0.189 HD
HETATM    5  N   UNL     1      41.920 -14.350  -0.180  1.00  0.00    -0.179 NA
HETATM    6  C   UNL     1      41.849 -14.088   1.126  1.00  0.00     0.066 A 
HETATM    7  C   UNL     1      41.533 -15.238   1.898  1.00  0.00     0.001 A 
HETATM    8  C   UNL     1      41.308 -15.172   3.383  1.00  0.00     0.070 C 
HETATM    9  C   UNL     1      41.741 -13.811   3.996  1.00  0.00     0.102 C 
HETATM   10  C   UNL     1      41.382 -12.598   3.088  1.00  0.00     0.071 C 
HETATM   11  C   UNL     1      39.854 -12.437   2.972  1.00  0.00     0.047 C 
HETATM   12  C   UNL     1      42.022 -12.716   1.677  1.00  0.00     0.100 C 
ENDROOT
BRANCH   8  13
HETATM   13  C   UNL     1      41.901 -16.383   4.089  1.00  0.00    -0.046 A 
HETATM   14  C   UNL     1      43.044 -17.072   3.634  1.00  0.00     0.047 A 
HETATM   15  C   UNL     1      43.550 -18.163   4.344  1.00  0.00     0.101 A 
HETATM   16  C   UNL     1      42.963 -18.520   5.559  1.00  0.00     0.099 A 
HETATM   17  C   UNL     1      41.852 -17.849   6.043  1.00  0.00     0.040 A 
HETATM   18  C   UNL     1      41.319 -16.791   5.307  1.00  0.00     0.011 A 
BRANCH  15  19
HETATM   19  O   UNL     1      44.631 -18.914   3.960  1.00  0.00    -0.353 OA
HETATM   20  C   UNL     1      44.356 -19.827   2.898  1.00  0.00     0.210 C 
ENDBRANCH  15  19
BRANCH  16  21
HETATM   21  O   UNL     1      43.475 -19.552   6.294  1.00  0.00    -0.358 OA
HETATM   22  H   UNL     1      44.441 -19.408   6.287  1.00  0.00     0.218 HD
ENDBRANCH  16  21
ENDBRANCH   8  13
BRANCH   9  23
HETATM   23  C   UNL     1      43.233 -13.766   4.340  1.00  0.00     0.131 C 
HETATM   24  C   UNL     1      43.592 -13.852   5.803  1.00  0.00     0.091 C 
HETATM   25  O   UNL     1      44.112 -13.654   3.484  1.00  0.00    -0.298 OA
ENDBRANCH   9  23
BRANCH  10  26
HETATM   26  O   UNL     1      41.844 -11.403   3.742  1.00  0.00    -0.389 OA
HETATM   27  H   UNL     1      42.776 -11.263   3.491  1.00  0.00     0.210 HD
ENDBRANCH  10  26
TORSDOF 5
ENDMDL
MODEL 2
REMARK VINA RESULT:      -6.9      2.848      5.562
REMARK  5 active torsions:
REMARK  status: ('A' for Active; 'I' for Inactive)
REMARK    1  A    between atoms: C_8  and  C_9 
REMARK    2  A    between atoms: C_11  and  O_12 
REMARK    3  A    between atoms: C_14  and  O_15 
REMARK    4  A    between atoms: C_18  and  C_19 
REMARK    5  A    between atoms: C_22  and  O_23 
ROOT
HETATM    1  C   UNL     1      43.970 -18.321   1.400  1.00  0.00     0.070 C 
HETATM    2  C   UNL     1      43.814 -18.615   2.843  1.00  0.00     0.033 A 
HETATM    3  N   UNL     1      44.029 -19.873   3.343  1.00  0.00    -0.282 N 
HETATM    4  H   UNL     1      44.280 -20.714   2.834  1.00  0.00     0.189 HD
HETATM    5  N   UNL     1      43.935 -19.950   4.680  1.00  0.00    -0.179 NA
HETATM    6  C   UNL     1      43.584 -18.714   5.039  1.00  0.00     0.066 A 
HETATM    7  C   UNL     1      43.459 -17.835   3.929  1.00  0.00     0.001 A 
HETATM    8  C   UNL     1      43.163 -16.371   4.094  1.00  0.00     0.070 C 
HETATM    9  C   UNL     1      42.727 -16.005   5.539  1.00  0.00     0.102 C 
HETATM   10  C   UNL     1      43.532 -16.774   6.627  1.00  0.00     0.071 C 
HETATM   11  C   UNL     1      45.013 -16.349   6.613  1.00  0.00     0.047 C 
HETATM   12  C   UNL     1      43.410 -18.314   6.462  1.00  0.00     0.100 C 
ENDROOT
BRANCH   8  13
HETATM   13  C   UNL     1      42.210 -15.873   3.016  1.00  0.00    -0.046 A 
HETATM   14  C   UNL     1      42.429 -14.706   2.258  1.00  0.00     0.047 A 
HETATM   15  C   UNL     1      41.525 -14.319   1.266  1.00  0.00     0.101 A 
HETATM   16  C   UNL     1      40.438 -15.143   0.972  1.00  0.00     0.099 A 
HETATM   17  C   UNL     1      40.208 -16.309   1.685  1.00  0.00     0.040 A 
HETATM   18  C   UNL     1      41.086 -16.667   2.709  1.00  0.00     0.011 A 
BRANCH  15  19
HETATM   19  O   UNL     1      41.636 -13.184   0.504  1.00  0.00    -0.353 OA
HETATM   20  C   UNL     1      41.681 -11.977   1.265  1.00  0.00     0.210 C 
ENDBRANCH  15  19
BRANCH  16  21
HETATM   21  O   UNL     1      39.570 -14.809  -0.030  1.00  0.00    -0.358 OA
HETATM   22  H   UNL     1      39.297 -13.893   0.172  1.00  0.00     0.218 HD
ENDBRANCH  16  21
ENDBRANCH   8  13
BRANCH   9  23
HETATM   23  C   UNL     1      41.227 -16.213   5.774  1.00  0.00     0.131 C 
HETATM   24  C   UNL     1      40.367 -14.973   5.789  1.00  0.00     0.091 C 
HETATM   25  O   UNL     1      40.727 -17.325   5.953  1.00  0.00    -0.298 OA
ENDBRANCH   9  23
BRANCH  10  26
HETATM   26  O   UNL     1      43.032 -16.374   7.916  1.00  0.00    -0.389 OA
HETATM   27  H   UNL     1      43.772 -16.406   8.550  1.00  0.00     0.210 HD
ENDBRANCH  10  26
TORSDOF 5
ENDMDL
MODEL 3
REMARK VINA RESULT:      -6.9      1.561      2.401
REMARK  5 active torsions:
REMARK  status: ('A' for Active; 'I' for Inactive)
REMARK    1  A    between atoms: C_8  and  C_9 
REMARK    2  A    between atoms: C_11  and  O_12 
REMARK    3  A    between atoms: C_14  and  O_15 
REMARK    4  A    between atoms: C_18  and  C_19 
REMARK    5  A    between atoms: C_22  and  O_23 
ROOT
HETATM    1  C   UNL     1      40.349 -17.022   1.967  1.00  0.00     0.070 C 
HETATM    2  C   UNL     1      40.581 -15.609   2.347  1.00  0.00     0.033 A 
HETATM    3  N   UNL     1      40.295 -14.582   1.486  1.00  0.00    -0.282 N 
HETATM    4  H   UNL     1      39.937 -14.642   0.538  1.00  0.00     0.189 HD
HETATM    5  N   UNL     1      40.475 -13.362   2.016  1.00  0.00    -0.179 NA
HETATM    6  C   UNL     1      40.955 -13.619   3.234  1.00  0.00     0.066 A 
HETATM    7  C   UNL     1      41.076 -15.012   3.492  1.00  0.00     0.001 A 
HETATM    8  C   UNL     1      41.507 -15.546   4.830  1.00  0.00     0.070 C 
HETATM    9  C   UNL     1      42.073 -14.441   5.763  1.00  0.00     0.102 C 
HETATM   10  C   UNL     1      41.283 -13.103   5.666  1.00  0.00     0.071 C 
HETATM   11  C   UNL     1      39.847 -13.277   6.195  1.00  0.00     0.047 C 
HETATM   12  C   UNL     1      41.261 -12.544   4.216  1.00  0.00     0.100 C 
ENDROOT
BRANCH   8  13
HETATM   13  C   UNL     1      42.421 -16.753   4.676  1.00  0.00    -0.046 A 
HETATM   14  C   UNL     1      42.493 -17.803   5.614  1.00  0.00     0.047 A 
HETATM   15  C   UNL     1      43.337 -18.895   5.399  1.00  0.00     0.101 A 
HETATM   16  C   UNL     1      44.053 -18.982   4.204  1.00  0.00     0.099 A 
HETATM   17  C   UNL     1      43.985 -17.976   3.253  1.00  0.00     0.040 A 
HETATM   18  C   UNL     1      43.180 -16.863   3.493  1.00  0.00     0.011 A 
BRANCH  15  19
HETATM   19  O   UNL     1      43.500 -19.942   6.269  1.00  0.00    -0.353 OA
HETATM   20  C   UNL     1      43.820 -19.544   7.602  1.00  0.00     0.210 C 
ENDBRANCH  15  19
BRANCH  16  21
HETATM   21  O   UNL     1      44.844 -20.068   3.951  1.00  0.00    -0.358 OA
HETATM   22  H   UNL     1      44.219 -20.785   3.726  1.00  0.00     0.218 HD
ENDBRANCH  16  21
ENDBRANCH   8  13
BRANCH   9  23
HETATM   23  C   UNL     1      43.562 -14.172   5.524  1.00  0.00     0.131 C 
HETATM   24  C   UNL     1      44.511 -14.608   6.613  1.00  0.00     0.091 C 
HETATM   25  O   UNL     1      43.986 -13.619   4.507  1.00  0.00    -0.298 OA
ENDBRANCH   9  23
BRANCH  10  26
HETATM   26  O   UNL     1      41.905 -12.155   6.551  1.00  0.00    -0.389 OA
HETATM   27  H   UNL     1      42.811 -11.991   6.231  1.00  0.00     0.210 HD
ENDBRANCH  10  26
TORSDOF 5
ENDMDL
MODEL 4
REMARK VINA RESULT:      -6.8      1.741      2.123
REMARK  5 active torsions:
REMARK  status: ('A' for Active; 'I' for Inactive)
REMARK    1  A    between atoms: C_8  and  C_9 
REMARK    2  A    between atoms: C_11  and  O_12 
REMARK    3  A    between atoms: C_14  and  O_15 
REMARK    4  A    between atoms: C_18  and  C_19 
REMARK    5  A    between atoms: C_22  and  O_23 
ROOT
HETATM    1  C   UNL     1      39.927 -16.529   1.955  1.00  0.00     0.070 C 
HETATM    2  C   UNL     1      40.268 -15.157   2.397  1.00  0.00     0.033 A 
HETATM    3  N   UNL     1      40.036 -14.070   1.594  1.00  0.00    -0.282 N 
HETATM    4  H   UNL     1      39.653 -14.056   0.655  1.00  0.00     0.189 HD
HETATM    5  N   UNL     1      40.314 -12.894   2.179  1.00  0.00    -0.179 NA
HETATM    6  C   UNL     1      40.803 -13.245   3.369  1.00  0.00     0.066 A 
HETATM    7  C   UNL     1      40.830 -14.654   3.557  1.00  0.00     0.001 A 
HETATM    8  C   UNL     1      41.253 -15.283   4.854  1.00  0.00     0.070 C 
HETATM    9  C   UNL     1      41.918 -14.269   5.825  1.00  0.00     0.102 C 
HETATM   10  C   UNL     1      41.223 -12.876   5.814  1.00  0.00     0.071 C 
HETATM   11  C   UNL     1      39.791 -12.976   6.372  1.00  0.00     0.047 C 
HETATM   12  C   UNL     1      41.208 -12.244   4.394  1.00  0.00     0.100 C 
ENDROOT
BRANCH   8  13
HETATM   13  C   UNL     1      42.075 -16.543   4.618  1.00  0.00    -0.046 A 
HETATM   14  C   UNL     1      42.861 -16.759   3.468  1.00  0.00     0.047 A 
HETATM   15  C   UNL     1      43.611 -17.929   3.326  1.00  0.00     0.101 A 
HETATM   16  C   UNL     1      43.642 -18.852   4.372  1.00  0.00     0.099 A 
HETATM   17  C   UNL     1      42.897 -18.657   5.524  1.00  0.00     0.040 A 
HETATM   18  C   UNL     1      42.110 -17.511   5.642  1.00  0.00     0.011 A 
BRANCH  15  19
HETATM   19  O   UNL     1      44.374 -18.241   2.230  1.00  0.00    -0.353 OA
HETATM   20  C   UNL     1      43.882 -17.696   1.007  1.00  0.00     0.210 C 
ENDBRANCH  15  19
BRANCH  16  21
HETATM   21  O   UNL     1      44.411 -19.978   4.273  1.00  0.00    -0.358 OA
HETATM   22  H   UNL     1      43.777 -20.719   4.341  1.00  0.00     0.218 HD
ENDBRANCH  16  21
ENDBRANCH   8  13
BRANCH   9  23
HETATM   23  C   UNL     1      43.417 -14.093   5.560  1.00  0.00     0.131 C 
HETATM   24  C   UNL     1      44.357 -14.632   6.610  1.00  0.00     0.091 C 
HETATM   25  O   UNL     1      43.855 -13.534   4.553  1.00  0.00    -0.298 OA
ENDBRANCH   9  23
BRANCH  10  26
HETATM   26  O   UNL     1      41.931 -12.019   6.728  1.00  0.00    -0.389 OA
HETATM   27  H   UNL     1      41.272 -11.525   7.250  1.00  0.00     0.210 HD
ENDBRANCH  10  26
TORSDOF 5
ENDMDL
MODEL 5
REMARK VINA RESULT:      -6.4      3.030      5.232
REMARK  5 active torsions:
REMARK  status: ('A' for Active; 'I' for Inactive)
REMARK    1  A    between atoms: C_8  and  C_9 
REMARK    2  A    between atoms: C_11  and  O_12 
REMARK    3  A    between atoms: C_14  and  O_15 
REMARK    4  A    between atoms: C_18  and  C_19 
REMARK    5  A    between atoms: C_22  and  O_23 
ROOT
HETATM    1  C   UNL     1      43.602 -17.685   1.933  1.00  0.00     0.070 C 
HETATM    2  C   UNL     1      43.626 -17.436   3.393  1.00  0.00     0.033 A 
HETATM    3  N   UNL     1      43.899 -18.441   4.285  1.00  0.00    -0.282 N 
HETATM    4  H   UNL     1      44.083 -19.419   4.087  1.00  0.00     0.189 HD
HETATM    5  N   UNL     1      43.973 -18.030   5.560  1.00  0.00    -0.179 NA
HETATM    6  C   UNL     1      43.672 -16.733   5.488  1.00  0.00     0.066 A 
HETATM    7  C   UNL     1      43.412 -16.304   4.159  1.00  0.00     0.001 A 
HETATM    8  C   UNL     1      43.142 -14.865   3.818  1.00  0.00     0.070 C 
HETATM    9  C   UNL     1      42.890 -13.987   5.074  1.00  0.00     0.102 C 
HETATM   10  C   UNL     1      43.823 -14.354   6.265  1.00  0.00     0.071 C 
HETATM   11  C   UNL     1      45.292 -14.031   5.927  1.00  0.00     0.047 C 
HETATM   12  C   UNL     1      43.678 -15.843   6.682  1.00  0.00     0.100 C 
ENDROOT
BRANCH   8  13
HETATM   13  C   UNL     1      42.063 -14.741   2.751  1.00  0.00    -0.046 A 
HETATM   14  C   UNL     1      42.136 -13.846   1.665  1.00  0.00     0.047 A 
HETATM   15  C   UNL     1      41.121 -13.801   0.707  1.00  0.00     0.101 A 
HETATM   16  C   UNL     1      40.065 -14.710   0.786  1.00  0.00     0.099 A 
HETATM   17  C   UNL     1      39.976 -15.617   1.830  1.00  0.00     0.040 A 
HETATM   18  C   UNL     1      40.966 -15.626   2.813  1.00  0.00     0.011 A 
BRANCH  15  19
HETATM   19  O   UNL     1      41.089 -12.941  -0.361  1.00  0.00    -0.353 OA
HETATM   20  C   UNL     1      42.067 -13.222  -1.361  1.00  0.00     0.210 C 
ENDBRANCH  15  19
BRANCH  16  21
HETATM   21  O   UNL     1      39.088 -14.716  -0.170  1.00  0.00    -0.358 OA
HETATM   22  H   UNL     1      38.432 -15.368   0.148  1.00  0.00     0.218 HD
ENDBRANCH  16  21
ENDBRANCH   8  13
BRANCH   9  23
HETATM   23  C   UNL     1      41.431 -14.027   5.539  1.00  0.00     0.131 C 
HETATM   24  C   UNL     1      40.604 -12.792   5.276  1.00  0.00     0.091 C 
HETATM   25  O   UNL     1      40.939 -15.001   6.111  1.00  0.00    -0.298 OA
ENDBRANCH   9  23
BRANCH  10  26
HETATM   26  O   UNL     1      43.489 -13.496   7.371  1.00  0.00    -0.389 OA
HETATM   27  H   UNL     1      43.741 -12.585   7.133  1.00  0.00     0.210 HD
ENDBRANCH  10  26
TORSDOF 5
ENDMDL
MODEL 6
REMARK VINA RESULT:      -6.3      1.911      2.656
REMARK  5 active torsions:
REMARK  status: ('A' for Active; 'I' for Inactive)
REMARK    1  A    between atoms: C_8  and  C_9 
REMARK    2  A    between atoms: C_11  and  O_12 
REMARK    3  A    between atoms: C_14  and  O_15 
REMARK    4  A    between atoms: C_18  and  C_19 
REMARK    5  A    between atoms: C_22  and  O_23 
ROOT
HETATM    1  C   UNL     1      42.840 -18.339   2.523  1.00  0.00     0.070 C 
HETATM    2  C   UNL     1      42.422 -17.067   1.889  1.00  0.00     0.033 A 
HETATM    3  N   UNL     1      42.853 -16.718   0.635  1.00  0.00    -0.282 N 
HETATM    4  H   UNL     1      43.484 -17.229   0.027  1.00  0.00     0.189 HD
HETATM    5  N   UNL     1      42.311 -15.582   0.171  1.00  0.00    -0.179 NA
HETATM    6  C   UNL     1      41.560 -15.156   1.188  1.00  0.00     0.066 A 
HETATM    7  C   UNL     1      41.612 -16.027   2.309  1.00  0.00     0.001 A 
HETATM    8  C   UNL     1      40.777 -15.804   3.539  1.00  0.00     0.070 C 
HETATM    9  C   UNL     1      40.106 -14.403   3.563  1.00  0.00     0.102 C 
HETATM   10  C   UNL     1      39.586 -13.957   2.165  1.00  0.00     0.071 C 
HETATM   11  C   UNL     1      38.434 -14.866   1.696  1.00  0.00     0.047 C 
HETATM   12  C   UNL     1      40.720 -13.930   1.104  1.00  0.00     0.100 C 
ENDROOT
BRANCH   8  13
HETATM   13  C   UNL     1      41.553 -16.139   4.805  1.00  0.00    -0.046 A 
HETATM   14  C   UNL     1      42.842 -15.644   5.086  1.00  0.00     0.047 A 
HETATM   15  C   UNL     1      43.489 -15.973   6.280  1.00  0.00     0.101 A 
HETATM   16  C   UNL     1      42.814 -16.734   7.236  1.00  0.00     0.099 A 
HETATM   17  C   UNL     1      41.538 -17.217   6.998  1.00  0.00     0.040 A 
HETATM   18  C   UNL     1      40.914 -16.928   5.784  1.00  0.00     0.011 A 
BRANCH  15  19
HETATM   19  O   UNL     1      44.754 -15.568   6.622  1.00  0.00    -0.353 OA
HETATM   20  C   UNL     1      44.855 -14.178   6.926  1.00  0.00     0.210 C 
ENDBRANCH  15  19
BRANCH  16  21
HETATM   21  O   UNL     1      43.410 -17.023   8.432  1.00  0.00    -0.358 OA
HETATM   22  H   UNL     1      42.691 -17.381   8.988  1.00  0.00     0.218 HD
ENDBRANCH  16  21
ENDBRANCH   8  13
BRANCH   9  23
HETATM   23  C   UNL     1      41.024 -13.318   4.135  1.00  0.00     0.131 C 
HETATM   24  C   UNL     1      40.694 -12.813   5.518  1.00  0.00     0.091 C 
HETATM   25  O   UNL     1      41.983 -12.859   3.512  1.00  0.00    -0.298 OA
ENDBRANCH   9  23
BRANCH  10  26
HETATM   26  O   UNL     1      39.007 -12.647   2.304  1.00  0.00    -0.389 OA
HETATM   27  H   UNL     1      39.229 -12.312   3.192  1.00  0.00     0.210 HD
ENDBRANCH  10  26
TORSDOF 5
ENDMDL
MODEL 7
REMARK VINA RESULT:      -6.3      1.992      5.190
REMARK  5 active torsions:
REMARK  status: ('A' for Active; 'I' for Inactive)
REMARK    1  A    between atoms: C_8  and  C_9 
REMARK    2  A    between atoms: C_11  and  O_12 
REMARK    3  A    between atoms: C_14  and  O_15 
REMARK    4  A    between atoms: C_18  and  C_19 
REMARK    5  A    between atoms: C_22  and  O_23 
ROOT
HETATM    1  C   UNL     1      42.010 -12.175   1.101  1.00  0.00     0.070 C 
HETATM    2  C   UNL     1      41.780 -13.595   0.751  1.00  0.00     0.033 A 
HETATM    3  N   UNL     1      41.228 -13.954  -0.451  1.00  0.00    -0.282 N 
HETATM    4  H   UNL     1      40.904 -13.348  -1.197  1.00  0.00     0.189 HD
HETATM    5  N   UNL     1      41.173 -15.281  -0.649  1.00  0.00    -0.179 NA
HETATM    6  C   UNL     1      41.644 -15.786   0.491  1.00  0.00     0.066 A 
HETATM    7  C   UNL     1      42.013 -14.781   1.425  1.00  0.00     0.001 A 
HETATM    8  C   UNL     1      42.656 -15.106   2.745  1.00  0.00     0.070 C 
HETATM    9  C   UNL     1      42.594 -16.621   3.085  1.00  0.00     0.102 C 
HETATM   10  C   UNL     1      42.835 -17.530   1.844  1.00  0.00     0.071 C 
HETATM   11  C   UNL     1      44.276 -17.368   1.321  1.00  0.00     0.047 C 
HETATM   12  C   UNL     1      41.813 -17.249   0.709  1.00  0.00     0.100 C 
ENDROOT
BRANCH   8  13
HETATM   13  C   UNL     1      42.135 -14.202   3.853  1.00  0.00    -0.046 A 
HETATM   14  C   UNL     1      40.798 -13.765   3.942  1.00  0.00     0.047 A 
HETATM   15  C   UNL     1      40.381 -12.955   5.001  1.00  0.00     0.101 A 
HETATM   16  C   UNL     1      41.282 -12.644   6.021  1.00  0.00     0.099 A 
HETATM   17  C   UNL     1      42.597 -13.078   5.973  1.00  0.00     0.040 A 
HETATM   18  C   UNL     1      43.024 -13.846   4.888  1.00  0.00     0.011 A 
BRANCH  15  19
HETATM   19  O   UNL     1      39.114 -12.453   5.151  1.00  0.00    -0.353 OA
HETATM   20  C   UNL     1      38.734 -11.524   4.137  1.00  0.00     0.210 C 
ENDBRANCH  15  19
BRANCH  16  21
HETATM   21  O   UNL     1      40.880 -11.896   7.092  1.00  0.00    -0.358 OA
HETATM   22  H   UNL     1      41.647 -11.895   7.697  1.00  0.00     0.218 HD
ENDBRANCH  16  21
ENDBRANCH   8  13
BRANCH   9  23
HETATM   23  C   UNL     1      41.279 -17.021   3.761  1.00  0.00     0.131 C 
HETATM   24  C   UNL     1      41.353 -17.372   5.227  1.00  0.00     0.091 C 
HETATM   25  O   UNL     1      40.206 -17.071   3.158  1.00  0.00    -0.298 OA
ENDBRANCH   9  23
BRANCH  10  26
HETATM   26  O   UNL     1      42.736 -18.900   2.272  1.00  0.00    -0.389 OA
HETATM   27  H   UNL     1      43.554 -19.127   2.751  1.00  0.00     0.210 HD
ENDBRANCH  10  26
TORSDOF 5
ENDMDL
MODEL 8
REMARK VINA RESULT:      -6.2      1.911      4.829
REMARK  5 active torsions:
REMARK  status: ('A' for Active; 'I' for Inactive)
REMARK    1  A    between atoms: C_8  and  C_9 
REMARK    2  A    between atoms: C_11  and  O_12 
REMARK    3  A    between atoms: C_14  and  O_15 
REMARK    4  A    between atoms: C_18  and  C_19 
REMARK    5  A    between atoms: C_22  and  O_23 
ROOT
HETATM    1  C   UNL     1      42.115 -12.308   1.379  1.00  0.00     0.070 C 
HETATM    2  C   UNL     1      41.786 -13.702   1.001  1.00  0.00     0.033 A 
HETATM    3  N   UNL     1      41.073 -13.984  -0.136  1.00  0.00    -0.282 N 
HETATM    4  H   UNL     1      40.684 -13.332  -0.808  1.00  0.00     0.189 HD
HETATM    5  N   UNL     1      40.940 -15.297  -0.381  1.00  0.00    -0.179 NA
HETATM    6  C   UNL     1      41.529 -15.872   0.669  1.00  0.00     0.066 A 
HETATM    7  C   UNL     1      42.053 -14.925   1.590  1.00  0.00     0.001 A 
HETATM    8  C   UNL     1      42.841 -15.334   2.802  1.00  0.00     0.070 C 
HETATM    9  C   UNL     1      42.761 -16.860   3.083  1.00  0.00     0.102 C 
HETATM   10  C   UNL     1      42.808 -17.718   1.785  1.00  0.00     0.071 C 
HETATM   11  C   UNL     1      44.177 -17.582   1.091  1.00  0.00     0.047 C 
HETATM   12  C   UNL     1      41.664 -17.348   0.801  1.00  0.00     0.100 C 
ENDROOT
BRANCH   8  13
HETATM   13  C   UNL     1      42.500 -14.466   4.005  1.00  0.00    -0.046 A 
HETATM   14  C   UNL     1      43.414 -14.162   5.034  1.00  0.00     0.047 A 
HETATM   15  C   UNL     1      43.042 -13.337   6.098  1.00  0.00     0.101 A 
HETATM   16  C   UNL     1      41.778 -12.746   6.096  1.00  0.00     0.099 A 
HETATM   17  C   UNL     1      40.865 -13.008   5.088  1.00  0.00     0.040 A 
HETATM   18  C   UNL     1      41.222 -13.872   4.052  1.00  0.00     0.011 A 
BRANCH  15  19
HETATM   19  O   UNL     1      43.850 -13.016   7.159  1.00  0.00    -0.353 OA
HETATM   20  C   UNL     1      45.029 -13.815   7.253  1.00  0.00     0.210 C 
ENDBRANCH  15  19
BRANCH  16  21
HETATM   21  O   UNL     1      41.414 -11.895   7.102  1.00  0.00    -0.358 OA
HETATM   22  H   UNL     1      42.249 -11.680   7.562  1.00  0.00     0.218 HD
ENDBRANCH  16  21
ENDBRANCH   8  13
BRANCH   9  23
HETATM   23  C   UNL     1      41.525 -17.245   3.903  1.00  0.00     0.131 C 
HETATM   24  C   UNL     1      41.772 -17.720   5.314  1.00  0.00     0.091 C 
HETATM   25  O   UNL     1      40.380 -17.189   3.452  1.00  0.00    -0.298 OA
ENDBRANCH   9  23
BRANCH  10  26
HETATM   26  O   UNL     1      42.707 -19.102   2.163  1.00  0.00    -0.389 OA
HETATM   27  H   UNL     1      43.588 -19.508   2.062  1.00  0.00     0.210 HD
ENDBRANCH  10  26
TORSDOF 5
ENDMDL
MODEL 9
REMARK VINA RESULT:      -6.1      2.545      5.447
REMARK  5 active torsions:
REMARK  status: ('A' for Active; 'I' for Inactive)
REMARK    1  A    between atoms: C_8  and  C_9 
REMARK    2  A    between atoms: C_11  and  O_12 
REMARK    3  A    between atoms: C_14  and  O_15 
REMARK    4  A    between atoms: C_18  and  C_19 
REMARK    5  A    between atoms: C_22  and  O_23 
ROOT
HETATM    1  C   UNL     1      39.083 -13.444   2.380  1.00  0.00     0.070 C 
HETATM    2  C   UNL     1      39.675 -14.798   2.480  1.00  0.00     0.033 A 
HETATM    3  N   UNL     1      39.137 -15.864   1.807  1.00  0.00    -0.282 N 
HETATM    4  H   UNL     1      38.314 -15.878   1.215  1.00  0.00     0.189 HD
HETATM    5  N   UNL     1      39.845 -16.997   1.931  1.00  0.00    -0.179 NA
HETATM    6  C   UNL     1      40.830 -16.660   2.765  1.00  0.00     0.066 A 
HETATM    7  C   UNL     1      40.762 -15.301   3.172  1.00  0.00     0.001 A 
HETATM    8  C   UNL     1      41.816 -14.668   4.037  1.00  0.00     0.070 C 
HETATM    9  C   UNL     1      42.789 -15.708   4.657  1.00  0.00     0.102 C 
HETATM   10  C   UNL     1      43.161 -16.852   3.669  1.00  0.00     0.071 C 
HETATM   11  C   UNL     1      43.978 -16.304   2.483  1.00  0.00     0.047 C 
HETATM   12  C   UNL     1      41.906 -17.611   3.157  1.00  0.00     0.100 C 
ENDROOT
BRANCH   8  13
HETATM   13  C   UNL     1      41.201 -13.714   5.053  1.00  0.00    -0.046 A 
HETATM   14  C   UNL     1      41.859 -12.571   5.550  1.00  0.00     0.047 A 
HETATM   15  C   UNL     1      41.227 -11.725   6.463  1.00  0.00     0.101 A 
HETATM   16  C   UNL     1      39.901 -11.973   6.821  1.00  0.00     0.099 A 
HETATM   17  C   UNL     1      39.220 -13.076   6.332  1.00  0.00     0.040 A 
HETATM   18  C   UNL     1      39.871 -13.947   5.459  1.00  0.00     0.011 A 
BRANCH  15  19
HETATM   19  O   UNL     1      41.800 -10.613   7.027  1.00  0.00    -0.353 OA
HETATM   20  C   UNL     1      42.520 -10.879   8.230  1.00  0.00     0.210 C 
ENDBRANCH  15  19
BRANCH  16  21
HETATM   21  O   UNL     1      39.248 -11.127   7.673  1.00  0.00    -0.358 OA
HETATM   22  H   UNL     1      38.561 -10.700   7.124  1.00  0.00     0.218 HD
ENDBRANCH  16  21
ENDBRANCH   8  13
BRANCH   9  23
HETATM   23  C   UNL     1      42.254 -16.314   5.959  1.00  0.00     0.131 C 
HETATM   24  C   UNL     1      43.071 -16.071   7.204  1.00  0.00     0.091 C 
HETATM   25  O   UNL     1      41.217 -16.978   6.010  1.00  0.00    -0.298 OA
ENDBRANCH   9  23
BRANCH  10  26
HETATM   26  O   UNL     1      44.043 -17.760   4.353  1.00  0.00    -0.389 OA
HETATM   27  H   UNL     1      44.126 -17.461   5.278  1.00  0.00     0.210 HD
ENDBRANCH  10  26
TORSDOF 5
ENDMDL
MODEL 10
REMARK VINA RESULT:      -6.1      2.823      6.065
REMARK  5 active torsions:
REMARK  status: ('A' for Active; 'I' for Inactive)
REMARK    1  A    between atoms: C_8  and  C_9 
REMARK    2  A    between atoms: C_11  and  O_12 
REMARK    3  A    between atoms: C_14  and  O_15 
REMARK    4  A    between atoms: C_18  and  C_19 
REMARK    5  A    between atoms: C_22  and  O_23 
ROOT
HETATM    1  C   UNL     1      40.313 -12.725   5.346  1.00  0.00     0.070 C 
HETATM    2  C   UNL     1      41.448 -13.675   5.396  1.00  0.00     0.033 A 
HETATM    3  N   UNL     1      42.511 -13.474   6.238  1.00  0.00    -0.282 N 
HETATM    4  H   UNL     1      42.668 -12.699   6.873  1.00  0.00     0.189 HD
HETATM    5  N   UNL     1      43.408 -14.473   6.228  1.00  0.00    -0.179 NA
HETATM    6  C   UNL     1      42.936 -15.307   5.300  1.00  0.00     0.066 A 
HETATM    7  C   UNL     1      41.724 -14.848   4.717  1.00  0.00     0.001 A 
HETATM    8  C   UNL     1      40.956 -15.664   3.715  1.00  0.00     0.070 C 
HETATM    9  C   UNL     1      41.763 -16.881   3.186  1.00  0.00     0.102 C 
HETATM   10  C   UNL     1      42.601 -17.580   4.297  1.00  0.00     0.071 C 
HETATM   11  C   UNL     1      41.679 -18.228   5.348  1.00  0.00     0.047 C 
HETATM   12  C   UNL     1      43.596 -16.602   4.979  1.00  0.00     0.100 C 
ENDROOT
BRANCH   8  13
HETATM   13  C   UNL     1      40.371 -14.786   2.617  1.00  0.00    -0.046 A 
HETATM   14  C   UNL     1      41.062 -13.710   2.024  1.00  0.00     0.047 A 
HETATM   15  C   UNL     1      40.474 -12.960   1.003  1.00  0.00     0.101 A 
HETATM   16  C   UNL     1      39.222 -13.334   0.513  1.00  0.00     0.099 A 
HETATM   17  C   UNL     1      38.527 -14.401   1.061  1.00  0.00     0.040 A 
HETATM   18  C   UNL     1      39.096 -15.118   2.114  1.00  0.00     0.011 A 
BRANCH  15  19
HETATM   19  O   UNL     1      41.054 -11.877   0.394  1.00  0.00    -0.353 OA
HETATM   20  C   UNL     1      42.115 -12.214  -0.499  1.00  0.00     0.210 C 
ENDBRANCH  15  19
BRANCH  16  21
HETATM   21  O   UNL     1      38.652 -12.645  -0.520  1.00  0.00    -0.358 OA
HETATM   22  H   UNL     1      38.480 -11.753  -0.160  1.00  0.00     0.218 HD
ENDBRANCH  16  21
ENDBRANCH   8  13
BRANCH   9  23
HETATM   23  C   UNL     1      42.678 -16.518   2.011  1.00  0.00     0.131 C 
HETATM   24  C   UNL     1      42.229 -16.966   0.642  1.00  0.00     0.091 C 
HETATM   25  O   UNL     1      43.735 -15.902   2.154  1.00  0.00    -0.298 OA
ENDBRANCH   9  23
BRANCH  10  26
HETATM   26  O   UNL     1      43.317 -18.672   3.692  1.00  0.00    -0.389 OA
HETATM   27  H   UNL     1      44.114 -18.309   3.263  1.00  0.00     0.210 HD
ENDBRANCH  10  26
TORSDOF 5
ENDMDL
