MODEL 1
REMARK VINA RESULT:      -8.9      0.000      0.000
REMARK  4 active torsions:
REMARK  status: ('A' for Active; 'I' for Inactive)
REMARK    1  A    between atoms: C_2  and  C_3 
REMARK    2  A    between atoms: C_3  and  N_4 
REMARK    3  A    between atoms: C_3  and  C_18 
REMARK       I    between atoms: N_4  and  C_5 
REMARK    4  A    between atoms: C_5  and  C_6 
ROOT
HETATM    1  N   UNL     1      42.979 -15.962   4.633  1.00  0.00    -0.344 N 
HETATM    2  C   UNL     1      41.767 -15.355   4.401  1.00  0.00     0.273 C 
HETATM    3  O   UNL     1      40.725 -15.633   4.974  1.00  0.00    -0.266 OA
HETATM    4  H   UNL     1      43.653 -15.881   3.877  1.00  0.00     0.163 HD
ENDROOT
BRANCH   1   5
HETATM    5  C   UNL     1      43.126 -17.058   5.580  1.00  0.00     0.158 C 
BRANCH   5   6
HETATM    6  C   UNL     1      44.102 -16.712   6.736  1.00  0.00     0.008 C 
HETATM    7  C   UNL     1      43.503 -17.127   8.085  1.00  0.00     0.012 C 
HETATM    8  C   UNL     1      44.512 -15.236   6.802  1.00  0.00     0.012 C 
ENDBRANCH   5   6
BRANCH   5   9
HETATM    9  C   UNL     1      43.507 -18.314   4.837  1.00  0.00     0.128 A 
HETATM   10  N   UNL     1      44.153 -19.370   5.293  1.00  0.00    -0.231 NA
HETATM   11  C   UNL     1      44.221 -20.250   4.241  1.00  0.00     0.085 A 
HETATM   12  C   UNL     1      43.603 -19.727   3.113  1.00  0.00     0.062 A 
HETATM   13  C   UNL     1      44.800 -21.527   4.176  1.00  0.00     0.034 A 
HETATM   14  N   UNL     1      43.140 -18.505   3.522  1.00  0.00    -0.341 N 
HETATM   15  C   UNL     1      43.534 -20.400   1.893  1.00  0.00     0.032 A 
HETATM   16  H   UNL     1      42.629 -17.833   2.961  1.00  0.00     0.167 HD
HETATM   17  C   UNL     1      44.120 -21.671   1.844  1.00  0.00     0.002 A 
HETATM   18  C   UNL     1      44.740 -22.229   2.965  1.00  0.00     0.002 A 
ENDBRANCH   5   9
ENDBRANCH   1   5
BRANCH   2  19
HETATM   19  C   UNL     1      41.797 -14.335   3.265  1.00  0.00     0.155 A 
HETATM   20  N   UNL     1      41.988 -13.097   3.627  1.00  0.00    -0.166 NA
HETATM   21  N   UNL     1      42.058 -12.151   2.650  1.00  0.00    -0.242 N 
HETATM   22  C   UNL     1      41.983 -12.378   1.297  1.00  0.00     0.272 A 
HETATM   23  H   UNL     1      42.234 -11.195   2.950  1.00  0.00     0.192 HD
HETATM   24  O   UNL     1      42.098 -11.479   0.473  1.00  0.00    -0.266 OA
HETATM   25  C   UNL     1      41.738 -13.771   0.885  1.00  0.00     0.046 A 
HETATM   26  C   UNL     1      41.621 -14.760   1.861  1.00  0.00     0.016 A 
HETATM   27  C   UNL     1      41.608 -14.090  -0.473  1.00  0.00     0.018 A 
HETATM   28  C   UNL     1      41.340 -16.075   1.475  1.00  0.00     0.015 A 
HETATM   29  C   UNL     1      41.208 -16.394   0.119  1.00  0.00     0.001 A 
HETATM   30  C   UNL     1      41.346 -15.405  -0.852  1.00  0.00     0.001 A 
ENDBRANCH   2  19
TORSDOF 4
ENDMDL
MODEL 2
REMARK VINA RESULT:      -8.8      3.117      7.686
REMARK  4 active torsions:
REMARK  status: ('A' for Active; 'I' for Inactive)
REMARK    1  A    between atoms: C_2  and  C_3 
REMARK    2  A    between atoms: C_3  and  N_4 
REMARK    3  A    between atoms: C_3  and  C_18 
REMARK       I    between atoms: N_4  and  C_5 
REMARK    4  A    between atoms: C_5  and  C_6 
ROOT
HETATM    1  N   UNL     1      43.229 -15.306   5.666  1.00  0.00    -0.344 N 
HETATM    2  C   UNL     1      42.350 -16.358   5.555  1.00  0.00     0.273 C 
HETATM    3  O   UNL     1      41.139 -16.248   5.442  1.00  0.00    -0.266 OA
HETATM    4  H   UNL     1      44.125 -15.536   6.087  1.00  0.00     0.163 HD
ENDROOT
BRANCH   1   5
HETATM    5  C   UNL     1      42.778 -13.922   5.707  1.00  0.00     0.158 C 
BRANCH   5   6
HETATM    6  C   UNL     1      43.022 -13.181   4.366  1.00  0.00     0.008 C 
HETATM    7  C   UNL     1      41.741 -12.480   3.900  1.00  0.00     0.012 C 
HETATM    8  C   UNL     1      43.547 -14.073   3.234  1.00  0.00     0.012 C 
ENDBRANCH   5   6
BRANCH   5   9
HETATM    9  C   UNL     1      43.401 -13.228   6.892  1.00  0.00     0.128 A 
HETATM   10  N   UNL     1      44.566 -13.471   7.463  1.00  0.00    -0.231 NA
HETATM   11  C   UNL     1      44.686 -12.551   8.475  1.00  0.00     0.085 A 
HETATM   12  C   UNL     1      43.572 -11.722   8.530  1.00  0.00     0.062 A 
HETATM   13  C   UNL     1      45.727 -12.361   9.397  1.00  0.00     0.034 A 
HETATM   14  N   UNL     1      42.780 -12.159   7.502  1.00  0.00    -0.341 N 
HETATM   15  C   UNL     1      43.418 -10.703   9.471  1.00  0.00     0.032 A 
HETATM   16  H   UNL     1      41.878 -11.785   7.233  1.00  0.00     0.167 HD
HETATM   17  C   UNL     1      44.464 -10.531  10.386  1.00  0.00     0.002 A 
HETATM   18  C   UNL     1      45.602 -11.342  10.349  1.00  0.00     0.002 A 
ENDBRANCH   5   9
ENDBRANCH   1   5
BRANCH   2  19
HETATM   19  C   UNL     1      43.011 -17.728   5.684  1.00  0.00     0.155 A 
HETATM   20  N   UNL     1      43.095 -18.200   6.897  1.00  0.00    -0.166 NA
HETATM   21  N   UNL     1      43.644 -19.435   7.063  1.00  0.00    -0.242 N 
HETATM   22  C   UNL     1      44.095 -20.262   6.062  1.00  0.00     0.272 A 
HETATM   23  H   UNL     1      43.677 -19.798   8.013  1.00  0.00     0.192 HD
HETATM   24  O   UNL     1      44.540 -21.382   6.286  1.00  0.00    -0.266 OA
HETATM   25  C   UNL     1      44.030 -19.720   4.694  1.00  0.00     0.046 A 
HETATM   26  C   UNL     1      43.509 -18.443   4.490  1.00  0.00     0.016 A 
HETATM   27  C   UNL     1      44.503 -20.478   3.615  1.00  0.00     0.018 A 
HETATM   28  C   UNL     1      43.490 -17.907   3.198  1.00  0.00     0.015 A 
HETATM   29  C   UNL     1      43.965 -18.663   2.120  1.00  0.00     0.001 A 
HETATM   30  C   UNL     1      44.466 -19.946   2.327  1.00  0.00     0.001 A 
ENDBRANCH   2  19
TORSDOF 4
ENDMDL
MODEL 3
REMARK VINA RESULT:      -8.6      2.375      3.197
REMARK  4 active torsions:
REMARK  status: ('A' for Active; 'I' for Inactive)
REMARK    1  A    between atoms: C_2  and  C_3 
REMARK    2  A    between atoms: C_3  and  N_4 
REMARK    3  A    between atoms: C_3  and  C_18 
REMARK       I    between atoms: N_4  and  C_5 
REMARK    4  A    between atoms: C_5  and  C_6 
ROOT
HETATM    1  N   UNL     1      42.417 -15.723   2.088  1.00  0.00    -0.344 N 
HETATM    2  C   UNL     1      41.220 -15.386   1.501  1.00  0.00     0.273 C 
HETATM    3  O   UNL     1      40.131 -15.447   2.051  1.00  0.00    -0.266 OA
HETATM    4  H   UNL     1      43.166 -15.950   1.440  1.00  0.00     0.163 HD
ENDROOT
BRANCH   1   5
HETATM    5  C   UNL     1      42.494 -16.244   3.446  1.00  0.00     0.158 C 
BRANCH   5   6
HETATM    6  C   UNL     1      43.255 -15.289   4.402  1.00  0.00     0.008 C 
HETATM    7  C   UNL     1      42.434 -15.036   5.673  1.00  0.00     0.012 C 
HETATM    8  C   UNL     1      43.644 -13.942   3.779  1.00  0.00     0.012 C 
ENDBRANCH   5   6
BRANCH   5   9
HETATM    9  C   UNL     1      43.069 -17.638   3.415  1.00  0.00     0.128 A 
HETATM   10  N   UNL     1      43.769 -18.254   4.349  1.00  0.00    -0.231 NA
HETATM   11  C   UNL     1      44.028 -19.509   3.856  1.00  0.00     0.085 A 
HETATM   12  C   UNL     1      43.477 -19.670   2.591  1.00  0.00     0.062 A 
HETATM   13  C   UNL     1      44.734 -20.573   4.437  1.00  0.00     0.034 A 
HETATM   14  N   UNL     1      42.856 -18.476   2.342  1.00  0.00    -0.341 N 
HETATM   15  C   UNL     1      43.596 -20.844   1.845  1.00  0.00     0.032 A 
HETATM   16  H   UNL     1      42.340 -18.225   1.508  1.00  0.00     0.167 HD
HETATM   17  C   UNL     1      44.308 -21.894   2.438  1.00  0.00     0.002 A 
HETATM   18  C   UNL     1      44.866 -21.765   3.713  1.00  0.00     0.002 A 
ENDBRANCH   5   9
ENDBRANCH   1   5
BRANCH   2  19
HETATM   19  C   UNL     1      41.343 -15.006   0.027  1.00  0.00     0.155 A 
HETATM   20  N   UNL     1      41.130 -15.974  -0.821  1.00  0.00    -0.166 NA
HETATM   21  N   UNL     1      41.192 -15.681  -2.150  1.00  0.00    -0.242 N 
HETATM   22  C   UNL     1      41.426 -14.441  -2.695  1.00  0.00     0.272 A 
HETATM   23  H   UNL     1      40.997 -16.441  -2.797  1.00  0.00     0.192 HD
HETATM   24  O   UNL     1      41.424 -14.245  -3.904  1.00  0.00    -0.266 OA
HETATM   25  C   UNL     1      41.696 -13.352  -1.740  1.00  0.00     0.046 A 
HETATM   26  C   UNL     1      41.678 -13.625  -0.372  1.00  0.00     0.016 A 
HETATM   27  C   UNL     1      41.982 -12.063  -2.207  1.00  0.00     0.018 A 
HETATM   28  C   UNL     1      41.982 -12.604   0.534  1.00  0.00     0.015 A 
HETATM   29  C   UNL     1      42.271 -11.316   0.069  1.00  0.00     0.001 A 
HETATM   30  C   UNL     1      42.266 -11.046  -1.298  1.00  0.00     0.001 A 
ENDBRANCH   2  19
TORSDOF 4
ENDMDL
MODEL 4
REMARK VINA RESULT:      -8.3      1.836      2.706
REMARK  4 active torsions:
REMARK  status: ('A' for Active; 'I' for Inactive)
REMARK    1  A    between atoms: C_2  and  C_3 
REMARK    2  A    between atoms: C_3  and  N_4 
REMARK    3  A    between atoms: C_3  and  C_18 
REMARK       I    between atoms: N_4  and  C_5 
REMARK    4  A    between atoms: C_5  and  C_6 
ROOT
HETATM    1  N   UNL     1      41.906 -14.788   2.714  1.00  0.00    -0.344 N 
HETATM    2  C   UNL     1      40.958 -14.083   2.010  1.00  0.00     0.273 C 
HETATM    3  O   UNL     1      39.753 -14.145   2.204  1.00  0.00    -0.266 OA
HETATM    4  H   UNL     1      42.797 -14.903   2.239  1.00  0.00     0.163 HD
ENDROOT
BRANCH   1   5
HETATM    5  C   UNL     1      41.546 -15.740   3.755  1.00  0.00     0.158 C 
BRANCH   5   6
HETATM    6  C   UNL     1      41.779 -15.173   5.180  1.00  0.00     0.008 C 
HETATM    7  C   UNL     1      40.457 -14.688   5.787  1.00  0.00     0.012 C 
HETATM    8  C   UNL     1      42.810 -14.039   5.252  1.00  0.00     0.012 C 
ENDBRANCH   5   6
BRANCH   5   9
HETATM    9  C   UNL     1      42.263 -17.044   3.510  1.00  0.00     0.128 A 
HETATM   10  N   UNL     1      42.206 -17.822   2.446  1.00  0.00    -0.231 NA
HETATM   11  C   UNL     1      43.060 -18.867   2.698  1.00  0.00     0.085 A 
HETATM   12  C   UNL     1      43.658 -18.730   3.944  1.00  0.00     0.062 A 
HETATM   13  C   UNL     1      43.379 -19.978   1.903  1.00  0.00     0.034 A 
HETATM   14  N   UNL     1      43.152 -17.555   4.431  1.00  0.00    -0.341 N 
HETATM   15  C   UNL     1      44.563 -19.655   4.468  1.00  0.00     0.032 A 
HETATM   16  H   UNL     1      43.367 -17.129   5.325  1.00  0.00     0.167 HD
HETATM   17  C   UNL     1      44.867 -20.760   3.662  1.00  0.00     0.002 A 
HETATM   18  C   UNL     1      44.289 -20.919   2.400  1.00  0.00     0.002 A 
ENDBRANCH   5   9
ENDBRANCH   1   5
BRANCH   2  19
HETATM   19  C   UNL     1      41.533 -13.254   0.863  1.00  0.00     0.155 A 
HETATM   20  N   UNL     1      42.055 -12.109   1.204  1.00  0.00    -0.166 NA
HETATM   21  N   UNL     1      42.613 -11.346   0.224  1.00  0.00    -0.242 N 
HETATM   22  C   UNL     1      42.715 -11.683  -1.105  1.00  0.00     0.272 A 
HETATM   23  H   UNL     1      43.039 -10.469   0.512  1.00  0.00     0.192 HD
HETATM   24  O   UNL     1      43.272 -10.963  -1.924  1.00  0.00    -0.266 OA
HETATM   25  C   UNL     1      42.101 -12.963  -1.498  1.00  0.00     0.046 A 
HETATM   26  C   UNL     1      41.486 -13.752  -0.527  1.00  0.00     0.016 A 
HETATM   27  C   UNL     1      42.123 -13.370  -2.839  1.00  0.00     0.018 A 
HETATM   28  C   UNL     1      40.859 -14.944  -0.906  1.00  0.00     0.015 A 
HETATM   29  C   UNL     1      40.878 -15.350  -2.245  1.00  0.00     0.001 A 
HETATM   30  C   UNL     1      41.513 -14.567  -3.208  1.00  0.00     0.001 A 
ENDBRANCH   2  19
TORSDOF 4
ENDMDL
MODEL 5
REMARK VINA RESULT:      -8.3      2.257      6.751
REMARK  4 active torsions:
REMARK  status: ('A' for Active; 'I' for Inactive)
REMARK    1  A    between atoms: C_2  and  C_3 
REMARK    2  A    between atoms: C_3  and  N_4 
REMARK    3  A    between atoms: C_3  and  C_18 
REMARK       I    between atoms: N_4  and  C_5 
REMARK    4  A    between atoms: C_5  and  C_6 
ROOT
HETATM    1  N   UNL     1      42.095 -13.967   3.103  1.00  0.00    -0.344 N 
HETATM    2  C   UNL     1      43.317 -14.310   3.632  1.00  0.00     0.273 C 
HETATM    3  O   UNL     1      44.324 -13.622   3.569  1.00  0.00    -0.266 OA
HETATM    4  H   UNL     1      41.467 -14.747   2.929  1.00  0.00     0.163 HD
ENDROOT
BRANCH   1   5
HETATM    5  C   UNL     1      41.895 -12.736   2.353  1.00  0.00     0.158 C 
BRANCH   5   6
HETATM    6  C   UNL     1      40.740 -11.875   2.929  1.00  0.00     0.008 C 
HETATM    7  C   UNL     1      41.088 -11.385   4.340  1.00  0.00     0.012 C 
HETATM    8  C   UNL     1      39.379 -12.581   2.964  1.00  0.00     0.012 C 
ENDBRANCH   5   6
BRANCH   5   9
HETATM    9  C   UNL     1      41.722 -13.062   0.891  1.00  0.00     0.128 A 
HETATM   10  N   UNL     1      41.898 -12.270  -0.150  1.00  0.00    -0.231 NA
HETATM   11  C   UNL     1      41.647 -13.044  -1.256  1.00  0.00     0.085 A 
HETATM   12  C   UNL     1      41.309 -14.341  -0.890  1.00  0.00     0.062 A 
HETATM   13  C   UNL     1      41.688 -12.705  -2.617  1.00  0.00     0.034 A 
HETATM   14  N   UNL     1      41.383 -14.332   0.477  1.00  0.00    -0.341 N 
HETATM   15  C   UNL     1      40.990 -15.340  -1.810  1.00  0.00     0.032 A 
HETATM   16  H   UNL     1      41.204 -15.113   1.097  1.00  0.00     0.167 HD
HETATM   17  C   UNL     1      41.031 -14.983  -3.164  1.00  0.00     0.002 A 
HETATM   18  C   UNL     1      41.378 -13.690  -3.563  1.00  0.00     0.002 A 
ENDBRANCH   5   9
ENDBRANCH   1   5
BRANCH   2  19
HETATM   19  C   UNL     1      43.351 -15.708   4.247  1.00  0.00     0.155 A 
HETATM   20  N   UNL     1      43.257 -15.752   5.547  1.00  0.00    -0.166 NA
HETATM   21  N   UNL     1      43.247 -16.976   6.144  1.00  0.00    -0.242 N 
HETATM   22  C   UNL     1      43.291 -18.190   5.502  1.00  0.00     0.272 A 
HETATM   23  H   UNL     1      43.145 -16.991   7.156  1.00  0.00     0.192 HD
HETATM   24  O   UNL     1      43.235 -19.255   6.105  1.00  0.00    -0.266 OA
HETATM   25  C   UNL     1      43.428 -18.144   4.035  1.00  0.00     0.046 A 
HETATM   26  C   UNL     1      43.481 -16.907   3.394  1.00  0.00     0.016 A 
HETATM   27  C   UNL     1      43.520 -19.333   3.301  1.00  0.00     0.018 A 
HETATM   28  C   UNL     1      43.659 -16.860   2.007  1.00  0.00     0.015 A 
HETATM   29  C   UNL     1      43.754 -18.047   1.273  1.00  0.00     0.001 A 
HETATM   30  C   UNL     1      43.680 -19.280   1.917  1.00  0.00     0.001 A 
ENDBRANCH   2  19
TORSDOF 4
ENDMDL
MODEL 6
REMARK VINA RESULT:      -8.2      2.657      3.472
REMARK  4 active torsions:
REMARK  status: ('A' for Active; 'I' for Inactive)
REMARK    1  A    between atoms: C_2  and  C_3 
REMARK    2  A    between atoms: C_3  and  N_4 
REMARK    3  A    between atoms: C_3  and  C_18 
REMARK       I    between atoms: N_4  and  C_5 
REMARK    4  A    between atoms: C_5  and  C_6 
ROOT
HETATM    1  N   UNL     1      41.962 -15.662   2.114  1.00  0.00    -0.344 N 
HETATM    2  C   UNL     1      40.725 -15.811   1.533  1.00  0.00     0.273 C 
HETATM    3  O   UNL     1      39.761 -16.339   2.066  1.00  0.00    -0.266 OA
HETATM    4  H   UNL     1      42.731 -15.530   1.463  1.00  0.00     0.163 HD
ENDROOT
BRANCH   1   5
HETATM    5  C   UNL     1      42.260 -16.178   3.443  1.00  0.00     0.158 C 
BRANCH   5   6
HETATM    6  C   UNL     1      43.173 -15.223   4.256  1.00  0.00     0.008 C 
HETATM    7  C   UNL     1      42.502 -14.838   5.580  1.00  0.00     0.012 C 
HETATM    8  C   UNL     1      43.583 -13.947   3.510  1.00  0.00     0.012 C 
ENDBRANCH   5   6
BRANCH   5   9
HETATM    9  C   UNL     1      42.816 -17.575   3.325  1.00  0.00     0.128 A 
HETATM   10  N   UNL     1      42.765 -18.391   2.289  1.00  0.00    -0.231 NA
HETATM   11  C   UNL     1      43.439 -19.524   2.671  1.00  0.00     0.085 A 
HETATM   12  C   UNL     1      43.917 -19.405   3.970  1.00  0.00     0.062 A 
HETATM   13  C   UNL     1      43.686 -20.705   1.955  1.00  0.00     0.034 A 
HETATM   14  N   UNL     1      43.526 -18.151   4.356  1.00  0.00    -0.341 N 
HETATM   15  C   UNL     1      44.630 -20.412   4.621  1.00  0.00     0.032 A 
HETATM   16  H   UNL     1      43.703 -17.712   5.251  1.00  0.00     0.167 HD
HETATM   17  C   UNL     1      44.863 -21.587   3.894  1.00  0.00     0.002 A 
HETATM   18  C   UNL     1      44.404 -21.732   2.583  1.00  0.00     0.002 A 
ENDBRANCH   5   9
ENDBRANCH   1   5
BRANCH   2  19
HETATM   19  C   UNL     1      40.666 -15.337   0.082  1.00  0.00     0.155 A 
HETATM   20  N   UNL     1      41.444 -15.972  -0.749  1.00  0.00    -0.166 NA
HETATM   21  N   UNL     1      41.404 -15.612  -2.061  1.00  0.00    -0.242 N 
HETATM   22  C   UNL     1      40.587 -14.654  -2.613  1.00  0.00     0.272 A 
HETATM   23  H   UNL     1      41.998 -16.137  -2.699  1.00  0.00     0.192 HD
HETATM   24  O   UNL     1      40.575 -14.414  -3.814  1.00  0.00    -0.266 OA
HETATM   25  C   UNL     1      39.728 -13.914  -1.673  1.00  0.00     0.046 A 
HETATM   26  C   UNL     1      39.772 -14.230  -0.315  1.00  0.00     0.016 A 
HETATM   27  C   UNL     1      38.890 -12.893  -2.141  1.00  0.00     0.018 A 
HETATM   28  C   UNL     1      38.993 -13.496   0.586  1.00  0.00     0.015 A 
HETATM   29  C   UNL     1      38.158 -12.474   0.119  1.00  0.00     0.001 A 
HETATM   30  C   UNL     1      38.103 -12.177  -1.241  1.00  0.00     0.001 A 
ENDBRANCH   2  19
TORSDOF 4
ENDMDL
MODEL 7
REMARK VINA RESULT:      -8.1      2.497      3.122
REMARK  4 active torsions:
REMARK  status: ('A' for Active; 'I' for Inactive)
REMARK    1  A    between atoms: C_2  and  C_3 
REMARK    2  A    between atoms: C_3  and  N_4 
REMARK    3  A    between atoms: C_3  and  C_18 
REMARK       I    between atoms: N_4  and  C_5 
REMARK    4  A    between atoms: C_5  and  C_6 
ROOT
HETATM    1  N   UNL     1      41.884 -15.641   4.094  1.00  0.00    -0.344 N 
HETATM    2  C   UNL     1      40.636 -15.166   4.421  1.00  0.00     0.273 C 
HETATM    3  O   UNL     1      40.140 -15.214   5.537  1.00  0.00    -0.266 OA
HETATM    4  H   UNL     1      42.023 -15.844   3.108  1.00  0.00     0.163 HD
ENDROOT
BRANCH   1   5
HETATM    5  C   UNL     1      42.738 -16.307   5.067  1.00  0.00     0.158 C 
BRANCH   5   6
HETATM    6  C   UNL     1      43.900 -15.402   5.552  1.00  0.00     0.008 C 
HETATM    7  C   UNL     1      43.991 -15.418   7.082  1.00  0.00     0.012 C 
HETATM    8  C   UNL     1      43.817 -13.948   5.069  1.00  0.00     0.012 C 
ENDBRANCH   5   6
BRANCH   5   9
HETATM    9  C   UNL     1      43.206 -17.625   4.502  1.00  0.00     0.128 A 
HETATM   10  N   UNL     1      43.987 -18.526   5.067  1.00  0.00    -0.231 NA
HETATM   11  C   UNL     1      44.088 -19.555   4.163  1.00  0.00     0.085 A 
HETATM   12  C   UNL     1      43.354 -19.282   3.016  1.00  0.00     0.062 A 
HETATM   13  C   UNL     1      44.795 -20.763   4.254  1.00  0.00     0.034 A 
HETATM   14  N   UNL     1      42.787 -18.061   3.264  1.00  0.00    -0.341 N 
HETATM   15  C   UNL     1      43.287 -20.148   1.924  1.00  0.00     0.032 A 
HETATM   16  H   UNL     1      42.177 -17.541   2.644  1.00  0.00     0.167 HD
HETATM   17  C   UNL     1      44.002 -21.348   2.030  1.00  0.00     0.002 A 
HETATM   18  C   UNL     1      44.741 -21.654   3.175  1.00  0.00     0.002 A 
ENDBRANCH   5   9
ENDBRANCH   1   5
BRANCH   2  19
HETATM   19  C   UNL     1      39.845 -14.639   3.226  1.00  0.00     0.155 A 
HETATM   20  N   UNL     1      39.599 -15.511   2.287  1.00  0.00    -0.166 NA
HETATM   21  N   UNL     1      38.867 -15.102   1.215  1.00  0.00    -0.242 N 
HETATM   22  C   UNL     1      38.322 -13.853   1.035  1.00  0.00     0.272 A 
HETATM   23  H   UNL     1      38.662 -15.802   0.506  1.00  0.00     0.192 HD
HETATM   24  O   UNL     1      37.635 -13.570   0.061  1.00  0.00    -0.266 OA
HETATM   25  C   UNL     1      38.622 -12.857   2.079  1.00  0.00     0.046 A 
HETATM   26  C   UNL     1      39.403 -13.231   3.173  1.00  0.00     0.016 A 
HETATM   27  C   UNL     1      38.141 -11.547   1.960  1.00  0.00     0.018 A 
HETATM   28  C   UNL     1      39.730 -12.275   4.140  1.00  0.00     0.015 A 
HETATM   29  C   UNL     1      39.251 -10.965   4.021  1.00  0.00     0.001 A 
HETATM   30  C   UNL     1      38.455 -10.604   2.936  1.00  0.00     0.001 A 
ENDBRANCH   2  19
TORSDOF 4
ENDMDL
MODEL 8
REMARK VINA RESULT:      -8.1      2.605      7.273
REMARK  4 active torsions:
REMARK  status: ('A' for Active; 'I' for Inactive)
REMARK    1  A    between atoms: C_2  and  C_3 
REMARK    2  A    between atoms: C_3  and  N_4 
REMARK    3  A    between atoms: C_3  and  C_18 
REMARK       I    between atoms: N_4  and  C_5 
REMARK    4  A    between atoms: C_5  and  C_6 
ROOT
HETATM    1  N   UNL     1      42.002 -15.472   2.298  1.00  0.00    -0.344 N 
HETATM    2  C   UNL     1      43.230 -15.632   2.896  1.00  0.00     0.273 C 
HETATM    3  O   UNL     1      44.030 -14.732   3.100  1.00  0.00    -0.266 OA
HETATM    4  H   UNL     1      41.607 -16.317   1.893  1.00  0.00     0.163 HD
ENDROOT
BRANCH   1   5
HETATM    5  C   UNL     1      41.548 -14.184   1.796  1.00  0.00     0.158 C 
BRANCH   5   6
HETATM    6  C   UNL     1      40.639 -13.441   2.810  1.00  0.00     0.008 C 
HETATM    7  C   UNL     1      41.428 -12.345   3.536  1.00  0.00     0.012 C 
HETATM    8  C   UNL     1      39.972 -14.351   3.850  1.00  0.00     0.012 C 
ENDBRANCH   5   6
BRANCH   5   9
HETATM    9  C   UNL     1      40.901 -14.372   0.446  1.00  0.00     0.128 A 
HETATM   10  N   UNL     1      39.763 -13.869   0.007  1.00  0.00    -0.231 NA
HETATM   11  C   UNL     1      39.635 -14.307  -1.288  1.00  0.00     0.085 A 
HETATM   12  C   UNL     1      40.716 -15.098  -1.655  1.00  0.00     0.062 A 
HETATM   13  C   UNL     1      38.613 -14.069  -2.219  1.00  0.00     0.034 A 
HETATM   14  N   UNL     1      41.516 -15.107  -0.544  1.00  0.00    -0.341 N 
HETATM   15  C   UNL     1      40.843 -15.690  -2.913  1.00  0.00     0.032 A 
HETATM   16  H   UNL     1      42.404 -15.584  -0.443  1.00  0.00     0.167 HD
HETATM   17  C   UNL     1      39.812 -15.445  -3.828  1.00  0.00     0.002 A 
HETATM   18  C   UNL     1      38.716 -14.646  -3.491  1.00  0.00     0.002 A 
ENDBRANCH   5   9
ENDBRANCH   1   5
BRANCH   2  19
HETATM   19  C   UNL     1      43.576 -17.085   3.213  1.00  0.00     0.155 A 
HETATM   20  N   UNL     1      43.917 -17.818   2.189  1.00  0.00    -0.166 NA
HETATM   21  N   UNL     1      44.269 -19.112   2.421  1.00  0.00    -0.242 N 
HETATM   22  C   UNL     1      44.336 -19.725   3.650  1.00  0.00     0.272 A 
HETATM   23  H   UNL     1      44.558 -19.661   1.614  1.00  0.00     0.192 HD
HETATM   24  O   UNL     1      44.705 -20.886   3.785  1.00  0.00    -0.266 OA
HETATM   25  C   UNL     1      43.923 -18.910   4.805  1.00  0.00     0.046 A 
HETATM   26  C   UNL     1      43.519 -17.591   4.600  1.00  0.00     0.016 A 
HETATM   27  C   UNL     1      43.924 -19.464   6.092  1.00  0.00     0.018 A 
HETATM   28  C   UNL     1      43.081 -16.830   5.689  1.00  0.00     0.015 A 
HETATM   29  C   UNL     1      43.078 -17.384   6.974  1.00  0.00     0.001 A 
HETATM   30  C   UNL     1      43.503 -18.695   7.175  1.00  0.00     0.001 A 
ENDBRANCH   2  19
TORSDOF 4
ENDMDL
MODEL 9
REMARK VINA RESULT:      -8.0      1.488      1.546
REMARK  4 active torsions:
REMARK  status: ('A' for Active; 'I' for Inactive)
REMARK    1  A    between atoms: C_2  and  C_3 
REMARK    2  A    between atoms: C_3  and  N_4 
REMARK    3  A    between atoms: C_3  and  C_18 
REMARK       I    between atoms: N_4  and  C_5 
REMARK    4  A    between atoms: C_5  and  C_6 
ROOT
HETATM    1  N   UNL     1      42.742 -15.348   4.054  1.00  0.00    -0.344 N 
HETATM    2  C   UNL     1      41.580 -14.617   3.974  1.00  0.00     0.273 C 
HETATM    3  O   UNL     1      40.654 -14.687   4.767  1.00  0.00    -0.266 OA
HETATM    4  H   UNL     1      43.251 -15.445   3.180  1.00  0.00     0.163 HD
ENDROOT
BRANCH   1   5
HETATM    5  C   UNL     1      42.963 -16.337   5.099  1.00  0.00     0.158 C 
BRANCH   5   6
HETATM    6  C   UNL     1      43.979 -15.852   6.166  1.00  0.00     0.008 C 
HETATM    7  C   UNL     1      43.573 -16.348   7.559  1.00  0.00     0.012 C 
HETATM    8  C   UNL     1      44.176 -14.332   6.212  1.00  0.00     0.012 C 
ENDBRANCH   5   6
BRANCH   5   9
HETATM    9  C   UNL     1      43.344 -17.654   4.470  1.00  0.00     0.128 A 
HETATM   10  N   UNL     1      44.127 -18.597   4.958  1.00  0.00    -0.231 NA
HETATM   11  C   UNL     1      44.130 -19.603   4.023  1.00  0.00     0.085 A 
HETATM   12  C   UNL     1      43.332 -19.273   2.936  1.00  0.00     0.062 A 
HETATM   13  C   UNL     1      44.797 -20.837   4.035  1.00  0.00     0.034 A 
HETATM   14  N   UNL     1      42.828 -18.040   3.252  1.00  0.00    -0.341 N 
HETATM   15  C   UNL     1      43.160 -20.105   1.828  1.00  0.00     0.032 A 
HETATM   16  H   UNL     1      42.197 -17.482   2.689  1.00  0.00     0.167 HD
HETATM   17  C   UNL     1      43.836 -21.332   1.855  1.00  0.00     0.002 A 
HETATM   18  C   UNL     1      44.638 -21.695   2.940  1.00  0.00     0.002 A 
ENDBRANCH   5   9
ENDBRANCH   1   5
BRANCH   2  19
HETATM   19  C   UNL     1      41.485 -13.748   2.721  1.00  0.00     0.155 A 
HETATM   20  N   UNL     1      42.515 -12.982   2.491  1.00  0.00    -0.166 NA
HETATM   21  N   UNL     1      42.497 -12.212   1.368  1.00  0.00    -0.242 N 
HETATM   22  C   UNL     1      41.503 -12.186   0.419  1.00  0.00     0.272 A 
HETATM   23  H   UNL     1      43.320 -11.641   1.190  1.00  0.00     0.192 HD
HETATM   24  O   UNL     1      41.576 -11.498  -0.591  1.00  0.00    -0.266 OA
HETATM   25  C   UNL     1      40.325 -13.028   0.692  1.00  0.00     0.046 A 
HETATM   26  C   UNL     1      40.292 -13.801   1.853  1.00  0.00     0.016 A 
HETATM   27  C   UNL     1      39.245 -13.036  -0.201  1.00  0.00     0.018 A 
HETATM   28  C   UNL     1      39.154 -14.563   2.138  1.00  0.00     0.015 A 
HETATM   29  C   UNL     1      38.074 -14.569   1.248  1.00  0.00     0.001 A 
HETATM   30  C   UNL     1      38.122 -13.812   0.080  1.00  0.00     0.001 A 
ENDBRANCH   2  19
TORSDOF 4
ENDMDL
MODEL 10
REMARK VINA RESULT:      -7.8      2.188      3.280
REMARK  4 active torsions:
REMARK  status: ('A' for Active; 'I' for Inactive)
REMARK    1  A    between atoms: C_2  and  C_3 
REMARK    2  A    between atoms: C_3  and  N_4 
REMARK    3  A    between atoms: C_3  and  C_18 
REMARK       I    between atoms: N_4  and  C_5 
REMARK    4  A    between atoms: C_5  and  C_6 
ROOT
HETATM    1  N   UNL     1      42.239 -16.191   5.166  1.00  0.00    -0.344 N 
HETATM    2  C   UNL     1      40.992 -15.664   5.410  1.00  0.00     0.273 C 
HETATM    3  O   UNL     1      40.221 -16.063   6.270  1.00  0.00    -0.266 OA
HETATM    4  H   UNL     1      42.611 -16.003   4.239  1.00  0.00     0.163 HD
ENDROOT
BRANCH   1   5
HETATM    5  C   UNL     1      42.752 -17.337   5.902  1.00  0.00     0.158 C 
BRANCH   5   6
HETATM    6  C   UNL     1      43.906 -16.954   6.864  1.00  0.00     0.008 C 
HETATM    7  C   UNL     1      43.537 -17.302   8.311  1.00  0.00     0.012 C 
HETATM    8  C   UNL     1      44.329 -15.481   6.794  1.00  0.00     0.012 C 
ENDBRANCH   5   6
BRANCH   5   9
HETATM    9  C   UNL     1      43.126 -18.429   4.930  1.00  0.00     0.128 A 
HETATM   10  N   UNL     1      42.826 -18.521   3.648  1.00  0.00    -0.231 NA
HETATM   11  C   UNL     1      43.422 -19.675   3.205  1.00  0.00     0.085 A 
HETATM   12  C   UNL     1      44.106 -20.309   4.235  1.00  0.00     0.062 A 
HETATM   13  C   UNL     1      43.425 -20.250   1.925  1.00  0.00     0.034 A 
HETATM   14  N   UNL     1      43.919 -19.487   5.315  1.00  0.00    -0.341 N 
HETATM   15  C   UNL     1      44.795 -21.511   4.074  1.00  0.00     0.032 A 
HETATM   16  H   UNL     1      44.280 -19.629   6.251  1.00  0.00     0.167 HD
HETATM   17  C   UNL     1      44.783 -22.074   2.791  1.00  0.00     0.002 A 
HETATM   18  C   UNL     1      44.113 -21.455   1.733  1.00  0.00     0.002 A 
ENDBRANCH   5   9
ENDBRANCH   1   5
BRANCH   2  19
HETATM   19  C   UNL     1      40.586 -14.565   4.431  1.00  0.00     0.155 A 
HETATM   20  N   UNL     1      40.066 -14.977   3.308  1.00  0.00    -0.166 NA
HETATM   21  N   UNL     1      39.654 -14.037   2.414  1.00  0.00    -0.242 N 
HETATM   22  C   UNL     1      39.699 -12.674   2.593  1.00  0.00     0.272 A 
HETATM   23  H   UNL     1      39.226 -14.376   1.556  1.00  0.00     0.192 HD
HETATM   24  O   UNL     1      39.268 -11.888   1.759  1.00  0.00    -0.266 OA
HETATM   25  C   UNL     1      40.313 -12.205   3.848  1.00  0.00     0.046 A 
HETATM   26  C   UNL     1      40.781 -13.141   4.769  1.00  0.00     0.016 A 
HETATM   27  C   UNL     1      40.436 -10.832   4.098  1.00  0.00     0.018 A 
HETATM   28  C   UNL     1      41.408 -12.697   5.939  1.00  0.00     0.015 A 
HETATM   29  C   UNL     1      41.534 -11.326   6.189  1.00  0.00     0.001 A 
HETATM   30  C   UNL     1      41.045 -10.396   5.273  1.00  0.00     0.001 A 
ENDBRANCH   2  19
TORSDOF 4
ENDMDL
