MODEL 1
REMARK VINA RESULT:      -8.0      0.000      0.000
REMARK  6 active torsions:
REMARK  status: ('A' for Active; 'I' for Inactive)
REMARK    1  A    between atoms: C_8  and  N_9 
REMARK       I    between atoms: N_9  and  C_10 
REMARK    2  A    between atoms: C_10  and  C_11 
REMARK    3  A    between atoms: C_11  and  N_12 
REMARK    4  A    between atoms: N_12  and  C_15 
REMARK    5  A    between atoms: C_15  and  C_16 
REMARK    6  A    between atoms: C_16  and  C_17 
ROOT
HETATM    1  N   UNL     1      41.317 -16.203   2.949  1.00  0.00    -0.062 N 
HETATM    2  H   UNL     1      42.153 -15.679   2.653  1.00  0.00     0.278 HD
HETATM    3  H   UNL     1      40.883 -15.641   3.698  1.00  0.00     0.278 HD
ENDROOT
BRANCH   1   4
HETATM    4  C   UNL     1      40.272 -16.205   1.859  1.00  0.00     0.335 C 
BRANCH   4   5
HETATM    5  C   UNL     1      40.903 -16.123   0.470  1.00  0.00     0.248 C 
HETATM    6  N   UNL     1      40.358 -15.153  -0.338  1.00  0.00    -0.322 N 
HETATM    7  H   UNL     1      39.536 -14.648  -0.027  1.00  0.00     0.169 HD
HETATM    8  O   UNL     1      41.835 -16.883   0.215  1.00  0.00    -0.271 OA
BRANCH   6   9
HETATM    9  C   UNL     1      40.799 -14.779  -1.601  1.00  0.00     0.085 A 
HETATM   10  C   UNL     1      41.641 -13.694  -1.774  1.00  0.00     0.052 A 
HETATM   11  C   UNL     1      42.247 -12.724  -0.831  1.00  0.00     0.072 C 
HETATM   12  N   UNL     1      41.881 -13.615  -3.118  1.00  0.00    -0.280 N 
HETATM   13  H   UNL     1      42.451 -12.940  -3.619  1.00  0.00     0.189 HD
HETATM   14  N   UNL     1      41.274 -14.569  -3.824  1.00  0.00    -0.177 NA
HETATM   15  C   UNL     1      40.599 -15.290  -2.918  1.00  0.00     0.079 A 
HETATM   16  C   UNL     1      39.811 -16.444  -3.416  1.00  0.00     0.075 C 
ENDBRANCH   6   9
ENDBRANCH   4   5
ENDBRANCH   1   4
BRANCH   1  17
HETATM   17  C   UNL     1      41.728 -17.527   3.592  1.00  0.00     0.194 C 
HETATM   18  C   UNL     1      41.060 -17.532   4.975  1.00  0.00     0.041 C 
BRANCH  17  19
HETATM   19  C   UNL     1      43.297 -17.762   3.593  1.00  0.00     0.007 C 
HETATM   20  C   UNL     1      43.997 -16.801   2.591  1.00  0.00     0.022 C 
HETATM   21  C   UNL     1      43.871 -17.317   4.969  1.00  0.00     0.022 C 
BRANCH  19  22
HETATM   22  C   UNL     1      43.648 -19.226   3.253  1.00  0.00    -0.048 A 
HETATM   23  C   UNL     1      44.432 -20.002   4.129  1.00  0.00     0.008 A 
HETATM   24  C   UNL     1      44.792 -21.317   3.817  1.00  0.00     0.001 A 
HETATM   25  C   UNL     1      44.380 -21.890   2.622  1.00  0.00     0.000 A 
HETATM   26  C   UNL     1      43.600 -21.152   1.741  1.00  0.00     0.001 A 
HETATM   27  C   UNL     1      43.235 -19.838   2.054  1.00  0.00     0.008 A 
ENDBRANCH  19  22
ENDBRANCH  17  19
ENDBRANCH   1  17
TORSDOF 6
ENDMDL
MODEL 2
REMARK VINA RESULT:      -7.9      1.218      2.125
REMARK  6 active torsions:
REMARK  status: ('A' for Active; 'I' for Inactive)
REMARK    1  A    between atoms: C_8  and  N_9 
REMARK       I    between atoms: N_9  and  C_10 
REMARK    2  A    between atoms: C_10  and  C_11 
REMARK    3  A    between atoms: C_11  and  N_12 
REMARK    4  A    between atoms: N_12  and  C_15 
REMARK    5  A    between atoms: C_15  and  C_16 
REMARK    6  A    between atoms: C_16  and  C_17 
ROOT
HETATM    1  N   UNL     1      41.454 -16.657   1.406  1.00  0.00    -0.062 N 
HETATM    2  H   UNL     1      41.195 -17.189   0.563  1.00  0.00     0.278 HD
HETATM    3  H   UNL     1      42.331 -16.167   1.171  1.00  0.00     0.278 HD
ENDROOT
BRANCH   1   4
HETATM    4  C   UNL     1      40.477 -15.531   1.650  1.00  0.00     0.335 C 
BRANCH   4   5
HETATM    5  C   UNL     1      40.411 -14.571   0.462  1.00  0.00     0.248 C 
HETATM    6  N   UNL     1      41.518 -14.611  -0.354  1.00  0.00    -0.322 N 
HETATM    7  H   UNL     1      42.323 -15.162  -0.076  1.00  0.00     0.169 HD
HETATM    8  O   UNL     1      39.396 -13.895   0.323  1.00  0.00    -0.271 OA
BRANCH   6   9
HETATM    9  C   UNL     1      41.690 -13.937  -1.556  1.00  0.00     0.085 A 
HETATM   10  C   UNL     1      41.276 -14.493  -2.754  1.00  0.00     0.052 A 
HETATM   11  C   UNL     1      40.628 -15.780  -3.102  1.00  0.00     0.072 C 
HETATM   12  N   UNL     1      41.583 -13.574  -3.720  1.00  0.00    -0.280 N 
HETATM   13  H   UNL     1      41.431 -13.637  -4.722  1.00  0.00     0.189 HD
HETATM   14  N   UNL     1      42.147 -12.466  -3.240  1.00  0.00    -0.177 NA
HETATM   15  C   UNL     1      42.230 -12.667  -1.918  1.00  0.00     0.079 A 
HETATM   16  C   UNL     1      42.829 -11.584  -1.100  1.00  0.00     0.075 C 
ENDBRANCH   6   9
ENDBRANCH   4   5
ENDBRANCH   1   4
BRANCH   1  17
HETATM   17  C   UNL     1      41.789 -17.614   2.549  1.00  0.00     0.194 C 
HETATM   18  C   UNL     1      41.051 -17.056   3.775  1.00  0.00     0.041 C 
BRANCH  17  19
HETATM   19  C   UNL     1      43.348 -17.840   2.737  1.00  0.00     0.007 C 
HETATM   20  C   UNL     1      44.146 -17.154   1.593  1.00  0.00     0.022 C 
HETATM   21  C   UNL     1      43.818 -17.072   4.006  1.00  0.00     0.022 C 
BRANCH  19  22
HETATM   22  C   UNL     1      43.696 -19.343   2.796  1.00  0.00    -0.048 A 
HETATM   23  C   UNL     1      44.467 -19.865   3.853  1.00  0.00     0.008 A 
HETATM   24  C   UNL     1      44.824 -21.216   3.900  1.00  0.00     0.001 A 
HETATM   25  C   UNL     1      44.422 -22.081   2.892  1.00  0.00     0.000 A 
HETATM   26  C   UNL     1      43.655 -21.597   1.840  1.00  0.00     0.001 A 
HETATM   27  C   UNL     1      43.293 -20.246   1.794  1.00  0.00     0.008 A 
ENDBRANCH  19  22
ENDBRANCH  17  19
ENDBRANCH   1  17
TORSDOF 6
ENDMDL
MODEL 3
REMARK VINA RESULT:      -7.8      1.356      1.622
REMARK  6 active torsions:
REMARK  status: ('A' for Active; 'I' for Inactive)
REMARK    1  A    between atoms: C_8  and  N_9 
REMARK       I    between atoms: N_9  and  C_10 
REMARK    2  A    between atoms: C_10  and  C_11 
REMARK    3  A    between atoms: C_11  and  N_12 
REMARK    4  A    between atoms: N_12  and  C_15 
REMARK    5  A    between atoms: C_15  and  C_16 
REMARK    6  A    between atoms: C_16  and  C_17 
ROOT
HETATM    1  N   UNL     1      40.313 -16.785   1.745  1.00  0.00    -0.062 N 
HETATM    2  H   UNL     1      39.657 -17.563   1.585  1.00  0.00     0.278 HD
HETATM    3  H   UNL     1      40.878 -16.712   0.884  1.00  0.00     0.278 HD
ENDROOT
BRANCH   1   4
HETATM    4  C   UNL     1      39.579 -15.467   1.797  1.00  0.00     0.335 C 
BRANCH   4   5
HETATM    5  C   UNL     1      39.734 -14.681   0.495  1.00  0.00     0.248 C 
HETATM    6  N   UNL     1      40.646 -15.220  -0.381  1.00  0.00    -0.322 N 
HETATM    7  H   UNL     1      41.219 -16.003  -0.086  1.00  0.00     0.169 HD
HETATM    8  O   UNL     1      39.029 -13.687   0.335  1.00  0.00    -0.271 OA
BRANCH   6   9
HETATM    9  C   UNL     1      40.913 -14.788  -1.674  1.00  0.00     0.085 A 
HETATM   10  C   UNL     1      41.694 -13.669  -1.907  1.00  0.00     0.052 A 
HETATM   11  C   UNL     1      42.384 -12.711  -1.010  1.00  0.00     0.072 C 
HETATM   12  N   UNL     1      41.760 -13.534  -3.266  1.00  0.00    -0.280 N 
HETATM   13  H   UNL     1      42.243 -12.823  -3.808  1.00  0.00     0.189 HD
HETATM   14  N   UNL     1      41.099 -14.484  -3.928  1.00  0.00    -0.177 NA
HETATM   15  C   UNL     1      40.565 -15.259  -2.974  1.00  0.00     0.079 A 
HETATM   16  C   UNL     1      39.755 -16.422  -3.414  1.00  0.00     0.075 C 
ENDBRANCH   6   9
ENDBRANCH   4   5
ENDBRANCH   1   4
BRANCH   1  17
HETATM   17  C   UNL     1      41.286 -17.142   2.868  1.00  0.00     0.194 C 
HETATM   18  C   UNL     1      41.003 -16.130   3.988  1.00  0.00     0.041 C 
BRANCH  17  19
HETATM   19  C   UNL     1      42.796 -17.219   2.386  1.00  0.00     0.007 C 
HETATM   20  C   UNL     1      42.873 -17.333   0.837  1.00  0.00     0.022 C 
HETATM   21  C   UNL     1      43.486 -15.854   2.674  1.00  0.00     0.022 C 
BRANCH  19  22
HETATM   22  C   UNL     1      43.537 -18.404   3.041  1.00  0.00    -0.048 A 
HETATM   23  C   UNL     1      43.970 -18.333   4.379  1.00  0.00     0.008 A 
HETATM   24  C   UNL     1      44.677 -19.382   4.975  1.00  0.00     0.001 A 
HETATM   25  C   UNL     1      44.971 -20.528   4.250  1.00  0.00     0.000 A 
HETATM   26  C   UNL     1      44.551 -20.629   2.929  1.00  0.00     0.001 A 
HETATM   27  C   UNL     1      43.839 -19.583   2.333  1.00  0.00     0.008 A 
ENDBRANCH  19  22
ENDBRANCH  17  19
ENDBRANCH   1  17
TORSDOF 6
ENDMDL
MODEL 4
REMARK VINA RESULT:      -7.8      2.267      3.504
REMARK  6 active torsions:
REMARK  status: ('A' for Active; 'I' for Inactive)
REMARK    1  A    between atoms: C_8  and  N_9 
REMARK       I    between atoms: N_9  and  C_10 
REMARK    2  A    between atoms: C_10  and  C_11 
REMARK    3  A    between atoms: C_11  and  N_12 
REMARK    4  A    between atoms: N_12  and  C_15 
REMARK    5  A    between atoms: C_15  and  C_16 
REMARK    6  A    between atoms: C_16  and  C_17 
ROOT
HETATM    1  N   UNL     1      43.183 -16.333   5.822  1.00  0.00    -0.062 N 
HETATM    2  H   UNL     1      43.836 -16.344   6.618  1.00  0.00     0.278 HD
HETATM    3  H   UNL     1      42.248 -16.171   6.227  1.00  0.00     0.278 HD
ENDROOT
BRANCH   1   4
HETATM    4  C   UNL     1      43.410 -15.115   4.959  1.00  0.00     0.335 C 
BRANCH   4   5
HETATM    5  C   UNL     1      42.370 -15.011   3.843  1.00  0.00     0.248 C 
HETATM    6  N   UNL     1      42.872 -15.248   2.585  1.00  0.00    -0.322 N 
HETATM    7  H   UNL     1      43.872 -15.361   2.459  1.00  0.00     0.169 HD
HETATM    8  O   UNL     1      41.208 -14.766   4.159  1.00  0.00    -0.271 OA
BRANCH   6   9
HETATM    9  C   UNL     1      42.147 -15.329   1.403  1.00  0.00     0.085 A 
HETATM   10  C   UNL     1      41.684 -16.545   0.929  1.00  0.00     0.052 A 
HETATM   11  C   UNL     1      41.794 -17.935   1.432  1.00  0.00     0.072 C 
HETATM   12  N   UNL     1      41.015 -16.266  -0.231  1.00  0.00    -0.280 N 
HETATM   13  H   UNL     1      40.544 -16.910  -0.859  1.00  0.00     0.189 HD
HETATM   14  N   UNL     1      40.996 -14.968  -0.534  1.00  0.00    -0.177 NA
HETATM   15  C   UNL     1      41.689 -14.375   0.446  1.00  0.00     0.079 A 
HETATM   16  C   UNL     1      41.843 -12.901   0.378  1.00  0.00     0.075 C 
ENDBRANCH   6   9
ENDBRANCH   4   5
ENDBRANCH   1   4
BRANCH   1  17
HETATM   17  C   UNL     1      43.132 -17.713   5.166  1.00  0.00     0.194 C 
HETATM   18  C   UNL     1      41.651 -18.118   5.188  1.00  0.00     0.041 C 
BRANCH  17  19
HETATM   19  C   UNL     1      44.133 -18.754   5.821  1.00  0.00     0.007 C 
HETATM   20  C   UNL     1      45.499 -18.081   6.136  1.00  0.00     0.022 C 
HETATM   21  C   UNL     1      43.600 -19.147   7.229  1.00  0.00     0.022 C 
BRANCH  19  22
HETATM   22  C   UNL     1      44.347 -19.981   4.909  1.00  0.00    -0.048 A 
HETATM   23  C   UNL     1      44.292 -19.856   3.507  1.00  0.00     0.008 A 
HETATM   24  C   UNL     1      44.444 -20.963   2.667  1.00  0.00     0.001 A 
HETATM   25  C   UNL     1      44.653 -22.225   3.206  1.00  0.00     0.000 A 
HETATM   26  C   UNL     1      44.718 -22.379   4.585  1.00  0.00     0.001 A 
HETATM   27  C   UNL     1      44.571 -21.271   5.426  1.00  0.00     0.008 A 
ENDBRANCH  19  22
ENDBRANCH  17  19
ENDBRANCH   1  17
TORSDOF 6
ENDMDL
MODEL 5
REMARK VINA RESULT:      -7.7      1.573      2.260
REMARK  6 active torsions:
REMARK  status: ('A' for Active; 'I' for Inactive)
REMARK    1  A    between atoms: C_8  and  N_9 
REMARK       I    between atoms: N_9  and  C_10 
REMARK    2  A    between atoms: C_10  and  C_11 
REMARK    3  A    between atoms: C_11  and  N_12 
REMARK    4  A    between atoms: N_12  and  C_15 
REMARK    5  A    between atoms: C_15  and  C_16 
REMARK    6  A    between atoms: C_16  and  C_17 
ROOT
HETATM    1  N   UNL     1      40.957 -16.920   3.704  1.00  0.00    -0.062 N 
HETATM    2  H   UNL     1      40.340 -17.397   4.377  1.00  0.00     0.278 HD
HETATM    3  H   UNL     1      40.629 -17.210   2.769  1.00  0.00     0.278 HD
ENDROOT
BRANCH   1   4
HETATM    4  C   UNL     1      40.713 -15.430   3.717  1.00  0.00     0.335 C 
BRANCH   4   5
HETATM    5  C   UNL     1      40.365 -14.902   2.325  1.00  0.00     0.248 C 
HETATM    6  N   UNL     1      41.403 -14.258   1.693  1.00  0.00    -0.322 N 
HETATM    7  H   UNL     1      42.262 -14.078   2.200  1.00  0.00     0.169 HD
HETATM    8  O   UNL     1      39.236 -15.120   1.892  1.00  0.00    -0.271 OA
BRANCH   6   9
HETATM    9  C   UNL     1      41.412 -13.777   0.390  1.00  0.00     0.085 A 
HETATM   10  C   UNL     1      41.560 -12.425   0.128  1.00  0.00     0.052 A 
HETATM   11  C   UNL     1      41.722 -11.237   0.999  1.00  0.00     0.072 C 
HETATM   12  N   UNL     1      41.533 -12.302  -1.234  1.00  0.00    -0.280 N 
HETATM   13  H   UNL     1      41.609 -11.458  -1.794  1.00  0.00     0.189 HD
HETATM   14  N   UNL     1      41.396 -13.465  -1.871  1.00  0.00    -0.177 NA
HETATM   15  C   UNL     1      41.312 -14.382  -0.898  1.00  0.00     0.079 A 
HETATM   16  C   UNL     1      41.149 -15.799  -1.308  1.00  0.00     0.075 C 
ENDBRANCH   6   9
ENDBRANCH   4   5
ENDBRANCH   1   4
BRANCH   1  17
HETATM   17  C   UNL     1      42.386 -17.443   3.838  1.00  0.00     0.194 C 
HETATM   18  C   UNL     1      43.193 -16.274   4.424  1.00  0.00     0.041 C 
BRANCH  17  19
HETATM   19  C   UNL     1      42.957 -18.057   2.491  1.00  0.00     0.007 C 
HETATM   20  C   UNL     1      41.844 -18.137   1.408  1.00  0.00     0.022 C 
HETATM   21  C   UNL     1      43.977 -17.055   1.875  1.00  0.00     0.022 C 
BRANCH  19  22
HETATM   22  C   UNL     1      43.569 -19.454   2.723  1.00  0.00    -0.048 A 
HETATM   23  C   UNL     1      43.404 -20.482   1.774  1.00  0.00     0.008 A 
HETATM   24  C   UNL     1      43.918 -21.764   1.987  1.00  0.00     0.001 A 
HETATM   25  C   UNL     1      44.609 -22.055   3.155  1.00  0.00     0.000 A 
HETATM   26  C   UNL     1      44.793 -21.060   4.107  1.00  0.00     0.001 A 
HETATM   27  C   UNL     1      44.284 -19.775   3.893  1.00  0.00     0.008 A 
ENDBRANCH  19  22
ENDBRANCH  17  19
ENDBRANCH   1  17
TORSDOF 6
ENDMDL
MODEL 6
REMARK VINA RESULT:      -7.6      2.070      3.199
REMARK  6 active torsions:
REMARK  status: ('A' for Active; 'I' for Inactive)
REMARK    1  A    between atoms: C_8  and  N_9 
REMARK       I    between atoms: N_9  and  C_10 
REMARK    2  A    between atoms: C_10  and  C_11 
REMARK    3  A    between atoms: C_11  and  N_12 
REMARK    4  A    between atoms: N_12  and  C_15 
REMARK    5  A    between atoms: C_15  and  C_16 
REMARK    6  A    between atoms: C_16  and  C_17 
ROOT
HETATM    1  N   UNL     1      42.800 -14.982   5.634  1.00  0.00    -0.062 N 
HETATM    2  H   UNL     1      43.823 -14.885   5.563  1.00  0.00     0.278 HD
HETATM    3  H   UNL     1      42.557 -14.695   6.595  1.00  0.00     0.278 HD
ENDROOT
BRANCH   1   4
HETATM    4  C   UNL     1      42.103 -13.956   4.773  1.00  0.00     0.335 C 
BRANCH   4   5
HETATM    5  C   UNL     1      42.448 -14.130   3.294  1.00  0.00     0.248 C 
HETATM    6  N   UNL     1      41.434 -14.673   2.541  1.00  0.00    -0.322 N 
HETATM    7  H   UNL     1      40.599 -15.016   3.001  1.00  0.00     0.169 HD
HETATM    8  O   UNL     1      43.553 -13.751   2.912  1.00  0.00    -0.271 OA
BRANCH   6   9
HETATM    9  C   UNL     1      41.423 -14.844   1.162  1.00  0.00     0.085 A 
HETATM   10  C   UNL     1      41.217 -16.091   0.597  1.00  0.00     0.052 A 
HETATM   11  C   UNL     1      40.988 -17.438   1.173  1.00  0.00     0.072 C 
HETATM   12  N   UNL     1      41.258 -15.901  -0.756  1.00  0.00    -0.280 N 
HETATM   13  H   UNL     1      41.152 -16.591  -1.495  1.00  0.00     0.189 HD
HETATM   14  N   UNL     1      41.457 -14.632  -1.110  1.00  0.00    -0.177 NA
HETATM   15  C   UNL     1      41.569 -13.966   0.048  1.00  0.00     0.079 A 
HETATM   16  C   UNL     1      41.802 -12.503  -0.027  1.00  0.00     0.075 C 
ENDBRANCH   6   9
ENDBRANCH   4   5
ENDBRANCH   1   4
BRANCH   1  17
HETATM   17  C   UNL     1      42.403 -16.453   5.512  1.00  0.00     0.194 C 
HETATM   18  C   UNL     1      41.029 -16.560   6.191  1.00  0.00     0.041 C 
BRANCH  17  19
HETATM   19  C   UNL     1      43.511 -17.448   6.057  1.00  0.00     0.007 C 
HETATM   20  C   UNL     1      44.773 -16.665   6.520  1.00  0.00     0.022 C 
HETATM   21  C   UNL     1      42.997 -18.101   7.372  1.00  0.00     0.022 C 
BRANCH  19  22
HETATM   22  C   UNL     1      43.902 -18.494   4.991  1.00  0.00    -0.048 A 
HETATM   23  C   UNL     1      44.706 -19.601   5.327  1.00  0.00     0.008 A 
HETATM   24  C   UNL     1      45.100 -20.537   4.366  1.00  0.00     0.001 A 
HETATM   25  C   UNL     1      44.705 -20.390   3.044  1.00  0.00     0.000 A 
HETATM   26  C   UNL     1      43.906 -19.312   2.684  1.00  0.00     0.001 A 
HETATM   27  C   UNL     1      43.506 -18.378   3.645  1.00  0.00     0.008 A 
ENDBRANCH  19  22
ENDBRANCH  17  19
ENDBRANCH   1  17
TORSDOF 6
ENDMDL
MODEL 7
REMARK VINA RESULT:      -7.6      1.987      2.818
REMARK  6 active torsions:
REMARK  status: ('A' for Active; 'I' for Inactive)
REMARK    1  A    between atoms: C_8  and  N_9 
REMARK       I    between atoms: N_9  and  C_10 
REMARK    2  A    between atoms: C_10  and  C_11 
REMARK    3  A    between atoms: C_11  and  N_12 
REMARK    4  A    between atoms: N_12  and  C_15 
REMARK    5  A    between atoms: C_15  and  C_16 
REMARK    6  A    between atoms: C_16  and  C_17 
ROOT
HETATM    1  N   UNL     1      40.969 -16.954   3.796  1.00  0.00    -0.062 N 
HETATM    2  H   UNL     1      40.279 -17.468   4.362  1.00  0.00     0.278 HD
HETATM    3  H   UNL     1      40.692 -17.100   2.813  1.00  0.00     0.278 HD
ENDROOT
BRANCH   1   4
HETATM    4  C   UNL     1      40.816 -15.464   3.988  1.00  0.00     0.335 C 
BRANCH   4   5
HETATM    5  C   UNL     1      40.846 -14.716   2.654  1.00  0.00     0.248 C 
HETATM    6  N   UNL     1      39.745 -14.940   1.861  1.00  0.00    -0.322 N 
HETATM    7  H   UNL     1      39.064 -15.639   2.137  1.00  0.00     0.169 HD
HETATM    8  O   UNL     1      41.802 -13.978   2.429  1.00  0.00    -0.271 OA
BRANCH   6   9
HETATM    9  C   UNL     1      39.449 -14.317   0.656  1.00  0.00     0.085 A 
HETATM   10  C   UNL     1      40.159 -14.612  -0.496  1.00  0.00     0.052 A 
HETATM   11  C   UNL     1      41.288 -15.529  -0.781  1.00  0.00     0.072 C 
HETATM   12  N   UNL     1      39.611 -13.839  -1.483  1.00  0.00    -0.280 N 
HETATM   13  H   UNL     1      39.876 -13.783  -2.462  1.00  0.00     0.189 HD
HETATM   14  N   UNL     1      38.596 -13.083  -1.064  1.00  0.00    -0.177 NA
HETATM   15  C   UNL     1      38.483 -13.352   0.243  1.00  0.00     0.079 A 
HETATM   16  C   UNL     1      37.418 -12.644   0.995  1.00  0.00     0.075 C 
ENDBRANCH   6   9
ENDBRANCH   4   5
ENDBRANCH   1   4
BRANCH   1  17
HETATM   17  C   UNL     1      42.352 -17.588   3.950  1.00  0.00     0.194 C 
HETATM   18  C   UNL     1      43.200 -16.538   4.682  1.00  0.00     0.041 C 
BRANCH  17  19
HETATM   19  C   UNL     1      42.954 -18.116   2.580  1.00  0.00     0.007 C 
HETATM   20  C   UNL     1      41.864 -18.132   1.471  1.00  0.00     0.022 C 
HETATM   21  C   UNL     1      43.983 -17.076   2.050  1.00  0.00     0.022 C 
BRANCH  19  22
HETATM   22  C   UNL     1      43.566 -19.524   2.740  1.00  0.00    -0.048 A 
HETATM   23  C   UNL     1      43.384 -20.506   1.747  1.00  0.00     0.008 A 
HETATM   24  C   UNL     1      43.899 -21.798   1.894  1.00  0.00     0.001 A 
HETATM   25  C   UNL     1      44.607 -22.143   3.037  1.00  0.00     0.000 A 
HETATM   26  C   UNL     1      44.808 -21.193   4.030  1.00  0.00     0.001 A 
HETATM   27  C   UNL     1      44.298 -19.898   3.883  1.00  0.00     0.008 A 
ENDBRANCH  19  22
ENDBRANCH  17  19
ENDBRANCH   1  17
TORSDOF 6
ENDMDL
MODEL 8
REMARK VINA RESULT:      -7.5      2.918      5.226
REMARK  6 active torsions:
REMARK  status: ('A' for Active; 'I' for Inactive)
REMARK    1  A    between atoms: C_8  and  N_9 
REMARK       I    between atoms: N_9  and  C_10 
REMARK    2  A    between atoms: C_10  and  C_11 
REMARK    3  A    between atoms: C_11  and  N_12 
REMARK    4  A    between atoms: N_12  and  C_15 
REMARK    5  A    between atoms: C_15  and  C_16 
REMARK    6  A    between atoms: C_16  and  C_17 
ROOT
HETATM    1  N   UNL     1      41.962 -16.529   1.922  1.00  0.00    -0.062 N 
HETATM    2  H   UNL     1      41.157 -16.925   2.429  1.00  0.00     0.278 HD
HETATM    3  H   UNL     1      42.009 -17.041   1.028  1.00  0.00     0.278 HD
ENDROOT
BRANCH   1   4
HETATM    4  C   UNL     1      41.682 -15.107   1.500  1.00  0.00     0.335 C 
BRANCH   4   5
HETATM    5  C   UNL     1      41.501 -14.184   2.705  1.00  0.00     0.248 C 
HETATM    6  N   UNL     1      40.286 -14.316   3.335  1.00  0.00    -0.322 N 
HETATM    7  H   UNL     1      39.570 -14.903   2.922  1.00  0.00     0.169 HD
HETATM    8  O   UNL     1      42.438 -13.453   3.016  1.00  0.00    -0.271 OA
BRANCH   6   9
HETATM    9  C   UNL     1      39.887 -13.692   4.510  1.00  0.00     0.085 A 
HETATM   10  C   UNL     1      40.133 -14.267   5.745  1.00  0.00     0.052 A 
HETATM   11  C   UNL     1      40.785 -15.532   6.160  1.00  0.00     0.072 C 
HETATM   12  N   UNL     1      39.626 -13.399   6.672  1.00  0.00    -0.280 N 
HETATM   13  H   UNL     1      39.618 -13.488   7.684  1.00  0.00     0.189 HD
HETATM   14  N   UNL     1      39.087 -12.304   6.136  1.00  0.00    -0.177 NA
HETATM   15  C   UNL     1      39.228 -12.463   4.813  1.00  0.00     0.079 A 
HETATM   16  C   UNL     1      38.711 -11.383   3.937  1.00  0.00     0.075 C 
ENDBRANCH   6   9
ENDBRANCH   4   5
ENDBRANCH   1   4
BRANCH   1  17
HETATM   17  C   UNL     1      43.259 -16.845   2.666  1.00  0.00     0.194 C 
HETATM   18  C   UNL     1      44.285 -17.176   1.571  1.00  0.00     0.041 C 
BRANCH  17  19
HETATM   19  C   UNL     1      43.082 -17.951   3.790  1.00  0.00     0.007 C 
HETATM   20  C   UNL     1      43.825 -17.536   5.091  1.00  0.00     0.022 C 
HETATM   21  C   UNL     1      41.590 -17.986   4.230  1.00  0.00     0.022 C 
BRANCH  19  22
HETATM   22  C   UNL     1      43.588 -19.328   3.309  1.00  0.00    -0.048 A 
HETATM   23  C   UNL     1      43.095 -19.903   2.121  1.00  0.00     0.008 A 
HETATM   24  C   UNL     1      43.514 -21.167   1.693  1.00  0.00     0.001 A 
HETATM   25  C   UNL     1      44.433 -21.890   2.441  1.00  0.00     0.000 A 
HETATM   26  C   UNL     1      44.941 -21.345   3.614  1.00  0.00     0.001 A 
HETATM   27  C   UNL     1      44.528 -20.079   4.041  1.00  0.00     0.008 A 
ENDBRANCH  19  22
ENDBRANCH  17  19
ENDBRANCH   1  17
TORSDOF 6
ENDMDL
MODEL 9
REMARK VINA RESULT:      -7.4      1.852      2.582
REMARK  6 active torsions:
REMARK  status: ('A' for Active; 'I' for Inactive)
REMARK    1  A    between atoms: C_8  and  N_9 
REMARK       I    between atoms: N_9  and  C_10 
REMARK    2  A    between atoms: C_10  and  C_11 
REMARK    3  A    between atoms: C_11  and  N_12 
REMARK    4  A    between atoms: N_12  and  C_15 
REMARK    5  A    between atoms: C_15  and  C_16 
REMARK    6  A    between atoms: C_16  and  C_17 
ROOT
HETATM    1  N   UNL     1      42.424 -15.915   2.053  1.00  0.00    -0.062 N 
HETATM    2  H   UNL     1      42.603 -14.910   2.192  1.00  0.00     0.278 HD
HETATM    3  H   UNL     1      41.611 -16.140   2.647  1.00  0.00     0.278 HD
ENDROOT
BRANCH   1   4
HETATM    4  C   UNL     1      41.923 -16.182   0.654  1.00  0.00     0.335 C 
BRANCH   4   5
HETATM    5  C   UNL     1      41.343 -14.923   0.010  1.00  0.00     0.248 C 
HETATM    6  N   UNL     1      40.136 -15.119  -0.618  1.00  0.00    -0.322 N 
HETATM    7  H   UNL     1      39.769 -16.059  -0.714  1.00  0.00     0.169 HD
HETATM    8  O   UNL     1      41.969 -13.873   0.135  1.00  0.00    -0.271 OA
BRANCH   6   9
HETATM    9  C   UNL     1      39.329 -14.143  -1.189  1.00  0.00     0.085 A 
HETATM   10  C   UNL     1      38.178 -13.704  -0.556  1.00  0.00     0.052 A 
HETATM   11  C   UNL     1      37.525 -14.070   0.724  1.00  0.00     0.072 C 
HETATM   12  N   UNL     1      37.639 -12.752  -1.376  1.00  0.00    -0.280 N 
HETATM   13  H   UNL     1      36.789 -12.211  -1.242  1.00  0.00     0.189 HD
HETATM   14  N   UNL     1      38.355 -12.531  -2.478  1.00  0.00    -0.177 NA
HETATM   15  C   UNL     1      39.390 -13.376  -2.391  1.00  0.00     0.079 A 
HETATM   16  C   UNL     1      40.379 -13.361  -3.497  1.00  0.00     0.075 C 
ENDBRANCH   6   9
ENDBRANCH   4   5
ENDBRANCH   1   4
BRANCH   1  17
HETATM   17  C   UNL     1      43.593 -16.736   2.597  1.00  0.00     0.194 C 
HETATM   18  C   UNL     1      44.295 -17.312   1.358  1.00  0.00     0.041 C 
BRANCH  17  19
HETATM   19  C   UNL     1      43.155 -17.801   3.688  1.00  0.00     0.007 C 
HETATM   20  C   UNL     1      43.777 -17.459   5.072  1.00  0.00     0.022 C 
HETATM   21  C   UNL     1      41.626 -17.659   3.943  1.00  0.00     0.022 C 
BRANCH  19  22
HETATM   22  C   UNL     1      43.552 -19.233   3.269  1.00  0.00    -0.048 A 
HETATM   23  C   UNL     1      44.494 -19.968   4.016  1.00  0.00     0.008 A 
HETATM   24  C   UNL     1      44.894 -21.250   3.629  1.00  0.00     0.001 A 
HETATM   25  C   UNL     1      44.367 -21.831   2.483  1.00  0.00     0.000 A 
HETATM   26  C   UNL     1      43.432 -21.133   1.730  1.00  0.00     0.001 A 
HETATM   27  C   UNL     1      43.026 -19.852   2.119  1.00  0.00     0.008 A 
ENDBRANCH  19  22
ENDBRANCH  17  19
ENDBRANCH   1  17
TORSDOF 6
ENDMDL
MODEL 10
REMARK VINA RESULT:      -7.3      5.227      8.070
REMARK  6 active torsions:
REMARK  status: ('A' for Active; 'I' for Inactive)
REMARK    1  A    between atoms: C_8  and  N_9 
REMARK       I    between atoms: N_9  and  C_10 
REMARK    2  A    between atoms: C_10  and  C_11 
REMARK    3  A    between atoms: C_11  and  N_12 
REMARK    4  A    between atoms: N_12  and  C_15 
REMARK    5  A    between atoms: C_15  and  C_16 
REMARK    6  A    between atoms: C_16  and  C_17 
ROOT
HETATM    1  N   UNL     1      42.817 -15.578   5.807  1.00  0.00    -0.062 N 
HETATM    2  H   UNL     1      43.401 -16.033   6.523  1.00  0.00     0.278 HD
HETATM    3  H   UNL     1      41.846 -15.862   6.014  1.00  0.00     0.278 HD
ENDROOT
BRANCH   1   4
HETATM    4  C   UNL     1      42.796 -14.081   6.004  1.00  0.00     0.335 C 
BRANCH   4   5
HETATM    5  C   UNL     1      43.817 -13.634   7.050  1.00  0.00     0.248 C 
HETATM    6  N   UNL     1      43.548 -12.406   7.608  1.00  0.00    -0.322 N 
HETATM    7  H   UNL     1      42.792 -11.842   7.235  1.00  0.00     0.169 HD
HETATM    8  O   UNL     1      44.740 -14.399   7.318  1.00  0.00    -0.271 OA
BRANCH   6   9
HETATM    9  C   UNL     1      44.234 -11.800   8.652  1.00  0.00     0.085 A 
HETATM   10  C   UNL     1      43.559 -11.235   9.721  1.00  0.00     0.052 A 
HETATM   11  C   UNL     1      42.120 -11.102  10.051  1.00  0.00     0.072 C 
HETATM   12  N   UNL     1      44.523 -10.743  10.556  1.00  0.00    -0.280 N 
HETATM   13  H   UNL     1      44.404 -10.256  11.440  1.00  0.00     0.189 HD
HETATM   14  N   UNL     1      45.764 -10.958  10.122  1.00  0.00    -0.177 NA
HETATM   15  C   UNL     1      45.614 -11.596   8.953  1.00  0.00     0.079 A 
HETATM   16  C   UNL     1      46.846 -11.973   8.218  1.00  0.00     0.075 C 
ENDBRANCH   6   9
ENDBRANCH   4   5
ENDBRANCH   1   4
BRANCH   1  17
HETATM   17  C   UNL     1      43.143 -16.144   4.425  1.00  0.00     0.194 C 
HETATM   18  C   UNL     1      43.140 -14.933   3.479  1.00  0.00     0.041 C 
BRANCH  17  19
HETATM   19  C   UNL     1      42.194 -17.342   4.000  1.00  0.00     0.007 C 
HETATM   20  C   UNL     1      41.224 -17.713   5.158  1.00  0.00     0.022 C 
HETATM   21  C   UNL     1      41.233 -16.849   2.879  1.00  0.00     0.022 C 
BRANCH  19  22
HETATM   22  C   UNL     1      43.009 -18.583   3.576  1.00  0.00    -0.048 A 
HETATM   23  C   UNL     1      43.959 -19.153   4.445  1.00  0.00     0.008 A 
HETATM   24  C   UNL     1      44.734 -20.253   4.061  1.00  0.00     0.001 A 
HETATM   25  C   UNL     1      44.580 -20.809   2.798  1.00  0.00     0.000 A 
HETATM   26  C   UNL     1      43.645 -20.272   1.922  1.00  0.00     0.001 A 
HETATM   27  C   UNL     1      42.866 -19.175   2.307  1.00  0.00     0.008 A 
ENDBRANCH  19  22
ENDBRANCH  17  19
ENDBRANCH   1  17
TORSDOF 6
ENDMDL
