MODEL 1
REMARK VINA RESULT:      -9.2      0.000      0.000
REMARK  7 active torsions:
REMARK  status: ('A' for Active; 'I' for Inactive)
REMARK    1  A    between atoms: C_2  and  C_3 
REMARK    2  A    between atoms: C_3  and  C_4 
REMARK    3  A    between atoms: C_7  and  C_8 
REMARK    4  A    between atoms: C_10  and  C_11 
REMARK    5  A    between atoms: C_14  and  N_15 
REMARK    6  A    between atoms: N_15  and  C_16 
REMARK    7  A    between atoms: C_17  and  C_18 
ROOT
HETATM    1  C   UNL     1      41.537 -11.338   6.286  1.00  0.00     0.082 C 
HETATM    2  C   UNL     1      41.416 -10.074   5.448  1.00  0.00     0.024 C 
HETATM    3  N   UNL     1      41.316  -9.026   4.755  1.00  0.00    -0.096 N 
HETATM    4  C   UNL     1      41.915 -11.322   7.578  1.00  0.00     0.113 C 
ENDROOT
BRANCH   1   5
HETATM    5  C   UNL     1      41.151 -12.568   5.677  1.00  0.00     0.119 A 
HETATM    6  N   UNL     1      41.961 -13.524   5.264  1.00  0.00    -0.239 NA
HETATM    7  C   UNL     1      41.264 -14.525   4.596  1.00  0.00     0.075 A 
HETATM    8  C   UNL     1      39.892 -14.374   4.630  1.00  0.00     0.084 A 
HETATM    9  S   UNL     1      39.472 -12.918   5.424  1.00  0.00    -0.078 SA
BRANCH   7  10
HETATM   10  C   UNL     1      41.969 -15.614   3.919  1.00  0.00    -0.007 A 
HETATM   11  C   UNL     1      41.617 -16.942   4.198  1.00  0.00     0.014 A 
HETATM   12  C   UNL     1      42.294 -18.009   3.597  1.00  0.00     0.008 A 
HETATM   13  C   UNL     1      43.344 -17.772   2.703  1.00  0.00    -0.058 A 
HETATM   14  C   UNL     1      43.703 -16.449   2.423  1.00  0.00     0.008 A 
HETATM   15  C   UNL     1      43.025 -15.382   3.025  1.00  0.00     0.014 A 
BRANCH  13  16
HETATM   16  C   UNL     1      44.080 -18.920   2.055  1.00  0.00     0.042 C 
BRANCH  16  17
HETATM   17  C   UNL     1      43.900 -20.263   2.787  1.00  0.00    -0.019 C 
HETATM   18  C   UNL     1      44.987 -20.489   3.843  1.00  0.00     0.010 C 
HETATM   19  C   UNL     1      43.914 -21.412   1.777  1.00  0.00     0.010 C 
ENDBRANCH  16  17
ENDBRANCH  13  16
ENDBRANCH   7  10
ENDBRANCH   1   5
BRANCH   4  20
HETATM   20  N   UNL     1      42.359 -10.307   8.418  1.00  0.00    -0.364 N 
HETATM   21  H   UNL     1      43.137  -9.789   8.007  1.00  0.00     0.165 HD
BRANCH  20  22
HETATM   22  C   UNL     1      42.511 -10.492   9.817  1.00  0.00     0.048 A 
HETATM   23  C   UNL     1      43.777 -10.778  10.402  1.00  0.00     0.039 A 
HETATM   24  C   UNL     1      43.956 -10.760  11.794  1.00  0.00     0.057 A 
HETATM   25  C   UNL     1      42.860 -10.474  12.574  1.00  0.00     0.106 A 
HETATM   26  C   UNL     1      41.624 -10.230  12.024  1.00  0.00     0.107 A 
HETATM   27  O   UNL     1      42.849 -10.396  13.931  1.00  0.00    -0.323 OA
HETATM   28  O   UNL     1      40.683  -9.961  12.968  1.00  0.00    -0.323 OA
HETATM   29  C   UNL     1      41.415 -10.236  10.659  1.00  0.00     0.070 A 
HETATM   30  C   UNL     1      41.489  -9.980  14.166  1.00  0.00     0.352 A 
BRANCH  23  31
HETATM   31  C   UNL     1      44.963 -11.150   9.590  1.00  0.00     0.158 C 
HETATM   32  C   UNL     1      45.051 -12.548   9.031  1.00  0.00     0.097 C 
HETATM   33  O   UNL     1      45.871 -10.335   9.440  1.00  0.00    -0.293 OA
ENDBRANCH  23  31
ENDBRANCH  20  22
ENDBRANCH   4  20
TORSDOF 7
ENDMDL
MODEL 2
REMARK VINA RESULT:      -8.7      3.592      9.677
REMARK  7 active torsions:
REMARK  status: ('A' for Active; 'I' for Inactive)
REMARK    1  A    between atoms: C_2  and  C_3 
REMARK    2  A    between atoms: C_3  and  C_4 
REMARK    3  A    between atoms: C_7  and  C_8 
REMARK    4  A    between atoms: C_10  and  C_11 
REMARK    5  A    between atoms: C_14  and  N_15 
REMARK    6  A    between atoms: N_15  and  C_16 
REMARK    7  A    between atoms: C_17  and  C_18 
ROOT
HETATM    1  C   UNL     1      41.243 -13.213   4.664  1.00  0.00     0.082 C 
HETATM    2  C   UNL     1      41.921 -13.264   3.304  1.00  0.00     0.024 C 
HETATM    3  N   UNL     1      42.484 -13.306   2.176  1.00  0.00    -0.096 N 
HETATM    4  C   UNL     1      40.558 -14.254   5.176  1.00  0.00     0.113 C 
ENDROOT
BRANCH   1   5
HETATM    5  C   UNL     1      41.422 -12.033   5.444  1.00  0.00     0.119 A 
HETATM    6  N   UNL     1      41.905 -11.972   6.670  1.00  0.00    -0.239 NA
HETATM    7  C   UNL     1      41.817 -10.682   7.185  1.00  0.00     0.075 A 
HETATM    8  C   UNL     1      41.382  -9.741   6.274  1.00  0.00     0.084 A 
HETATM    9  S   UNL     1      40.989 -10.489   4.786  1.00  0.00    -0.078 SA
BRANCH   7  10
HETATM   10  C   UNL     1      42.154 -10.402   8.581  1.00  0.00    -0.007 A 
HETATM   11  C   UNL     1      41.447  -9.410   9.275  1.00  0.00     0.014 A 
HETATM   12  C   UNL     1      41.765  -9.091  10.600  1.00  0.00     0.008 A 
HETATM   13  C   UNL     1      42.803  -9.756  11.262  1.00  0.00    -0.058 A 
HETATM   14  C   UNL     1      43.515 -10.745  10.574  1.00  0.00     0.008 A 
HETATM   15  C   UNL     1      43.195 -11.064   9.249  1.00  0.00     0.014 A 
BRANCH  13  16
HETATM   16  C   UNL     1      43.154  -9.413  12.690  1.00  0.00     0.042 C 
BRANCH  16  17
HETATM   17  C   UNL     1      42.569 -10.394  13.724  1.00  0.00    -0.019 C 
HETATM   18  C   UNL     1      41.229 -10.975  13.264  1.00  0.00     0.010 C 
HETATM   19  C   UNL     1      42.392  -9.687  15.069  1.00  0.00     0.010 C 
ENDBRANCH  16  17
ENDBRANCH  13  16
ENDBRANCH   7  10
ENDBRANCH   1   5
BRANCH   4  20
HETATM   20  N   UNL     1      40.205 -15.496   4.659  1.00  0.00    -0.364 N 
HETATM   21  H   UNL     1      39.252 -15.755   4.917  1.00  0.00     0.165 HD
BRANCH  20  22
HETATM   22  C   UNL     1      41.091 -16.603   4.675  1.00  0.00     0.048 A 
HETATM   23  C   UNL     1      41.594 -17.178   3.474  1.00  0.00     0.039 A 
HETATM   24  C   UNL     1      42.621 -18.136   3.500  1.00  0.00     0.057 A 
HETATM   25  C   UNL     1      43.110 -18.514   4.728  1.00  0.00     0.106 A 
HETATM   26  C   UNL     1      42.610 -17.992   5.897  1.00  0.00     0.107 A 
HETATM   27  O   UNL     1      44.108 -19.410   4.944  1.00  0.00    -0.323 OA
HETATM   28  O   UNL     1      43.237 -18.492   6.996  1.00  0.00    -0.323 OA
HETATM   29  C   UNL     1      41.604 -17.045   5.907  1.00  0.00     0.070 A 
HETATM   30  C   UNL     1      44.245 -19.321   6.377  1.00  0.00     0.352 A 
BRANCH  23  31
HETATM   31  C   UNL     1      41.045 -16.837   2.138  1.00  0.00     0.158 C 
HETATM   32  C   UNL     1      41.984 -16.781   0.959  1.00  0.00     0.097 C 
HETATM   33  O   UNL     1      39.855 -16.550   2.030  1.00  0.00    -0.293 OA
ENDBRANCH  23  31
ENDBRANCH  20  22
ENDBRANCH   4  20
TORSDOF 7
ENDMDL
MODEL 3
REMARK VINA RESULT:      -8.6      3.679      9.347
REMARK  7 active torsions:
REMARK  status: ('A' for Active; 'I' for Inactive)
REMARK    1  A    between atoms: C_2  and  C_3 
REMARK    2  A    between atoms: C_3  and  C_4 
REMARK    3  A    between atoms: C_7  and  C_8 
REMARK    4  A    between atoms: C_10  and  C_11 
REMARK    5  A    between atoms: C_14  and  N_15 
REMARK    6  A    between atoms: N_15  and  C_16 
REMARK    7  A    between atoms: C_17  and  C_18 
ROOT
HETATM    1  C   UNL     1      39.836 -13.929   3.697  1.00  0.00     0.082 C 
HETATM    2  C   UNL     1      39.226 -13.864   2.305  1.00  0.00     0.024 C 
HETATM    3  N   UNL     1      38.722 -13.810   1.151  1.00  0.00    -0.096 N 
HETATM    4  C   UNL     1      40.464 -15.025   4.166  1.00  0.00     0.113 C 
ENDROOT
BRANCH   1   5
HETATM    5  C   UNL     1      39.798 -12.743   4.487  1.00  0.00     0.119 A 
HETATM    6  N   UNL     1      40.334 -12.581   5.681  1.00  0.00    -0.239 NA
HETATM    7  C   UNL     1      39.994 -11.348   6.226  1.00  0.00     0.075 A 
HETATM    8  C   UNL     1      39.300 -10.523   5.363  1.00  0.00     0.084 A 
HETATM    9  S   UNL     1      38.986 -11.333   3.888  1.00  0.00    -0.078 SA
BRANCH   7  10
HETATM   10  C   UNL     1      40.352 -11.006   7.603  1.00  0.00    -0.007 A 
HETATM   11  C   UNL     1      41.597 -10.416   7.866  1.00  0.00     0.014 A 
HETATM   12  C   UNL     1      41.987 -10.108   9.174  1.00  0.00     0.008 A 
HETATM   13  C   UNL     1      41.142 -10.388  10.253  1.00  0.00    -0.058 A 
HETATM   14  C   UNL     1      39.899 -10.981   9.998  1.00  0.00     0.008 A 
HETATM   15  C   UNL     1      39.510 -11.287   8.689  1.00  0.00     0.014 A 
BRANCH  13  16
HETATM   16  C   UNL     1      41.560 -10.063  11.667  1.00  0.00     0.042 C 
BRANCH  16  17
HETATM   17  C   UNL     1      43.066 -10.257  11.927  1.00  0.00    -0.019 C 
HETATM   18  C   UNL     1      43.444 -11.738  12.016  1.00  0.00     0.010 C 
HETATM   19  C   UNL     1      43.466  -9.542  13.218  1.00  0.00     0.010 C 
ENDBRANCH  16  17
ENDBRANCH  13  16
ENDBRANCH   7  10
ENDBRANCH   1   5
BRANCH   4  20
HETATM   20  N   UNL     1      40.641 -16.304   3.651  1.00  0.00    -0.364 N 
HETATM   21  H   UNL     1      39.748 -16.752   3.438  1.00  0.00     0.165 HD
BRANCH  20  22
HETATM   22  C   UNL     1      41.590 -17.212   4.186  1.00  0.00     0.048 A 
HETATM   23  C   UNL     1      42.546 -17.870   3.361  1.00  0.00     0.039 A 
HETATM   24  C   UNL     1      43.604 -18.606   3.919  1.00  0.00     0.057 A 
HETATM   25  C   UNL     1      43.673 -18.685   5.290  1.00  0.00     0.106 A 
HETATM   26  C   UNL     1      42.737 -18.084   6.097  1.00  0.00     0.107 A 
HETATM   27  O   UNL     1      44.630 -19.336   6.000  1.00  0.00    -0.323 OA
HETATM   28  O   UNL     1      42.995 -18.277   7.419  1.00  0.00    -0.323 OA
HETATM   29  C   UNL     1      41.687 -17.349   5.582  1.00  0.00     0.070 A 
HETATM   30  C   UNL     1      44.246 -18.995   7.347  1.00  0.00     0.352 A 
BRANCH  23  31
HETATM   31  C   UNL     1      42.463 -17.854   1.879  1.00  0.00     0.158 C 
HETATM   32  C   UNL     1      43.733 -17.692   1.083  1.00  0.00     0.097 C 
HETATM   33  O   UNL     1      41.362 -17.913   1.336  1.00  0.00    -0.293 OA
ENDBRANCH  23  31
ENDBRANCH  20  22
ENDBRANCH   4  20
TORSDOF 7
ENDMDL
MODEL 4
REMARK VINA RESULT:      -8.5      7.666     10.802
REMARK  7 active torsions:
REMARK  status: ('A' for Active; 'I' for Inactive)
REMARK    1  A    between atoms: C_2  and  C_3 
REMARK    2  A    between atoms: C_3  and  C_4 
REMARK    3  A    between atoms: C_7  and  C_8 
REMARK    4  A    between atoms: C_10  and  C_11 
REMARK    5  A    between atoms: C_14  and  N_15 
REMARK    6  A    between atoms: N_15  and  C_16 
REMARK    7  A    between atoms: C_17  and  C_18 
ROOT
HETATM    1  C   UNL     1      39.905 -12.928   0.317  1.00  0.00     0.082 C 
HETATM    2  C   UNL     1      39.251 -11.615   0.718  1.00  0.00     0.024 C 
HETATM    3  N   UNL     1      38.710 -10.526   1.049  1.00  0.00    -0.096 N 
HETATM    4  C   UNL     1      40.156 -13.257  -0.965  1.00  0.00     0.113 C 
ENDROOT
BRANCH   1   5
HETATM    5  C   UNL     1      40.333 -13.795   1.366  1.00  0.00     0.119 A 
HETATM    6  N   UNL     1      41.262 -14.728   1.279  1.00  0.00    -0.239 NA
HETATM    7  C   UNL     1      41.335 -15.479   2.447  1.00  0.00     0.075 A 
HETATM    8  C   UNL     1      40.535 -15.010   3.470  1.00  0.00     0.084 A 
HETATM    9  S   UNL     1      39.611 -13.672   2.937  1.00  0.00    -0.078 SA
BRANCH   7  10
HETATM   10  C   UNL     1      42.190 -16.664   2.530  1.00  0.00    -0.007 A 
HETATM   11  C   UNL     1      42.125 -17.483   3.666  1.00  0.00     0.014 A 
HETATM   12  C   UNL     1      42.953 -18.604   3.796  1.00  0.00     0.008 A 
HETATM   13  C   UNL     1      43.870 -18.931   2.791  1.00  0.00    -0.058 A 
HETATM   14  C   UNL     1      43.942 -18.115   1.656  1.00  0.00     0.008 A 
HETATM   15  C   UNL     1      43.113 -16.995   1.527  1.00  0.00     0.014 A 
BRANCH  13  16
HETATM   16  C   UNL     1      44.768 -20.137   2.927  1.00  0.00     0.042 C 
BRANCH  16  17
HETATM   17  C   UNL     1      44.027 -21.480   2.783  1.00  0.00    -0.019 C 
HETATM   18  C   UNL     1      44.599 -22.550   3.717  1.00  0.00     0.010 C 
HETATM   19  C   UNL     1      44.105 -21.963   1.334  1.00  0.00     0.010 C 
ENDBRANCH  16  17
ENDBRANCH  13  16
ENDBRANCH   7  10
ENDBRANCH   1   5
BRANCH   4  20
HETATM   20  N   UNL     1      39.847 -12.642  -2.173  1.00  0.00    -0.364 N 
HETATM   21  H   UNL     1      39.829 -11.625  -2.085  1.00  0.00     0.165 HD
BRANCH  20  22
HETATM   22  C   UNL     1      38.829 -13.130  -3.033  1.00  0.00     0.048 A 
HETATM   23  C   UNL     1      38.884 -14.438  -3.592  1.00  0.00     0.039 A 
HETATM   24  C   UNL     1      37.785 -14.985  -4.274  1.00  0.00     0.057 A 
HETATM   25  C   UNL     1      36.660 -14.205  -4.399  1.00  0.00     0.106 A 
HETATM   26  C   UNL     1      36.605 -12.928  -3.894  1.00  0.00     0.107 A 
HETATM   27  O   UNL     1      35.503 -14.572  -5.008  1.00  0.00    -0.323 OA
HETATM   28  O   UNL     1      35.402 -12.335  -4.117  1.00  0.00    -0.323 OA
HETATM   29  C   UNL     1      37.666 -12.361  -3.215  1.00  0.00     0.070 A 
HETATM   30  C   UNL     1      34.680 -13.418  -4.744  1.00  0.00     0.352 A 
BRANCH  23  31
HETATM   31  C   UNL     1      40.105 -15.280  -3.527  1.00  0.00     0.158 C 
HETATM   32  C   UNL     1      39.987 -16.690  -3.005  1.00  0.00     0.097 C 
HETATM   33  O   UNL     1      41.190 -14.796  -3.842  1.00  0.00    -0.293 OA
ENDBRANCH  23  31
ENDBRANCH  20  22
ENDBRANCH   4  20
TORSDOF 7
ENDMDL
MODEL 5
REMARK VINA RESULT:      -8.4      3.729      9.867
REMARK  7 active torsions:
REMARK  status: ('A' for Active; 'I' for Inactive)
REMARK    1  A    between atoms: C_2  and  C_3 
REMARK    2  A    between atoms: C_3  and  C_4 
REMARK    3  A    between atoms: C_7  and  C_8 
REMARK    4  A    between atoms: C_10  and  C_11 
REMARK    5  A    between atoms: C_14  and  N_15 
REMARK    6  A    between atoms: N_15  and  C_16 
REMARK    7  A    between atoms: C_17  and  C_18 
ROOT
HETATM    1  C   UNL     1      40.674 -13.949   4.590  1.00  0.00     0.082 C 
HETATM    2  C   UNL     1      39.875 -13.881   3.298  1.00  0.00     0.024 C 
HETATM    3  N   UNL     1      39.213 -13.825   2.227  1.00  0.00    -0.096 N 
HETATM    4  C   UNL     1      41.120 -15.109   5.110  1.00  0.00     0.113 C 
ENDROOT
BRANCH   1   5
HETATM    5  C   UNL     1      41.019 -12.715   5.216  1.00  0.00     0.119 A 
HETATM    6  N   UNL     1      41.611 -12.570   6.386  1.00  0.00    -0.239 NA
HETATM    7  C   UNL     1      41.677 -11.231   6.756  1.00  0.00     0.075 A 
HETATM    8  C   UNL     1      41.244 -10.355   5.781  1.00  0.00     0.084 A 
HETATM    9  S   UNL     1      40.661 -11.216   4.422  1.00  0.00    -0.078 SA
BRANCH   7  10
HETATM   10  C   UNL     1      42.157 -10.838   8.081  1.00  0.00    -0.007 A 
HETATM   11  C   UNL     1      43.339 -11.401   8.581  1.00  0.00     0.014 A 
HETATM   12  C   UNL     1      43.811 -11.076   9.858  1.00  0.00     0.008 A 
HETATM   13  C   UNL     1      43.105 -10.179  10.669  1.00  0.00    -0.058 A 
HETATM   14  C   UNL     1      41.923  -9.615  10.177  1.00  0.00     0.008 A 
HETATM   15  C   UNL     1      41.454  -9.942   8.899  1.00  0.00     0.014 A 
BRANCH  13  16
HETATM   16  C   UNL     1      43.606  -9.828  12.049  1.00  0.00     0.042 C 
BRANCH  16  17
HETATM   17  C   UNL     1      42.493  -9.384  13.017  1.00  0.00    -0.019 C 
HETATM   18  C   UNL     1      42.642  -7.915  13.424  1.00  0.00     0.010 C 
HETATM   19  C   UNL     1      42.505 -10.270  14.264  1.00  0.00     0.010 C 
ENDBRANCH  16  17
ENDBRANCH  13  16
ENDBRANCH   7  10
ENDBRANCH   1   5
BRANCH   4  20
HETATM   20  N   UNL     1      40.933 -16.438   4.748  1.00  0.00    -0.364 N 
HETATM   21  H   UNL     1      40.233 -16.895   5.335  1.00  0.00     0.165 HD
BRANCH  20  22
HETATM   22  C   UNL     1      42.017 -17.297   4.430  1.00  0.00     0.048 A 
HETATM   23  C   UNL     1      42.997 -17.657   5.398  1.00  0.00     0.039 A 
HETATM   24  C   UNL     1      43.945 -18.659   5.136  1.00  0.00     0.057 A 
HETATM   25  C   UNL     1      43.905 -19.268   3.903  1.00  0.00     0.106 A 
HETATM   26  C   UNL     1      42.986 -18.907   2.947  1.00  0.00     0.107 A 
HETATM   27  O   UNL     1      44.728 -20.264   3.483  1.00  0.00    -0.323 OA
HETATM   28  O   UNL     1      43.113 -19.637   1.807  1.00  0.00    -0.323 OA
HETATM   29  C   UNL     1      42.037 -17.928   3.174  1.00  0.00     0.070 A 
HETATM   30  C   UNL     1      44.160 -20.555   2.190  1.00  0.00     0.352 A 
BRANCH  23  31
HETATM   31  C   UNL     1      43.104 -16.976   6.713  1.00  0.00     0.158 C 
HETATM   32  C   UNL     1      44.196 -15.955   6.914  1.00  0.00     0.097 C 
HETATM   33  O   UNL     1      42.345 -17.298   7.623  1.00  0.00    -0.293 OA
ENDBRANCH  23  31
ENDBRANCH  20  22
ENDBRANCH   4  20
TORSDOF 7
ENDMDL
MODEL 6
REMARK VINA RESULT:      -8.1      1.859      2.924
REMARK  7 active torsions:
REMARK  status: ('A' for Active; 'I' for Inactive)
REMARK    1  A    between atoms: C_2  and  C_3 
REMARK    2  A    between atoms: C_3  and  C_4 
REMARK    3  A    between atoms: C_7  and  C_8 
REMARK    4  A    between atoms: C_10  and  C_11 
REMARK    5  A    between atoms: C_14  and  N_15 
REMARK    6  A    between atoms: N_15  and  C_16 
REMARK    7  A    between atoms: C_17  and  C_18 
ROOT
HETATM    1  C   UNL     1      40.451 -11.421   5.205  1.00  0.00     0.082 C 
HETATM    2  C   UNL     1      39.333 -10.430   4.918  1.00  0.00     0.024 C 
HETATM    3  N   UNL     1      38.406  -9.609   4.681  1.00  0.00    -0.096 N 
HETATM    4  C   UNL     1      41.386 -11.210   6.151  1.00  0.00     0.113 C 
ENDROOT
BRANCH   1   5
HETATM    5  C   UNL     1      40.440 -12.651   4.483  1.00  0.00     0.119 A 
HETATM    6  N   UNL     1      41.130 -13.736   4.777  1.00  0.00    -0.239 NA
HETATM    7  C   UNL     1      40.989 -14.707   3.791  1.00  0.00     0.075 A 
HETATM    8  C   UNL     1      40.071 -14.386   2.811  1.00  0.00     0.084 A 
HETATM    9  S   UNL     1      39.445 -12.815   3.073  1.00  0.00    -0.078 SA
BRANCH   7  10
HETATM   10  C   UNL     1      41.780 -15.938   3.827  1.00  0.00    -0.007 A 
HETATM   11  C   UNL     1      41.347 -17.012   4.617  1.00  0.00     0.014 A 
HETATM   12  C   UNL     1      42.095 -18.192   4.703  1.00  0.00     0.008 A 
HETATM   13  C   UNL     1      43.299 -18.323   4.002  1.00  0.00    -0.058 A 
HETATM   14  C   UNL     1      43.738 -17.253   3.214  1.00  0.00     0.008 A 
HETATM   15  C   UNL     1      42.988 -16.075   3.129  1.00  0.00     0.014 A 
BRANCH  13  16
HETATM   16  C   UNL     1      44.112 -19.592   4.095  1.00  0.00     0.042 C 
BRANCH  16  17
HETATM   17  C   UNL     1      44.306 -20.303   2.742  1.00  0.00    -0.019 C 
HETATM   18  C   UNL     1      43.086 -20.138   1.831  1.00  0.00     0.010 C 
HETATM   19  C   UNL     1      44.582 -21.790   2.972  1.00  0.00     0.010 C 
ENDBRANCH  16  17
ENDBRANCH  13  16
ENDBRANCH   7  10
ENDBRANCH   1   5
BRANCH   4  20
HETATM   20  N   UNL     1      41.661 -10.128   6.980  1.00  0.00    -0.364 N 
HETATM   21  H   UNL     1      42.410  -9.545   6.604  1.00  0.00     0.165 HD
BRANCH  20  22
HETATM   22  C   UNL     1      41.729 -10.254   8.392  1.00  0.00     0.048 A 
HETATM   23  C   UNL     1      40.597 -10.010   9.221  1.00  0.00     0.039 A 
HETATM   24  C   UNL     1      40.614 -10.329  10.588  1.00  0.00     0.057 A 
HETATM   25  C   UNL     1      41.770 -10.868  11.102  1.00  0.00     0.106 A 
HETATM   26  C   UNL     1      42.881 -11.077  10.321  1.00  0.00     0.107 A 
HETATM   27  O   UNL     1      41.962 -11.251  12.391  1.00  0.00    -0.323 OA
HETATM   28  O   UNL     1      43.910 -11.624  11.022  1.00  0.00    -0.323 OA
HETATM   29  C   UNL     1      42.897 -10.778   8.972  1.00  0.00     0.070 A 
HETATM   30  C   UNL     1      43.287 -11.814  12.311  1.00  0.00     0.352 A 
BRANCH  23  31
HETATM   31  C   UNL     1      39.358  -9.374   8.707  1.00  0.00     0.158 C 
HETATM   32  C   UNL     1      39.284  -7.869   8.652  1.00  0.00     0.097 C 
HETATM   33  O   UNL     1      38.401 -10.079   8.396  1.00  0.00    -0.293 OA
ENDBRANCH  23  31
ENDBRANCH  20  22
ENDBRANCH   4  20
TORSDOF 7
ENDMDL
MODEL 7
REMARK VINA RESULT:      -8.1      6.231      9.989
REMARK  7 active torsions:
REMARK  status: ('A' for Active; 'I' for Inactive)
REMARK    1  A    between atoms: C_2  and  C_3 
REMARK    2  A    between atoms: C_3  and  C_4 
REMARK    3  A    between atoms: C_7  and  C_8 
REMARK    4  A    between atoms: C_10  and  C_11 
REMARK    5  A    between atoms: C_14  and  N_15 
REMARK    6  A    between atoms: N_15  and  C_16 
REMARK    7  A    between atoms: C_17  and  C_18 
ROOT
HETATM    1  C   UNL     1      41.384 -15.168   2.962  1.00  0.00     0.082 C 
HETATM    2  C   UNL     1      41.840 -14.120   3.965  1.00  0.00     0.024 C 
HETATM    3  N   UNL     1      42.217 -13.251   4.798  1.00  0.00    -0.096 N 
HETATM    4  C   UNL     1      41.485 -16.491   3.194  1.00  0.00     0.113 C 
ENDROOT
BRANCH   1   5
HETATM    5  C   UNL     1      40.757 -14.705   1.767  1.00  0.00     0.119 A 
HETATM    6  N   UNL     1      41.367 -14.280   0.678  1.00  0.00    -0.239 NA
HETATM    7  C   UNL     1      40.458 -13.776  -0.246  1.00  0.00     0.075 A 
HETATM    8  C   UNL     1      39.136 -13.952   0.110  1.00  0.00     0.084 A 
HETATM    9  S   UNL     1      39.027 -14.670   1.659  1.00  0.00    -0.078 SA
BRANCH   7  10
HETATM   10  C   UNL     1      40.914 -13.112  -1.468  1.00  0.00    -0.007 A 
HETATM   11  C   UNL     1      42.278 -12.832  -1.633  1.00  0.00     0.014 A 
HETATM   12  C   UNL     1      42.747 -12.167  -2.772  1.00  0.00     0.008 A 
HETATM   13  C   UNL     1      41.858 -11.763  -3.774  1.00  0.00    -0.058 A 
HETATM   14  C   UNL     1      40.495 -12.037  -3.615  1.00  0.00     0.008 A 
HETATM   15  C   UNL     1      40.028 -12.703  -2.475  1.00  0.00     0.014 A 
BRANCH  13  16
HETATM   16  C   UNL     1      42.357 -11.042  -5.003  1.00  0.00     0.042 C 
BRANCH  16  17
HETATM   17  C   UNL     1      41.890  -9.576  -5.093  1.00  0.00    -0.019 C 
HETATM   18  C   UNL     1      42.350  -8.909  -6.392  1.00  0.00     0.010 C 
HETATM   19  C   UNL     1      42.419  -8.789  -3.892  1.00  0.00     0.010 C 
ENDBRANCH  16  17
ENDBRANCH  13  16
ENDBRANCH   7  10
ENDBRANCH   1   5
BRANCH   4  20
HETATM   20  N   UNL     1      42.052 -17.226   4.229  1.00  0.00    -0.364 N 
HETATM   21  H   UNL     1      42.365 -16.624   4.992  1.00  0.00     0.165 HD
BRANCH  20  22
HETATM   22  C   UNL     1      42.940 -18.307   3.992  1.00  0.00     0.048 A 
HETATM   23  C   UNL     1      43.743 -18.858   5.031  1.00  0.00     0.039 A 
HETATM   24  C   UNL     1      44.463 -20.048   4.840  1.00  0.00     0.057 A 
HETATM   25  C   UNL     1      44.380 -20.654   3.608  1.00  0.00     0.106 A 
HETATM   26  C   UNL     1      43.635 -20.115   2.586  1.00  0.00     0.107 A 
HETATM   27  O   UNL     1      44.991 -21.813   3.251  1.00  0.00    -0.323 OA
HETATM   28  O   UNL     1      43.682 -20.873   1.458  1.00  0.00    -0.323 OA
HETATM   29  C   UNL     1      42.912 -18.948   2.741  1.00  0.00     0.070 A 
HETATM   30  C   UNL     1      44.470 -21.993   1.918  1.00  0.00     0.352 A 
BRANCH  23  31
HETATM   31  C   UNL     1      43.901 -18.196   6.350  1.00  0.00     0.158 C 
HETATM   32  C   UNL     1      45.291 -17.870   6.836  1.00  0.00     0.097 C 
HETATM   33  O   UNL     1      42.908 -17.982   7.042  1.00  0.00    -0.293 OA
ENDBRANCH  23  31
ENDBRANCH  20  22
ENDBRANCH   4  20
TORSDOF 7
ENDMDL
MODEL 8
REMARK VINA RESULT:      -8.0      1.648      2.854
REMARK  7 active torsions:
REMARK  status: ('A' for Active; 'I' for Inactive)
REMARK    1  A    between atoms: C_2  and  C_3 
REMARK    2  A    between atoms: C_3  and  C_4 
REMARK    3  A    between atoms: C_7  and  C_8 
REMARK    4  A    between atoms: C_10  and  C_11 
REMARK    5  A    between atoms: C_14  and  N_15 
REMARK    6  A    between atoms: N_15  and  C_16 
REMARK    7  A    between atoms: C_17  and  C_18 
ROOT
HETATM    1  C   UNL     1      42.399 -12.178   6.719  1.00  0.00     0.082 C 
HETATM    2  C   UNL     1      43.623 -12.597   7.519  1.00  0.00     0.024 C 
HETATM    3  N   UNL     1      44.638 -12.943   8.181  1.00  0.00    -0.096 N 
HETATM    4  C   UNL     1      41.769 -11.003   6.913  1.00  0.00     0.113 C 
ENDROOT
BRANCH   1   5
HETATM    5  C   UNL     1      41.968 -13.047   5.674  1.00  0.00     0.119 A 
HETATM    6  N   UNL     1      42.471 -14.232   5.384  1.00  0.00    -0.239 NA
HETATM    7  C   UNL     1      41.909 -14.750   4.223  1.00  0.00     0.075 A 
HETATM    8  C   UNL     1      40.872 -13.994   3.713  1.00  0.00     0.084 A 
HETATM    9  S   UNL     1      40.659 -12.572   4.641  1.00  0.00    -0.078 SA
BRANCH   7  10
HETATM   10  C   UNL     1      42.416 -15.985   3.625  1.00  0.00    -0.007 A 
HETATM   11  C   UNL     1      43.412 -15.916   2.639  1.00  0.00     0.014 A 
HETATM   12  C   UNL     1      43.896 -17.074   2.020  1.00  0.00     0.008 A 
HETATM   13  C   UNL     1      43.392 -18.331   2.371  1.00  0.00    -0.058 A 
HETATM   14  C   UNL     1      42.395 -18.407   3.351  1.00  0.00     0.008 A 
HETATM   15  C   UNL     1      41.913 -17.248   3.969  1.00  0.00     0.014 A 
BRANCH  13  16
HETATM   16  C   UNL     1      43.907 -19.583   1.703  1.00  0.00     0.042 C 
BRANCH  16  17
HETATM   17  C   UNL     1      44.028 -20.788   2.656  1.00  0.00    -0.019 C 
HETATM   18  C   UNL     1      45.035 -20.528   3.780  1.00  0.00     0.010 C 
HETATM   19  C   UNL     1      44.441 -22.033   1.869  1.00  0.00     0.010 C 
ENDBRANCH  16  17
ENDBRANCH  13  16
ENDBRANCH   7  10
ENDBRANCH   1   5
BRANCH   4  20
HETATM   20  N   UNL     1      41.940  -9.984   7.843  1.00  0.00    -0.364 N 
HETATM   21  H   UNL     1      42.805  -9.467   7.682  1.00  0.00     0.165 HD
BRANCH  20  22
HETATM   22  C   UNL     1      41.665 -10.164   9.223  1.00  0.00     0.048 A 
HETATM   23  C   UNL     1      40.441 -10.735   9.675  1.00  0.00     0.039 A 
HETATM   24  C   UNL     1      40.259 -11.094  11.020  1.00  0.00     0.057 A 
HETATM   25  C   UNL     1      41.298 -10.858  11.890  1.00  0.00     0.106 A 
HETATM   26  C   UNL     1      42.471 -10.277  11.474  1.00  0.00     0.107 A 
HETATM   27  O   UNL     1      41.306 -11.155  13.215  1.00  0.00    -0.323 OA
HETATM   28  O   UNL     1      43.368 -10.141  12.487  1.00  0.00    -0.323 OA
HETATM   29  C   UNL     1      42.685  -9.915  10.158  1.00  0.00     0.070 A 
HETATM   30  C   UNL     1      42.654 -10.783  13.566  1.00  0.00     0.352 A 
BRANCH  23  31
HETATM   31  C   UNL     1      39.280 -10.945   8.774  1.00  0.00     0.158 C 
HETATM   32  C   UNL     1      38.896 -12.355   8.402  1.00  0.00     0.097 C 
HETATM   33  O   UNL     1      38.697  -9.970   8.304  1.00  0.00    -0.293 OA
ENDBRANCH  23  31
ENDBRANCH  20  22
ENDBRANCH   4  20
TORSDOF 7
ENDMDL
MODEL 9
REMARK VINA RESULT:      -7.9      5.861      9.411
REMARK  7 active torsions:
REMARK  status: ('A' for Active; 'I' for Inactive)
REMARK    1  A    between atoms: C_2  and  C_3 
REMARK    2  A    between atoms: C_3  and  C_4 
REMARK    3  A    between atoms: C_7  and  C_8 
REMARK    4  A    between atoms: C_10  and  C_11 
REMARK    5  A    between atoms: C_14  and  N_15 
REMARK    6  A    between atoms: N_15  and  C_16 
REMARK    7  A    between atoms: C_17  and  C_18 
ROOT
HETATM    1  C   UNL     1      40.138 -12.561   2.809  1.00  0.00     0.082 C 
HETATM    2  C   UNL     1      40.150 -11.077   3.141  1.00  0.00     0.024 C 
HETATM    3  N   UNL     1      40.160  -9.846   3.415  1.00  0.00    -0.096 N 
HETATM    4  C   UNL     1      39.850 -13.030   1.580  1.00  0.00     0.113 C 
ENDROOT
BRANCH   1   5
HETATM    5  C   UNL     1      40.528 -13.467   3.839  1.00  0.00     0.119 A 
HETATM    6  N   UNL     1      41.506 -14.350   3.774  1.00  0.00    -0.239 NA
HETATM    7  C   UNL     1      41.528 -15.164   4.901  1.00  0.00     0.075 A 
HETATM    8  C   UNL     1      40.632 -14.792   5.883  1.00  0.00     0.084 A 
HETATM    9  S   UNL     1      39.686 -13.467   5.354  1.00  0.00    -0.078 SA
BRANCH   7  10
HETATM   10  C   UNL     1      42.431 -16.313   4.985  1.00  0.00    -0.007 A 
HETATM   11  C   UNL     1      42.701 -17.064   3.832  1.00  0.00     0.014 A 
HETATM   12  C   UNL     1      43.532 -18.189   3.882  1.00  0.00     0.008 A 
HETATM   13  C   UNL     1      44.111 -18.592   5.090  1.00  0.00    -0.058 A 
HETATM   14  C   UNL     1      43.843 -17.849   6.246  1.00  0.00     0.008 A 
HETATM   15  C   UNL     1      43.012 -16.723   6.194  1.00  0.00     0.014 A 
BRANCH  13  16
HETATM   16  C   UNL     1      45.004 -19.807   5.151  1.00  0.00     0.042 C 
BRANCH  16  17
HETATM   17  C   UNL     1      44.248 -21.118   5.440  1.00  0.00    -0.019 C 
HETATM   18  C   UNL     1      43.783 -21.199   6.898  1.00  0.00     0.010 C 
HETATM   19  C   UNL     1      45.141 -22.316   5.116  1.00  0.00     0.010 C 
ENDBRANCH  16  17
ENDBRANCH  13  16
ENDBRANCH   7  10
ENDBRANCH   1   5
BRANCH   4  20
HETATM   20  N   UNL     1      39.426 -12.411   0.410  1.00  0.00    -0.364 N 
HETATM   21  H   UNL     1      38.506 -11.981   0.522  1.00  0.00     0.165 HD
BRANCH  20  22
HETATM   22  C   UNL     1      39.594 -13.006  -0.867  1.00  0.00     0.048 A 
HETATM   23  C   UNL     1      40.841 -12.968  -1.553  1.00  0.00     0.039 A 
HETATM   24  C   UNL     1      41.055 -13.727  -2.715  1.00  0.00     0.057 A 
HETATM   25  C   UNL     1      40.012 -14.495  -3.177  1.00  0.00     0.106 A 
HETATM   26  C   UNL     1      38.792 -14.514  -2.544  1.00  0.00     0.107 A 
HETATM   27  O   UNL     1      40.042 -15.301  -4.270  1.00  0.00    -0.323 OA
HETATM   28  O   UNL     1      37.904 -15.342  -3.157  1.00  0.00    -0.323 OA
HETATM   29  C   UNL     1      38.549 -13.783  -1.397  1.00  0.00     0.070 A 
HETATM   30  C   UNL     1      38.735 -15.905  -4.197  1.00  0.00     0.352 A 
BRANCH  23  31
HETATM   31  C   UNL     1      41.965 -12.103  -1.114  1.00  0.00     0.158 C 
HETATM   32  C   UNL     1      42.344 -10.919  -1.966  1.00  0.00     0.097 C 
HETATM   33  O   UNL     1      42.597 -12.402  -0.104  1.00  0.00    -0.293 OA
ENDBRANCH  23  31
ENDBRANCH  20  22
ENDBRANCH   4  20
TORSDOF 7
ENDMDL
MODEL 10
REMARK VINA RESULT:      -7.8      4.184     10.093
REMARK  7 active torsions:
REMARK  status: ('A' for Active; 'I' for Inactive)
REMARK    1  A    between atoms: C_2  and  C_3 
REMARK    2  A    between atoms: C_3  and  C_4 
REMARK    3  A    between atoms: C_7  and  C_8 
REMARK    4  A    between atoms: C_10  and  C_11 
REMARK    5  A    between atoms: C_14  and  N_15 
REMARK    6  A    between atoms: N_15  and  C_16 
REMARK    7  A    between atoms: C_17  and  C_18 
ROOT
HETATM    1  C   UNL     1      40.506 -13.423   3.413  1.00  0.00     0.082 C 
HETATM    2  C   UNL     1      41.970 -13.654   3.072  1.00  0.00     0.024 C 
HETATM    3  N   UNL     1      43.183 -13.847   2.789  1.00  0.00    -0.096 N 
HETATM    4  C   UNL     1      39.513 -14.186   2.917  1.00  0.00     0.113 C 
ENDROOT
BRANCH   1   5
HETATM    5  C   UNL     1      40.206 -12.401   4.362  1.00  0.00     0.119 A 
HETATM    6  N   UNL     1      40.796 -12.217   5.526  1.00  0.00    -0.239 NA
HETATM    7  C   UNL     1      40.169 -11.215   6.259  1.00  0.00     0.075 A 
HETATM    8  C   UNL     1      39.175 -10.551   5.569  1.00  0.00     0.084 A 
HETATM    9  S   UNL     1      38.957 -11.248   4.021  1.00  0.00    -0.078 SA
BRANCH   7  10
HETATM   10  C   UNL     1      40.557 -10.937   7.643  1.00  0.00    -0.007 A 
HETATM   11  C   UNL     1      39.624 -11.126   8.672  1.00  0.00     0.014 A 
HETATM   12  C   UNL     1      39.947 -10.836  10.002  1.00  0.00     0.008 A 
HETATM   13  C   UNL     1      41.215 -10.346  10.334  1.00  0.00    -0.058 A 
HETATM   14  C   UNL     1      42.150 -10.152   9.311  1.00  0.00     0.008 A 
HETATM   15  C   UNL     1      41.825 -10.443   7.981  1.00  0.00     0.014 A 
BRANCH  13  16
HETATM   16  C   UNL     1      41.569 -10.028  11.767  1.00  0.00     0.042 C 
BRANCH  16  17
HETATM   17  C   UNL     1      43.047 -10.293  12.113  1.00  0.00    -0.019 C 
HETATM   18  C   UNL     1      43.336 -11.789  12.273  1.00  0.00     0.010 C 
HETATM   19  C   UNL     1      43.420  -9.555  13.400  1.00  0.00     0.010 C 
ENDBRANCH  16  17
ENDBRANCH  13  16
ENDBRANCH   7  10
ENDBRANCH   1   5
BRANCH   4  20
HETATM   20  N   UNL     1      39.492 -15.215   1.982  1.00  0.00    -0.364 N 
HETATM   21  H   UNL     1      38.590 -15.694   1.969  1.00  0.00     0.165 HD
BRANCH  20  22
HETATM   22  C   UNL     1      40.582 -16.107   1.812  1.00  0.00     0.048 A 
HETATM   23  C   UNL     1      41.450 -16.024   0.686  1.00  0.00     0.039 A 
HETATM   24  C   UNL     1      42.636 -16.771   0.626  1.00  0.00     0.057 A 
HETATM   25  C   UNL     1      42.922 -17.602   1.684  1.00  0.00     0.106 A 
HETATM   26  C   UNL     1      42.076 -17.717   2.761  1.00  0.00     0.107 A 
HETATM   27  O   UNL     1      44.027 -18.382   1.805  1.00  0.00    -0.323 OA
HETATM   28  O   UNL     1      42.549 -18.583   3.698  1.00  0.00    -0.323 OA
HETATM   29  C   UNL     1      40.904 -16.994   2.855  1.00  0.00     0.070 A 
HETATM   30  C   UNL     1      43.828 -18.929   3.124  1.00  0.00     0.352 A 
BRANCH  23  31
HETATM   31  C   UNL     1      41.138 -15.184  -0.498  1.00  0.00     0.158 C 
HETATM   32  C   UNL     1      41.041 -15.844  -1.850  1.00  0.00     0.097 C 
HETATM   33  O   UNL     1      41.025 -13.967  -0.362  1.00  0.00    -0.293 OA
ENDBRANCH  23  31
ENDBRANCH  20  22
ENDBRANCH   4  20
TORSDOF 7
ENDMDL
