MODEL 1
REMARK VINA RESULT:      -8.8      0.000      0.000
REMARK  8 active torsions:
REMARK  status: ('A' for Active; 'I' for Inactive)
REMARK    1  A    between atoms: C_6  and  O_7 
REMARK    2  A    between atoms: O_7  and  C_8 
REMARK    3  A    between atoms: C_8  and  C_9 
REMARK    4  A    between atoms: C_9  and  C_10 
REMARK    5  A    between atoms: C_10  and  C_11 
REMARK    6  A    between atoms: C_11  and  N_12 
REMARK       I    between atoms: N_12  and  C_13 
REMARK    7  A    between atoms: C_13  and  C_14 
REMARK    8  A    between atoms: C_18  and  C_19 
ROOT
HETATM    1  N   UNL     1      44.356 -13.190   8.251  1.00  0.00    -0.345 N 
HETATM    2  C   UNL     1      44.933 -12.125   8.896  1.00  0.00     0.270 C 
HETATM    3  O   UNL     1      46.084 -11.758   8.680  1.00  0.00    -0.266 OA
HETATM    4  H   UNL     1      43.422 -13.483   8.491  1.00  0.00     0.163 HD
ENDROOT
BRANCH   2   5
HETATM    5  C   UNL     1      44.088 -11.443   9.839  1.00  0.00     0.120 A 
HETATM    6  N   UNL     1      42.742 -11.330   9.633  1.00  0.00    -0.272 N 
HETATM    7  H   UNL     1      42.219 -11.676   8.835  1.00  0.00     0.189 HD
HETATM    8  N   UNL     1      42.086 -10.697  10.616  1.00  0.00    -0.174 NA
HETATM    9  C   UNL     1      43.032 -10.403  11.522  1.00  0.00     0.089 A 
HETATM   10  C   UNL     1      44.308 -10.832  11.057  1.00  0.00     0.071 A 
BRANCH   9  11
HETATM   11  C   UNL     1      42.698  -9.746  12.790  1.00  0.00    -0.005 A 
HETATM   12  C   UNL     1      42.518 -10.490  13.968  1.00  0.00     0.017 A 
HETATM   13  C   UNL     1      42.183  -9.854  15.168  1.00  0.00     0.043 A 
HETATM   14  C   UNL     1      42.027  -8.474  15.194  1.00  0.00     0.116 A 
HETATM   15  F   UNL     1      41.703  -7.869  16.343  1.00  0.00    -0.206 F 
HETATM   16  C   UNL     1      42.198  -7.715  14.043  1.00  0.00     0.043 A 
HETATM   17  C   UNL     1      42.531  -8.351  12.844  1.00  0.00     0.017 A 
ENDBRANCH   9  11
ENDBRANCH   2   5
BRANCH   1  18
HETATM   18  C   UNL     1      45.025 -13.880   7.182  1.00  0.00     0.217 C 
BRANCH  18  19
HETATM   19  C   UNL     1      44.409 -15.253   6.971  1.00  0.00    -0.085 C 
BRANCH  19  20
HETATM   20  C   UNL     1      43.882 -16.431   6.789  1.00  0.00    -0.078 C 
BRANCH  20  21
HETATM   21  C   UNL     1      43.279 -17.754   6.574  1.00  0.00     0.269 C 
BRANCH  21  22
HETATM   22  O   UNL     1      44.317 -18.707   6.351  1.00  0.00    -0.340 OA
BRANCH  22  23
HETATM   23  C   UNL     1      44.354 -19.314   5.126  1.00  0.00     0.071 A 
HETATM   24  C   UNL     1      44.041 -18.475   4.053  1.00  0.00     0.055 A 
HETATM   25  C   UNL     1      44.043 -18.973   2.750  1.00  0.00     0.013 A 
HETATM   26  C   UNL     1      44.359 -20.307   2.504  1.00  0.00     0.019 A 
HETATM   27 BR   UNL     1      43.616 -17.829   1.306  1.00  0.00    -0.051 Br
HETATM   28  C   UNL     1      44.673 -21.146   3.572  1.00  0.00     0.004 A 
HETATM   29  C   UNL     1      44.672 -20.653   4.880  1.00  0.00     0.037 A 
ENDBRANCH  22  23
ENDBRANCH  21  22
ENDBRANCH  20  21
ENDBRANCH  19  20
ENDBRANCH  18  19
ENDBRANCH   1  18
TORSDOF 8
ENDMDL
MODEL 2
REMARK VINA RESULT:      -8.7      0.952      1.455
REMARK  8 active torsions:
REMARK  status: ('A' for Active; 'I' for Inactive)
REMARK    1  A    between atoms: C_6  and  O_7 
REMARK    2  A    between atoms: O_7  and  C_8 
REMARK    3  A    between atoms: C_8  and  C_9 
REMARK    4  A    between atoms: C_9  and  C_10 
REMARK    5  A    between atoms: C_10  and  C_11 
REMARK    6  A    between atoms: C_11  and  N_12 
REMARK       I    between atoms: N_12  and  C_13 
REMARK    7  A    between atoms: C_13  and  C_14 
REMARK    8  A    between atoms: C_18  and  C_19 
ROOT
HETATM    1  N   UNL     1      44.333 -13.433   7.938  1.00  0.00    -0.345 N 
HETATM    2  C   UNL     1      44.984 -12.447   8.637  1.00  0.00     0.270 C 
HETATM    3  O   UNL     1      46.175 -12.197   8.486  1.00  0.00    -0.266 OA
HETATM    4  H   UNL     1      43.363 -13.632   8.126  1.00  0.00     0.163 HD
ENDROOT
BRANCH   2   5
HETATM    5  C   UNL     1      44.168 -11.701   9.557  1.00  0.00     0.120 A 
HETATM    6  N   UNL     1      42.849 -11.455   9.296  1.00  0.00    -0.272 N 
HETATM    7  H   UNL     1      42.331 -11.736   8.469  1.00  0.00     0.189 HD
HETATM    8  N   UNL     1      42.214 -10.777  10.263  1.00  0.00    -0.174 NA
HETATM    9  C   UNL     1      43.143 -10.591  11.214  1.00  0.00     0.089 A 
HETATM   10  C   UNL     1      44.391 -11.134  10.796  1.00  0.00     0.071 A 
BRANCH   9  11
HETATM   11  C   UNL     1      42.818  -9.925  12.480  1.00  0.00    -0.005 A 
HETATM   12  C   UNL     1      42.746  -8.524  12.566  1.00  0.00     0.017 A 
HETATM   13  C   UNL     1      42.453  -7.901  13.783  1.00  0.00     0.043 A 
HETATM   14  C   UNL     1      42.229  -8.673  14.915  1.00  0.00     0.116 A 
HETATM   15  F   UNL     1      41.952  -8.072  16.079  1.00  0.00    -0.206 F 
HETATM   16  C   UNL     1      42.296 -10.059  14.858  1.00  0.00     0.043 A 
HETATM   17  C   UNL     1      42.591 -10.683  13.642  1.00  0.00     0.017 A 
ENDBRANCH   9  11
ENDBRANCH   2   5
BRANCH   1  18
HETATM   18  C   UNL     1      44.981 -14.165   6.884  1.00  0.00     0.217 C 
BRANCH  18  19
HETATM   19  C   UNL     1      44.469 -15.596   6.842  1.00  0.00    -0.085 C 
BRANCH  19  20
HETATM   20  C   UNL     1      44.029 -16.822   6.805  1.00  0.00    -0.078 C 
BRANCH  20  21
HETATM   21  C   UNL     1      43.540 -18.207   6.751  1.00  0.00     0.269 C 
BRANCH  21  22
HETATM   22  O   UNL     1      42.512 -18.298   5.767  1.00  0.00    -0.340 OA
BRANCH  22  23
HETATM   23  C   UNL     1      42.902 -18.522   4.475  1.00  0.00     0.071 A 
HETATM   24  C   UNL     1      42.165 -17.821   3.517  1.00  0.00     0.055 A 
HETATM   25  C   UNL     1      42.464 -17.961   2.162  1.00  0.00     0.013 A 
HETATM   26  C   UNL     1      43.499 -18.796   1.750  1.00  0.00     0.019 A 
HETATM   27 BR   UNL     1      41.458 -17.010   0.874  1.00  0.00    -0.051 Br
HETATM   28  C   UNL     1      44.238 -19.496   2.703  1.00  0.00     0.004 A 
HETATM   29  C   UNL     1      43.942 -19.359   4.063  1.00  0.00     0.037 A 
ENDBRANCH  22  23
ENDBRANCH  21  22
ENDBRANCH  20  21
ENDBRANCH  19  20
ENDBRANCH  18  19
ENDBRANCH   1  18
TORSDOF 8
ENDMDL
MODEL 3
REMARK VINA RESULT:      -8.5      1.604      2.177
REMARK  8 active torsions:
REMARK  status: ('A' for Active; 'I' for Inactive)
REMARK    1  A    between atoms: C_6  and  O_7 
REMARK    2  A    between atoms: O_7  and  C_8 
REMARK    3  A    between atoms: C_8  and  C_9 
REMARK    4  A    between atoms: C_9  and  C_10 
REMARK    5  A    between atoms: C_10  and  C_11 
REMARK    6  A    between atoms: C_11  and  N_12 
REMARK       I    between atoms: N_12  and  C_13 
REMARK    7  A    between atoms: C_13  and  C_14 
REMARK    8  A    between atoms: C_18  and  C_19 
ROOT
HETATM    1  N   UNL     1      44.365 -13.313   8.070  1.00  0.00    -0.345 N 
HETATM    2  C   UNL     1      44.980 -12.285   8.739  1.00  0.00     0.270 C 
HETATM    3  O   UNL     1      46.153 -11.978   8.557  1.00  0.00    -0.266 OA
HETATM    4  H   UNL     1      43.410 -13.558   8.283  1.00  0.00     0.163 HD
ENDROOT
BRANCH   2   5
HETATM    5  C   UNL     1      44.147 -11.567   9.667  1.00  0.00     0.120 A 
HETATM    6  N   UNL     1      42.812 -11.394   9.434  1.00  0.00    -0.272 N 
HETATM    7  H   UNL     1      42.289 -11.716   8.624  1.00  0.00     0.189 HD
HETATM    8  N   UNL     1      42.164 -10.733  10.404  1.00  0.00    -0.174 NA
HETATM    9  C   UNL     1      43.104 -10.483  11.330  1.00  0.00     0.089 A 
HETATM   10  C   UNL     1      44.369 -10.967  10.890  1.00  0.00     0.071 A 
BRANCH   9  11
HETATM   11  C   UNL     1      42.774  -9.812  12.592  1.00  0.00    -0.005 A 
HETATM   12  C   UNL     1      42.650  -8.415  12.661  1.00  0.00     0.017 A 
HETATM   13  C   UNL     1      42.353  -7.786  13.875  1.00  0.00     0.043 A 
HETATM   14  C   UNL     1      42.178  -8.551  15.020  1.00  0.00     0.116 A 
HETATM   15  F   UNL     1      41.896  -7.945  16.180  1.00  0.00    -0.206 F 
HETATM   16  C   UNL     1      42.296  -9.934  14.980  1.00  0.00     0.043 A 
HETATM   17  C   UNL     1      42.595 -10.562  13.768  1.00  0.00     0.017 A 
ENDBRANCH   9  11
ENDBRANCH   2   5
BRANCH   1  18
HETATM   18  C   UNL     1      45.025 -14.029   7.012  1.00  0.00     0.217 C 
BRANCH  18  19
HETATM   19  C   UNL     1      44.021 -14.451   5.952  1.00  0.00    -0.085 C 
BRANCH  19  20
HETATM   20  C   UNL     1      43.161 -14.815   5.043  1.00  0.00    -0.078 C 
BRANCH  20  21
HETATM   21  C   UNL     1      42.202 -15.228   4.009  1.00  0.00     0.269 C 
BRANCH  21  22
HETATM   22  O   UNL     1      41.864 -16.599   4.210  1.00  0.00    -0.340 OA
BRANCH  22  23
HETATM   23  C   UNL     1      42.610 -17.530   3.541  1.00  0.00     0.071 A 
HETATM   24  C   UNL     1      43.208 -18.492   4.359  1.00  0.00     0.055 A 
HETATM   25  C   UNL     1      43.994 -19.499   3.800  1.00  0.00     0.013 A 
HETATM   26  C   UNL     1      44.190 -19.558   2.422  1.00  0.00     0.019 A 
HETATM   27 BR   UNL     1      44.800 -20.793   4.918  1.00  0.00    -0.051 Br
HETATM   28  C   UNL     1      43.593 -18.602   1.602  1.00  0.00     0.004 A 
HETATM   29  C   UNL     1      42.804 -17.589   2.158  1.00  0.00     0.037 A 
ENDBRANCH  22  23
ENDBRANCH  21  22
ENDBRANCH  20  21
ENDBRANCH  19  20
ENDBRANCH  18  19
ENDBRANCH   1  18
TORSDOF 8
ENDMDL
MODEL 4
REMARK VINA RESULT:      -8.3      7.699     11.256
REMARK  8 active torsions:
REMARK  status: ('A' for Active; 'I' for Inactive)
REMARK    1  A    between atoms: C_6  and  O_7 
REMARK    2  A    between atoms: O_7  and  C_8 
REMARK    3  A    between atoms: C_8  and  C_9 
REMARK    4  A    between atoms: C_9  and  C_10 
REMARK    5  A    between atoms: C_10  and  C_11 
REMARK    6  A    between atoms: C_11  and  N_12 
REMARK       I    between atoms: N_12  and  C_13 
REMARK    7  A    between atoms: C_13  and  C_14 
REMARK    8  A    between atoms: C_18  and  C_19 
ROOT
HETATM    1  N   UNL     1      39.695 -15.801   1.489  1.00  0.00    -0.345 N 
HETATM    2  C   UNL     1      40.922 -15.660   0.890  1.00  0.00     0.270 C 
HETATM    3  O   UNL     1      41.226 -14.683   0.214  1.00  0.00    -0.266 OA
HETATM    4  H   UNL     1      39.473 -16.640   2.001  1.00  0.00     0.163 HD
ENDROOT
BRANCH   2   5
HETATM    5  C   UNL     1      41.850 -16.733   1.126  1.00  0.00     0.120 A 
HETATM    6  N   UNL     1      43.012 -16.835   0.414  1.00  0.00    -0.272 N 
HETATM    7  H   UNL     1      43.328 -16.215  -0.325  1.00  0.00     0.189 HD
HETATM    8  N   UNL     1      43.788 -17.869   0.771  1.00  0.00    -0.174 NA
HETATM    9  C   UNL     1      43.124 -18.460   1.777  1.00  0.00     0.089 A 
HETATM   10  C   UNL     1      41.888 -17.791   2.011  1.00  0.00     0.071 A 
BRANCH   9  11
HETATM   11  C   UNL     1      43.682 -19.617   2.485  1.00  0.00    -0.005 A 
HETATM   12  C   UNL     1      43.686 -20.894   1.900  1.00  0.00     0.017 A 
HETATM   13  C   UNL     1      44.205 -21.993   2.592  1.00  0.00     0.043 A 
HETATM   14  C   UNL     1      44.722 -21.819   3.869  1.00  0.00     0.116 A 
HETATM   15  F   UNL     1      45.215 -22.873   4.530  1.00  0.00    -0.206 F 
HETATM   16  C   UNL     1      44.729 -20.568   4.471  1.00  0.00     0.043 A 
HETATM   17  C   UNL     1      44.209 -19.470   3.781  1.00  0.00     0.017 A 
ENDBRANCH   9  11
ENDBRANCH   2   5
BRANCH   1  18
HETATM   18  C   UNL     1      38.716 -14.748   1.463  1.00  0.00     0.217 C 
BRANCH  18  19
HETATM   19  C   UNL     1      39.071 -13.670   2.473  1.00  0.00    -0.085 C 
BRANCH  19  20
HETATM   20  C   UNL     1      39.375 -12.746   3.341  1.00  0.00    -0.078 C 
BRANCH  20  21
HETATM   21  C   UNL     1      39.717 -11.694   4.309  1.00  0.00     0.269 C 
BRANCH  21  22
HETATM   22  O   UNL     1      40.532 -12.255   5.335  1.00  0.00    -0.340 OA
BRANCH  22  23
HETATM   23  C   UNL     1      41.469 -13.176   4.955  1.00  0.00     0.071 A 
HETATM   24  C   UNL     1      41.261 -14.460   5.467  1.00  0.00     0.055 A 
HETATM   25  C   UNL     1      42.145 -15.492   5.153  1.00  0.00     0.013 A 
HETATM   26  C   UNL     1      43.240 -15.256   4.325  1.00  0.00     0.019 A 
HETATM   27 BR   UNL     1      41.855 -17.223   5.854  1.00  0.00    -0.051 Br
HETATM   28  C   UNL     1      43.449 -13.978   3.811  1.00  0.00     0.004 A 
HETATM   29  C   UNL     1      42.566 -12.939   4.123  1.00  0.00     0.037 A 
ENDBRANCH  22  23
ENDBRANCH  21  22
ENDBRANCH  20  21
ENDBRANCH  19  20
ENDBRANCH  18  19
ENDBRANCH   1  18
TORSDOF 8
ENDMDL
MODEL 5
REMARK VINA RESULT:      -8.2      5.683     11.657
REMARK  8 active torsions:
REMARK  status: ('A' for Active; 'I' for Inactive)
REMARK    1  A    between atoms: C_6  and  O_7 
REMARK    2  A    between atoms: O_7  and  C_8 
REMARK    3  A    between atoms: C_8  and  C_9 
REMARK    4  A    between atoms: C_9  and  C_10 
REMARK    5  A    between atoms: C_10  and  C_11 
REMARK    6  A    between atoms: C_11  and  N_12 
REMARK       I    between atoms: N_12  and  C_13 
REMARK    7  A    between atoms: C_13  and  C_14 
REMARK    8  A    between atoms: C_18  and  C_19 
ROOT
HETATM    1  N   UNL     1      41.456 -13.450   4.148  1.00  0.00    -0.345 N 
HETATM    2  C   UNL     1      42.529 -13.897   3.418  1.00  0.00     0.270 C 
HETATM    3  O   UNL     1      43.120 -13.196   2.603  1.00  0.00    -0.266 OA
HETATM    4  H   UNL     1      40.974 -14.074   4.775  1.00  0.00     0.163 HD
ENDROOT
BRANCH   2   5
HETATM    5  C   UNL     1      42.937 -15.250   3.686  1.00  0.00     0.120 A 
HETATM    6  N   UNL     1      43.070 -15.710   4.966  1.00  0.00    -0.272 N 
HETATM    7  H   UNL     1      42.922 -15.181   5.820  1.00  0.00     0.189 HD
HETATM    8  N   UNL     1      43.424 -17.000   5.053  1.00  0.00    -0.174 NA
HETATM    9  C   UNL     1      43.503 -17.418   3.779  1.00  0.00     0.089 A 
HETATM   10  C   UNL     1      43.230 -16.339   2.890  1.00  0.00     0.071 A 
BRANCH   9  11
HETATM   11  C   UNL     1      43.816 -18.812   3.450  1.00  0.00    -0.005 A 
HETATM   12  C   UNL     1      44.558 -19.617   4.331  1.00  0.00     0.017 A 
HETATM   13  C   UNL     1      44.865 -20.940   3.997  1.00  0.00     0.043 A 
HETATM   14  C   UNL     1      44.433 -21.462   2.785  1.00  0.00     0.116 A 
HETATM   15  F   UNL     1      44.732 -22.728   2.468  1.00  0.00    -0.206 F 
HETATM   16  C   UNL     1      43.700 -20.687   1.896  1.00  0.00     0.043 A 
HETATM   17  C   UNL     1      43.394 -19.364   2.228  1.00  0.00     0.017 A 
ENDBRANCH   9  11
ENDBRANCH   2   5
BRANCH   1  18
HETATM   18  C   UNL     1      41.023 -12.080   4.094  1.00  0.00     0.217 C 
BRANCH  18  19
HETATM   19  C   UNL     1      41.276 -11.392   5.425  1.00  0.00    -0.085 C 
BRANCH  19  20
HETATM   20  C   UNL     1      41.493 -10.801   6.566  1.00  0.00    -0.078 C 
BRANCH  20  21
HETATM   21  C   UNL     1      41.747 -10.146   7.857  1.00  0.00     0.269 C 
BRANCH  21  22
HETATM   22  O   UNL     1      42.959 -10.658   8.407  1.00  0.00    -0.340 OA
BRANCH  22  23
HETATM   23  C   UNL     1      43.070 -10.667   9.770  1.00  0.00     0.071 A 
HETATM   24  C   UNL     1      41.899 -11.021  10.446  1.00  0.00     0.055 A 
HETATM   25  C   UNL     1      41.880 -11.069  11.839  1.00  0.00     0.013 A 
HETATM   26  C   UNL     1      43.026 -10.770  12.572  1.00  0.00     0.019 A 
HETATM   27 BR   UNL     1      40.288 -11.546  12.742  1.00  0.00    -0.051 Br
HETATM   28  C   UNL     1      44.197 -10.419  11.902  1.00  0.00     0.004 A 
HETATM   29  C   UNL     1      44.221 -10.368  10.504  1.00  0.00     0.037 A 
ENDBRANCH  22  23
ENDBRANCH  21  22
ENDBRANCH  20  21
ENDBRANCH  19  20
ENDBRANCH  18  19
ENDBRANCH   1  18
TORSDOF 8
ENDMDL
MODEL 6
REMARK VINA RESULT:      -8.2      5.323     11.267
REMARK  8 active torsions:
REMARK  status: ('A' for Active; 'I' for Inactive)
REMARK    1  A    between atoms: C_6  and  O_7 
REMARK    2  A    between atoms: O_7  and  C_8 
REMARK    3  A    between atoms: C_8  and  C_9 
REMARK    4  A    between atoms: C_9  and  C_10 
REMARK    5  A    between atoms: C_10  and  C_11 
REMARK    6  A    between atoms: C_11  and  N_12 
REMARK       I    between atoms: N_12  and  C_13 
REMARK    7  A    between atoms: C_13  and  C_14 
REMARK    8  A    between atoms: C_18  and  C_19 
ROOT
HETATM    1  N   UNL     1      40.158 -14.095   6.373  1.00  0.00    -0.345 N 
HETATM    2  C   UNL     1      40.544 -14.825   5.277  1.00  0.00     0.270 C 
HETATM    3  O   UNL     1      40.101 -14.624   4.151  1.00  0.00    -0.266 OA
HETATM    4  H   UNL     1      40.516 -14.323   7.287  1.00  0.00     0.163 HD
ENDROOT
BRANCH   2   5
HETATM    5  C   UNL     1      41.529 -15.842   5.530  1.00  0.00     0.120 A 
HETATM    6  N   UNL     1      42.375 -15.760   6.600  1.00  0.00    -0.272 N 
HETATM    7  H   UNL     1      42.414 -15.013   7.287  1.00  0.00     0.189 HD
HETATM    8  N   UNL     1      43.213 -16.800   6.721  1.00  0.00    -0.174 NA
HETATM    9  C   UNL     1      42.891 -17.615   5.704  1.00  0.00     0.089 A 
HETATM   10  C   UNL     1      41.856 -17.035   4.917  1.00  0.00     0.071 A 
BRANCH   9  11
HETATM   11  C   UNL     1      43.558 -18.909   5.521  1.00  0.00    -0.005 A 
HETATM   12  C   UNL     1      44.204 -19.229   4.315  1.00  0.00     0.017 A 
HETATM   13  C   UNL     1      44.821 -20.473   4.146  1.00  0.00     0.043 A 
HETATM   14  C   UNL     1      44.796 -21.398   5.182  1.00  0.00     0.116 A 
HETATM   15  F   UNL     1      45.385 -22.589   5.016  1.00  0.00    -0.206 F 
HETATM   16  C   UNL     1      44.164 -21.107   6.383  1.00  0.00     0.043 A 
HETATM   17  C   UNL     1      43.545 -19.865   6.551  1.00  0.00     0.017 A 
ENDBRANCH   9  11
ENDBRANCH   2   5
BRANCH   1  18
HETATM   18  C   UNL     1      39.290 -12.954   6.254  1.00  0.00     0.217 C 
BRANCH  18  19
HETATM   19  C   UNL     1      39.424 -12.057   7.473  1.00  0.00    -0.085 C 
BRANCH  19  20
HETATM   20  C   UNL     1      39.539 -11.289   8.520  1.00  0.00    -0.078 C 
BRANCH  20  21
HETATM   21  C   UNL     1      39.657 -10.429   9.706  1.00  0.00     0.269 C 
BRANCH  21  22
HETATM   22  O   UNL     1      40.120 -11.214  10.804  1.00  0.00    -0.340 OA
BRANCH  22  23
HETATM   23  C   UNL     1      41.247 -10.783  11.447  1.00  0.00     0.071 A 
HETATM   24  C   UNL     1      42.440 -11.050  10.769  1.00  0.00     0.055 A 
HETATM   25  C   UNL     1      43.662 -10.661  11.318  1.00  0.00     0.013 A 
HETATM   26  C   UNL     1      43.707 -10.000  12.543  1.00  0.00     0.019 A 
HETATM   27 BR   UNL     1      45.268 -11.031  10.393  1.00  0.00    -0.051 Br
HETATM   28  C   UNL     1      42.519  -9.729  13.221  1.00  0.00     0.004 A 
HETATM   29  C   UNL     1      41.291 -10.118  12.675  1.00  0.00     0.037 A 
ENDBRANCH  22  23
ENDBRANCH  21  22
ENDBRANCH  20  21
ENDBRANCH  19  20
ENDBRANCH  18  19
ENDBRANCH   1  18
TORSDOF 8
ENDMDL
MODEL 7
REMARK VINA RESULT:      -8.1      5.760     11.413
REMARK  8 active torsions:
REMARK  status: ('A' for Active; 'I' for Inactive)
REMARK    1  A    between atoms: C_6  and  O_7 
REMARK    2  A    between atoms: O_7  and  C_8 
REMARK    3  A    between atoms: C_8  and  C_9 
REMARK    4  A    between atoms: C_9  and  C_10 
REMARK    5  A    between atoms: C_10  and  C_11 
REMARK    6  A    between atoms: C_11  and  N_12 
REMARK       I    between atoms: N_12  and  C_13 
REMARK    7  A    between atoms: C_13  and  C_14 
REMARK    8  A    between atoms: C_18  and  C_19 
ROOT
HETATM    1  N   UNL     1      39.909 -14.109   5.946  1.00  0.00    -0.345 N 
HETATM    2  C   UNL     1      40.228 -14.554   4.687  1.00  0.00     0.270 C 
HETATM    3  O   UNL     1      39.755 -14.065   3.667  1.00  0.00    -0.266 OA
HETATM    4  H   UNL     1      40.289 -14.569   6.758  1.00  0.00     0.163 HD
ENDROOT
BRANCH   2   5
HETATM    5  C   UNL     1      41.179 -15.632   4.637  1.00  0.00     0.120 A 
HETATM    6  N   UNL     1      41.988 -15.914   5.701  1.00  0.00    -0.272 N 
HETATM    7  H   UNL     1      42.022 -15.418   6.587  1.00  0.00     0.189 HD
HETATM    8  N   UNL     1      42.797 -16.967   5.515  1.00  0.00    -0.174 NA
HETATM    9  C   UNL     1      42.491 -17.417   4.287  1.00  0.00     0.089 A 
HETATM   10  C   UNL     1      41.498 -16.587   3.693  1.00  0.00     0.071 A 
BRANCH   9  11
HETATM   11  C   UNL     1      43.133 -18.612   3.729  1.00  0.00    -0.005 A 
HETATM   12  C   UNL     1      44.082 -19.338   4.468  1.00  0.00     0.017 A 
HETATM   13  C   UNL     1      44.700 -20.466   3.918  1.00  0.00     0.043 A 
HETATM   14  C   UNL     1      44.371 -20.871   2.631  1.00  0.00     0.116 A 
HETATM   15  F   UNL     1      44.966 -21.949   2.107  1.00  0.00    -0.206 F 
HETATM   16  C   UNL     1      43.437 -20.171   1.879  1.00  0.00     0.043 A 
HETATM   17  C   UNL     1      42.821 -19.042   2.428  1.00  0.00     0.017 A 
ENDBRANCH   9  11
ENDBRANCH   2   5
BRANCH   1  18
HETATM   18  C   UNL     1      39.084 -12.949   6.150  1.00  0.00     0.217 C 
BRANCH  18  19
HETATM   19  C   UNL     1      39.874 -11.856   6.852  1.00  0.00    -0.085 C 
BRANCH  19  20
HETATM   20  C   UNL     1      40.551 -10.919   7.453  1.00  0.00    -0.078 C 
BRANCH  20  21
HETATM   21  C   UNL     1      41.304  -9.852   8.129  1.00  0.00     0.269 C 
BRANCH  21  22
HETATM   22  O   UNL     1      42.673 -10.239   8.224  1.00  0.00    -0.340 OA
BRANCH  22  23
HETATM   23  C   UNL     1      43.070 -10.849   9.382  1.00  0.00     0.071 A 
HETATM   24  C   UNL     1      42.261 -10.574  10.488  1.00  0.00     0.055 A 
HETATM   25  C   UNL     1      42.557 -11.136  11.730  1.00  0.00     0.013 A 
HETATM   26  C   UNL     1      43.658 -11.975  11.881  1.00  0.00     0.019 A 
HETATM   27 BR   UNL     1      41.458 -10.755  13.220  1.00  0.00    -0.051 Br
HETATM   28  C   UNL     1      44.466 -12.253  10.780  1.00  0.00     0.004 A 
HETATM   29  C   UNL     1      44.174 -11.692   9.532  1.00  0.00     0.037 A 
ENDBRANCH  22  23
ENDBRANCH  21  22
ENDBRANCH  20  21
ENDBRANCH  19  20
ENDBRANCH  18  19
ENDBRANCH   1  18
TORSDOF 8
ENDMDL
MODEL 8
REMARK VINA RESULT:      -8.0      5.928     11.799
REMARK  8 active torsions:
REMARK  status: ('A' for Active; 'I' for Inactive)
REMARK    1  A    between atoms: C_6  and  O_7 
REMARK    2  A    between atoms: O_7  and  C_8 
REMARK    3  A    between atoms: C_8  and  C_9 
REMARK    4  A    between atoms: C_9  and  C_10 
REMARK    5  A    between atoms: C_10  and  C_11 
REMARK    6  A    between atoms: C_11  and  N_12 
REMARK       I    between atoms: N_12  and  C_13 
REMARK    7  A    between atoms: C_13  and  C_14 
REMARK    8  A    between atoms: C_18  and  C_19 
ROOT
HETATM    1  N   UNL     1      40.682 -12.839   6.341  1.00  0.00    -0.345 N 
HETATM    2  C   UNL     1      40.444 -13.724   5.320  1.00  0.00     0.270 C 
HETATM    3  O   UNL     1      39.501 -13.608   4.543  1.00  0.00    -0.266 OA
HETATM    4  H   UNL     1      41.444 -12.997   6.982  1.00  0.00     0.163 HD
ENDROOT
BRANCH   2   5
HETATM    5  C   UNL     1      41.391 -14.799   5.201  1.00  0.00     0.120 A 
HETATM    6  N   UNL     1      42.266 -15.088   6.210  1.00  0.00    -0.272 N 
HETATM    7  H   UNL     1      42.355 -14.599   7.096  1.00  0.00     0.189 HD
HETATM    8  N   UNL     1      43.063 -16.138   5.965  1.00  0.00    -0.174 NA
HETATM    9  C   UNL     1      42.681 -16.579   4.755  1.00  0.00     0.089 A 
HETATM   10  C   UNL     1      41.651 -15.746   4.231  1.00  0.00     0.071 A 
BRANCH   9  11
HETATM   11  C   UNL     1      43.288 -17.768   4.148  1.00  0.00    -0.005 A 
HETATM   12  C   UNL     1      43.128 -18.048   2.781  1.00  0.00     0.017 A 
HETATM   13  C   UNL     1      43.697 -19.195   2.218  1.00  0.00     0.043 A 
HETATM   14  C   UNL     1      44.427 -20.064   3.018  1.00  0.00     0.116 A 
HETATM   15  F   UNL     1      44.967 -21.162   2.476  1.00  0.00    -0.206 F 
HETATM   16  C   UNL     1      44.599 -19.812   4.373  1.00  0.00     0.043 A 
HETATM   17  C   UNL     1      44.029 -18.667   4.936  1.00  0.00     0.017 A 
ENDBRANCH   9  11
ENDBRANCH   2   5
BRANCH   1  18
HETATM   18  C   UNL     1      39.907 -11.638   6.498  1.00  0.00     0.217 C 
BRANCH  18  19
HETATM   19  C   UNL     1      39.804 -11.263   7.967  1.00  0.00    -0.085 C 
BRANCH  19  20
HETATM   20  C   UNL     1      39.715 -10.943   9.227  1.00  0.00    -0.078 C 
BRANCH  20  21
HETATM   21  C   UNL     1      39.618 -10.595  10.652  1.00  0.00     0.269 C 
BRANCH  21  22
HETATM   22  O   UNL     1      40.508 -11.427  11.394  1.00  0.00    -0.340 OA
BRANCH  22  23
HETATM   23  C   UNL     1      41.509 -10.806  12.089  1.00  0.00     0.071 A 
HETATM   24  C   UNL     1      41.176 -10.465  13.404  1.00  0.00     0.055 A 
HETATM   25  C   UNL     1      42.110  -9.827  14.220  1.00  0.00     0.013 A 
HETATM   26  C   UNL     1      43.381  -9.525  13.738  1.00  0.00     0.019 A 
HETATM   27 BR   UNL     1      41.647  -9.368  15.995  1.00  0.00    -0.051 Br
HETATM   28  C   UNL     1      43.717  -9.866  12.428  1.00  0.00     0.004 A 
HETATM   29  C   UNL     1      42.784 -10.505  11.605  1.00  0.00     0.037 A 
ENDBRANCH  22  23
ENDBRANCH  21  22
ENDBRANCH  20  21
ENDBRANCH  19  20
ENDBRANCH  18  19
ENDBRANCH   1  18
TORSDOF 8
ENDMDL
MODEL 9
REMARK VINA RESULT:      -7.9      4.796     10.603
REMARK  8 active torsions:
REMARK  status: ('A' for Active; 'I' for Inactive)
REMARK    1  A    between atoms: C_6  and  O_7 
REMARK    2  A    between atoms: O_7  and  C_8 
REMARK    3  A    between atoms: C_8  and  C_9 
REMARK    4  A    between atoms: C_9  and  C_10 
REMARK    5  A    between atoms: C_10  and  C_11 
REMARK    6  A    between atoms: C_11  and  N_12 
REMARK       I    between atoms: N_12  and  C_13 
REMARK    7  A    between atoms: C_13  and  C_14 
REMARK    8  A    between atoms: C_18  and  C_19 
ROOT
HETATM    1  N   UNL     1      44.370 -12.741   9.346  1.00  0.00    -0.345 N 
HETATM    2  C   UNL     1      45.053 -13.045   8.196  1.00  0.00     0.270 C 
HETATM    3  O   UNL     1      46.192 -12.648   7.972  1.00  0.00    -0.266 OA
HETATM    4  H   UNL     1      43.419 -13.053   9.469  1.00  0.00     0.163 HD
ENDROOT
BRANCH   2   5
HETATM    5  C   UNL     1      44.351 -13.887   7.264  1.00  0.00     0.120 A 
HETATM    6  N   UNL     1      43.165 -13.495   6.710  1.00  0.00    -0.272 N 
HETATM    7  H   UNL     1      42.666 -12.630   6.892  1.00  0.00     0.189 HD
HETATM    8  N   UNL     1      42.650 -14.372   5.836  1.00  0.00    -0.174 NA
HETATM    9  C   UNL     1      43.544 -15.372   5.790  1.00  0.00     0.089 A 
HETATM   10  C   UNL     1      44.615 -15.116   6.695  1.00  0.00     0.071 A 
BRANCH   9  11
HETATM   11  C   UNL     1      43.366 -16.517   4.891  1.00  0.00    -0.005 A 
HETATM   12  C   UNL     1      42.672 -16.385   3.677  1.00  0.00     0.017 A 
HETATM   13  C   UNL     1      42.493 -17.489   2.837  1.00  0.00     0.043 A 
HETATM   14  C   UNL     1      43.007 -18.725   3.206  1.00  0.00     0.116 A 
HETATM   15  F   UNL     1      42.831 -19.779   2.401  1.00  0.00    -0.206 F 
HETATM   16  C   UNL     1      43.696 -18.882   4.402  1.00  0.00     0.043 A 
HETATM   17  C   UNL     1      43.873 -17.780   5.243  1.00  0.00     0.017 A 
ENDBRANCH   9  11
ENDBRANCH   2   5
BRANCH   1  18
HETATM   18  C   UNL     1      44.992 -12.029  10.430  1.00  0.00     0.217 C 
BRANCH  18  19
HETATM   19  C   UNL     1      43.947 -11.590  11.443  1.00  0.00    -0.085 C 
BRANCH  19  20
HETATM   20  C   UNL     1      43.051 -11.213  12.311  1.00  0.00    -0.078 C 
BRANCH  20  21
HETATM   21  C   UNL     1      42.031 -10.785  13.279  1.00  0.00     0.269 C 
BRANCH  21  22
HETATM   22  O   UNL     1      40.781 -11.373  12.926  1.00  0.00    -0.340 OA
BRANCH  22  23
HETATM   23  C   UNL     1      40.021 -10.712  12.000  1.00  0.00     0.071 A 
HETATM   24  C   UNL     1      40.172 -11.173  10.689  1.00  0.00     0.055 A 
HETATM   25  C   UNL     1      39.452 -10.584   9.651  1.00  0.00     0.013 A 
HETATM   26  C   UNL     1      38.573  -9.535   9.908  1.00  0.00     0.019 A 
HETATM   27 BR   UNL     1      39.668 -11.214   7.881  1.00  0.00    -0.051 Br
HETATM   28  C   UNL     1      38.418  -9.074  11.214  1.00  0.00     0.004 A 
HETATM   29  C   UNL     1      39.139  -9.660  12.259  1.00  0.00     0.037 A 
ENDBRANCH  22  23
ENDBRANCH  21  22
ENDBRANCH  20  21
ENDBRANCH  19  20
ENDBRANCH  18  19
ENDBRANCH   1  18
TORSDOF 8
ENDMDL
MODEL 10
REMARK VINA RESULT:      -7.9      6.857      8.779
REMARK  8 active torsions:
REMARK  status: ('A' for Active; 'I' for Inactive)
REMARK    1  A    between atoms: C_6  and  O_7 
REMARK    2  A    between atoms: O_7  and  C_8 
REMARK    3  A    between atoms: C_8  and  C_9 
REMARK    4  A    between atoms: C_9  and  C_10 
REMARK    5  A    between atoms: C_10  and  C_11 
REMARK    6  A    between atoms: C_11  and  N_12 
REMARK       I    between atoms: N_12  and  C_13 
REMARK    7  A    between atoms: C_13  and  C_14 
REMARK    8  A    between atoms: C_18  and  C_19 
ROOT
HETATM    1  N   UNL     1      42.841 -16.736   6.510  1.00  0.00    -0.345 N 
HETATM    2  C   UNL     1      43.421 -15.501   6.359  1.00  0.00     0.270 C 
HETATM    3  O   UNL     1      44.104 -14.974   7.230  1.00  0.00    -0.266 OA
HETATM    4  H   UNL     1      42.252 -17.112   5.783  1.00  0.00     0.163 HD
ENDROOT
BRANCH   2   5
HETATM    5  C   UNL     1      43.192 -14.863   5.090  1.00  0.00     0.120 A 
HETATM    6  N   UNL     1      43.986 -13.839   4.658  1.00  0.00    -0.272 N 
HETATM    7  H   UNL     1      44.769 -13.425   5.156  1.00  0.00     0.189 HD
HETATM    8  N   UNL     1      43.668 -13.370   3.443  1.00  0.00    -0.174 NA
HETATM    9  C   UNL     1      42.638 -14.133   3.043  1.00  0.00     0.089 A 
HETATM   10  C   UNL     1      42.292 -15.065   4.063  1.00  0.00     0.071 A 
BRANCH   9  11
HETATM   11  C   UNL     1      42.031 -13.965   1.718  1.00  0.00    -0.005 A 
HETATM   12  C   UNL     1      41.979 -12.706   1.098  1.00  0.00     0.017 A 
HETATM   13  C   UNL     1      41.382 -12.556  -0.158  1.00  0.00     0.043 A 
HETATM   14  C   UNL     1      40.837 -13.663  -0.797  1.00  0.00     0.116 A 
HETATM   15  F   UNL     1      40.264 -13.515  -1.997  1.00  0.00    -0.206 F 
HETATM   16  C   UNL     1      40.875 -14.918  -0.205  1.00  0.00     0.043 A 
HETATM   17  C   UNL     1      41.469 -15.068   1.051  1.00  0.00     0.017 A 
ENDBRANCH   9  11
ENDBRANCH   2   5
BRANCH   1  18
HETATM   18  C   UNL     1      43.097 -17.555   7.663  1.00  0.00     0.217 C 
BRANCH  18  19
HETATM   19  C   UNL     1      43.462 -18.968   7.238  1.00  0.00    -0.085 C 
BRANCH  19  20
HETATM   20  C   UNL     1      43.774 -20.180   6.872  1.00  0.00    -0.078 C 
BRANCH  20  21
HETATM   21  C   UNL     1      44.113 -21.551   6.464  1.00  0.00     0.269 C 
BRANCH  21  22
HETATM   22  O   UNL     1      45.112 -21.499   5.448  1.00  0.00    -0.340 OA
BRANCH  22  23
HETATM   23  C   UNL     1      44.684 -21.320   4.161  1.00  0.00     0.071 A 
HETATM   24  C   UNL     1      44.547 -19.983   3.775  1.00  0.00     0.055 A 
HETATM   25  C   UNL     1      44.119 -19.665   2.487  1.00  0.00     0.013 A 
HETATM   26  C   UNL     1      43.826 -20.672   1.571  1.00  0.00     0.019 A 
HETATM   27 BR   UNL     1      43.935 -17.853   1.978  1.00  0.00    -0.051 Br
HETATM   28  C   UNL     1      43.962 -22.007   1.951  1.00  0.00     0.004 A 
HETATM   29  C   UNL     1      44.391 -22.331   3.243  1.00  0.00     0.037 A 
ENDBRANCH  22  23
ENDBRANCH  21  22
ENDBRANCH  20  21
ENDBRANCH  19  20
ENDBRANCH  18  19
ENDBRANCH   1  18
TORSDOF 8
ENDMDL
