MODEL 1
REMARK VINA RESULT:      -8.3      0.000      0.000
REMARK  9 active torsions:
REMARK  status: ('A' for Active; 'I' for Inactive)
REMARK    1  A    between atoms: C_2  and  O_3 
REMARK    2  A    between atoms: O_3  and  C_4 
REMARK    3  A    between atoms: C_7  and  N_8 
REMARK       I    between atoms: N_8  and  C_9 
REMARK    4  A    between atoms: C_9  and  C_10 
REMARK    5  A    between atoms: C_11  and  N_12 
REMARK       I    between atoms: N_12  and  C_13 
REMARK    6  A    between atoms: C_13  and  C_14 
REMARK    7  A    between atoms: C_14  and  N_15 
REMARK    8  A    between atoms: N_15  and  C_18 
REMARK    9  A    between atoms: C_18  and  C_19 
ROOT
HETATM    1  C   UNL     1      43.666 -18.942   3.531  1.00  0.00     0.073 A 
HETATM    2  C   UNL     1      43.803 -19.124   4.914  1.00  0.00     0.093 A 
HETATM    3  S   UNL     1      44.391 -20.671   5.343  1.00  0.00    -0.075 SA
HETATM    4  C   UNL     1      44.426 -21.130   3.743  1.00  0.00    -0.008 A 
HETATM    5  C   UNL     1      44.013 -20.161   2.869  1.00  0.00    -0.026 A 
HETATM    6  C   UNL     1      44.049 -20.689   1.474  1.00  0.00     0.041 C 
HETATM    7  C   UNL     1      44.205 -22.225   1.690  1.00  0.00     0.010 C 
HETATM    8  C   UNL     1      44.811 -22.413   3.109  1.00  0.00     0.047 C 
ENDROOT
BRANCH   2   9
HETATM    9  N   UNL     1      43.484 -18.181   5.884  1.00  0.00    -0.319 N 
HETATM   10  C   UNL     1      44.334 -17.620   6.807  1.00  0.00     0.248 C 
HETATM   11  O   UNL     1      45.552 -17.758   6.926  1.00  0.00    -0.271 OA
HETATM   12  H   UNL     1      42.505 -17.886   5.841  1.00  0.00     0.169 HD
BRANCH  10  13
HETATM   13  C   UNL     1      43.645 -16.683   7.798  1.00  0.00     0.335 C 
BRANCH  13  14
HETATM   14  N   UNL     1      42.931 -15.598   7.031  1.00  0.00    -0.059 N 
HETATM   15  H   UNL     1      42.222 -16.091   6.453  1.00  0.00     0.278 HD
HETATM   16  H   UNL     1      42.349 -15.042   7.670  1.00  0.00     0.278 HD
BRANCH  14  17
HETATM   17  C   UNL     1      43.736 -14.719   6.138  1.00  0.00     0.215 C 
HETATM   18  C   UNL     1      44.588 -13.763   6.972  1.00  0.00     0.045 C 
BRANCH  17  19
HETATM   19  C   UNL     1      42.817 -13.999   5.175  1.00  0.00    -0.028 A 
HETATM   20  C   UNL     1      43.222 -13.674   3.868  1.00  0.00     0.009 A 
HETATM   21  C   UNL     1      42.369 -12.977   3.011  1.00  0.00     0.001 A 
HETATM   22  C   UNL     1      41.103 -12.594   3.444  1.00  0.00     0.000 A 
HETATM   23  C   UNL     1      40.687 -12.905   4.735  1.00  0.00     0.001 A 
HETATM   24  C   UNL     1      41.538 -13.599   5.598  1.00  0.00     0.009 A 
ENDBRANCH  17  19
ENDBRANCH  14  17
ENDBRANCH  13  14
ENDBRANCH  10  13
ENDBRANCH   2   9
BRANCH   1  25
HETATM   25  C   UNL     1      43.225 -17.649   2.971  1.00  0.00     0.259 C 
HETATM   26  N   UNL     1      41.974 -17.669   2.391  1.00  0.00    -0.323 N 
HETATM   27  H   UNL     1      41.494 -18.555   2.375  1.00  0.00     0.169 HD
HETATM   28  O   UNL     1      43.988 -16.684   3.002  1.00  0.00    -0.267 OA
BRANCH  26  29
HETATM   29  C   UNL     1      41.314 -16.630   1.704  1.00  0.00     0.035 A 
HETATM   30  C   UNL     1      41.729 -16.100   0.482  1.00  0.00     0.032 A 
HETATM   31  C   UNL     1      40.978 -15.100  -0.154  1.00  0.00     0.039 A 
HETATM   32  C   UNL     1      39.806 -14.621   0.427  1.00  0.00     0.068 A 
HETATM   33  C   UNL     1      39.412 -15.118   1.667  1.00  0.00     0.039 A 
HETATM   34  C   UNL     1      40.155 -16.117   2.300  1.00  0.00     0.032 A 
BRANCH  32  35
HETATM   35  O   UNL     1      38.979 -13.671  -0.100  1.00  0.00    -0.352 OA
BRANCH  35  36
HETATM   36  C   UNL     1      39.151 -13.365  -1.483  1.00  0.00     0.171 C 
HETATM   37  C   UNL     1      38.034 -14.044  -2.254  1.00  0.00     0.034 C 
ENDBRANCH  35  36
ENDBRANCH  32  35
ENDBRANCH  26  29
ENDBRANCH   1  25
TORSDOF 9
ENDMDL
MODEL 2
REMARK VINA RESULT:      -8.2      2.016      3.313
REMARK  9 active torsions:
REMARK  status: ('A' for Active; 'I' for Inactive)
REMARK    1  A    between atoms: C_2  and  O_3 
REMARK    2  A    between atoms: O_3  and  C_4 
REMARK    3  A    between atoms: C_7  and  N_8 
REMARK       I    between atoms: N_8  and  C_9 
REMARK    4  A    between atoms: C_9  and  C_10 
REMARK    5  A    between atoms: C_11  and  N_12 
REMARK       I    between atoms: N_12  and  C_13 
REMARK    6  A    between atoms: C_13  and  C_14 
REMARK    7  A    between atoms: C_14  and  N_15 
REMARK    8  A    between atoms: N_15  and  C_18 
REMARK    9  A    between atoms: C_18  and  C_19 
ROOT
HETATM    1  C   UNL     1      42.758 -17.934   2.926  1.00  0.00     0.073 A 
HETATM    2  C   UNL     1      43.080 -17.360   4.164  1.00  0.00     0.093 A 
HETATM    3  S   UNL     1      44.190 -18.286   5.077  1.00  0.00    -0.075 SA
HETATM    4  C   UNL     1      44.221 -19.459   3.896  1.00  0.00    -0.008 A 
HETATM    5  C   UNL     1      43.426 -19.193   2.814  1.00  0.00    -0.026 A 
HETATM    6  C   UNL     1      43.500 -20.320   1.841  1.00  0.00     0.041 C 
HETATM    7  C   UNL     1      44.180 -21.450   2.672  1.00  0.00     0.010 C 
HETATM    8  C   UNL     1      44.949 -20.749   3.827  1.00  0.00     0.047 C 
ENDROOT
BRANCH   2   9
HETATM    9  N   UNL     1      42.561 -16.168   4.657  1.00  0.00    -0.319 N 
HETATM   10  C   UNL     1      42.920 -14.893   4.293  1.00  0.00     0.248 C 
HETATM   11  O   UNL     1      43.700 -14.527   3.414  1.00  0.00    -0.271 OA
HETATM   12  H   UNL     1      41.812 -16.317   5.339  1.00  0.00     0.169 HD
BRANCH  10  13
HETATM   13  C   UNL     1      42.222 -13.797   5.098  1.00  0.00     0.335 C 
BRANCH  13  14
HETATM   14  N   UNL     1      41.543 -12.846   4.145  1.00  0.00    -0.059 N 
HETATM   15  H   UNL     1      42.050 -11.945   4.248  1.00  0.00     0.278 HD
HETATM   16  H   UNL     1      41.755 -13.111   3.175  1.00  0.00     0.278 HD
BRANCH  14  17
HETATM   17  C   UNL     1      40.087 -12.588   4.323  1.00  0.00     0.215 C 
HETATM   18  C   UNL     1      39.585 -13.266   5.597  1.00  0.00     0.045 C 
BRANCH  17  19
HETATM   19  C   UNL     1      39.339 -13.036   3.085  1.00  0.00    -0.028 A 
HETATM   20  C   UNL     1      38.649 -12.124   2.267  1.00  0.00     0.009 A 
HETATM   21  C   UNL     1      37.936 -12.566   1.151  1.00  0.00     0.001 A 
HETATM   22  C   UNL     1      37.900 -13.922   0.838  1.00  0.00     0.000 A 
HETATM   23  C   UNL     1      38.575 -14.838   1.639  1.00  0.00     0.001 A 
HETATM   24  C   UNL     1      39.287 -14.402   2.758  1.00  0.00     0.009 A 
ENDBRANCH  17  19
ENDBRANCH  14  17
ENDBRANCH  13  14
ENDBRANCH  10  13
ENDBRANCH   2   9
BRANCH   1  25
HETATM   25  C   UNL     1      41.858 -17.247   1.979  1.00  0.00     0.259 C 
HETATM   26  N   UNL     1      42.479 -16.338   1.149  1.00  0.00    -0.323 N 
HETATM   27  H   UNL     1      43.470 -16.205   1.281  1.00  0.00     0.169 HD
HETATM   28  O   UNL     1      40.649 -17.473   2.021  1.00  0.00    -0.267 OA
BRANCH  26  29
HETATM   29  C   UNL     1      41.890 -15.473   0.205  1.00  0.00     0.035 A 
HETATM   30  C   UNL     1      41.242 -15.893  -0.957  1.00  0.00     0.032 A 
HETATM   31  C   UNL     1      40.639 -14.960  -1.814  1.00  0.00     0.039 A 
HETATM   32  C   UNL     1      40.678 -13.599  -1.516  1.00  0.00     0.068 A 
HETATM   33  C   UNL     1      41.359 -13.174  -0.378  1.00  0.00     0.039 A 
HETATM   34  C   UNL     1      41.957 -14.101   0.479  1.00  0.00     0.032 A 
BRANCH  32  35
HETATM   35  O   UNL     1      40.112 -12.598  -2.253  1.00  0.00    -0.352 OA
BRANCH  35  36
HETATM   36  C   UNL     1      40.411 -12.581  -3.648  1.00  0.00     0.171 C 
HETATM   37  C   UNL     1      41.752 -11.895  -3.829  1.00  0.00     0.034 C 
ENDBRANCH  35  36
ENDBRANCH  32  35
ENDBRANCH  26  29
ENDBRANCH   1  25
TORSDOF 9
ENDMDL
MODEL 3
REMARK VINA RESULT:      -8.1      2.837      6.974
REMARK  9 active torsions:
REMARK  status: ('A' for Active; 'I' for Inactive)
REMARK    1  A    between atoms: C_2  and  O_3 
REMARK    2  A    between atoms: O_3  and  C_4 
REMARK    3  A    between atoms: C_7  and  N_8 
REMARK       I    between atoms: N_8  and  C_9 
REMARK    4  A    between atoms: C_9  and  C_10 
REMARK    5  A    between atoms: C_11  and  N_12 
REMARK       I    between atoms: N_12  and  C_13 
REMARK    6  A    between atoms: C_13  and  C_14 
REMARK    7  A    between atoms: C_14  and  N_15 
REMARK    8  A    between atoms: N_15  and  C_18 
REMARK    9  A    between atoms: C_18  and  C_19 
ROOT
HETATM    1  C   UNL     1      40.777 -14.656   0.154  1.00  0.00     0.073 A 
HETATM    2  C   UNL     1      40.538 -13.318   0.498  1.00  0.00     0.093 A 
HETATM    3  S   UNL     1      40.154 -12.327  -0.841  1.00  0.00    -0.075 SA
HETATM    4  C   UNL     1      40.341 -13.615  -1.880  1.00  0.00    -0.008 A 
HETATM    5  C   UNL     1      40.683 -14.789  -1.267  1.00  0.00    -0.026 A 
HETATM    6  C   UNL     1      40.862 -15.861  -2.289  1.00  0.00     0.041 C 
HETATM    7  C   UNL     1      40.921 -15.059  -3.624  1.00  0.00     0.010 C 
HETATM    8  C   UNL     1      40.218 -13.699  -3.355  1.00  0.00     0.047 C 
ENDROOT
BRANCH   2   9
HETATM    9  N   UNL     1      40.616 -12.792   1.783  1.00  0.00    -0.319 N 
HETATM   10  C   UNL     1      41.744 -12.649   2.554  1.00  0.00     0.248 C 
HETATM   11  O   UNL     1      42.919 -12.868   2.259  1.00  0.00    -0.271 OA
HETATM   12  H   UNL     1      39.711 -12.465   2.130  1.00  0.00     0.169 HD
BRANCH  10  13
HETATM   13  C   UNL     1      41.471 -12.124   3.963  1.00  0.00     0.335 C 
BRANCH  13  14
HETATM   14  N   UNL     1      41.987 -13.123   4.967  1.00  0.00    -0.059 N 
HETATM   15  H   UNL     1      42.989 -13.257   4.732  1.00  0.00     0.278 HD
HETATM   16  H   UNL     1      42.033 -12.692   5.899  1.00  0.00     0.278 HD
BRANCH  14  17
HETATM   17  C   UNL     1      41.336 -14.461   5.029  1.00  0.00     0.215 C 
HETATM   18  C   UNL     1      39.877 -14.316   5.462  1.00  0.00     0.045 C 
BRANCH  17  19
HETATM   19  C   UNL     1      42.132 -15.370   5.941  1.00  0.00    -0.028 A 
HETATM   20  C   UNL     1      41.604 -16.579   6.427  1.00  0.00     0.009 A 
HETATM   21  C   UNL     1      42.345 -17.382   7.295  1.00  0.00     0.001 A 
HETATM   22  C   UNL     1      43.620 -16.990   7.693  1.00  0.00     0.000 A 
HETATM   23  C   UNL     1      44.157 -15.795   7.223  1.00  0.00     0.001 A 
HETATM   24  C   UNL     1      43.419 -14.986   6.357  1.00  0.00     0.009 A 
ENDBRANCH  17  19
ENDBRANCH  14  17
ENDBRANCH  13  14
ENDBRANCH  10  13
ENDBRANCH   2   9
BRANCH   1  25
HETATM   25  C   UNL     1      41.068 -15.669   1.187  1.00  0.00     0.259 C 
HETATM   26  N   UNL     1      42.300 -16.276   1.068  1.00  0.00    -0.323 N 
HETATM   27  H   UNL     1      42.869 -16.000   0.283  1.00  0.00     0.169 HD
HETATM   28  O   UNL     1      40.209 -15.943   2.025  1.00  0.00    -0.267 OA
BRANCH  26  29
HETATM   29  C   UNL     1      42.832 -17.330   1.839  1.00  0.00     0.035 A 
HETATM   30  C   UNL     1      42.870 -18.664   1.435  1.00  0.00     0.032 A 
HETATM   31  C   UNL     1      43.467 -19.639   2.249  1.00  0.00     0.039 A 
HETATM   32  C   UNL     1      44.031 -19.287   3.474  1.00  0.00     0.068 A 
HETATM   33  C   UNL     1      43.958 -17.962   3.898  1.00  0.00     0.039 A 
HETATM   34  C   UNL     1      43.368 -16.989   3.087  1.00  0.00     0.032 A 
BRANCH  32  35
HETATM   35  O   UNL     1      44.659 -20.133   4.342  1.00  0.00    -0.352 OA
BRANCH  35  36
HETATM   36  C   UNL     1      44.730 -21.507   3.962  1.00  0.00     0.171 C 
HETATM   37  C   UNL     1      45.079 -22.316   5.198  1.00  0.00     0.034 C 
ENDBRANCH  35  36
ENDBRANCH  32  35
ENDBRANCH  26  29
ENDBRANCH   1  25
TORSDOF 9
ENDMDL
MODEL 4
REMARK VINA RESULT:      -7.9      3.027      7.789
REMARK  9 active torsions:
REMARK  status: ('A' for Active; 'I' for Inactive)
REMARK    1  A    between atoms: C_2  and  O_3 
REMARK    2  A    between atoms: O_3  and  C_4 
REMARK    3  A    between atoms: C_7  and  N_8 
REMARK       I    between atoms: N_8  and  C_9 
REMARK    4  A    between atoms: C_9  and  C_10 
REMARK    5  A    between atoms: C_11  and  N_12 
REMARK       I    between atoms: N_12  and  C_13 
REMARK    6  A    between atoms: C_13  and  C_14 
REMARK    7  A    between atoms: C_14  and  N_15 
REMARK    8  A    between atoms: N_15  and  C_18 
REMARK    9  A    between atoms: C_18  and  C_19 
ROOT
HETATM    1  C   UNL     1      43.385 -12.741   7.254  1.00  0.00     0.073 A 
HETATM    2  C   UNL     1      42.261 -11.963   6.946  1.00  0.00     0.093 A 
HETATM    3  S   UNL     1      42.040 -10.635   8.001  1.00  0.00    -0.075 SA
HETATM    4  C   UNL     1      43.371 -11.089   8.891  1.00  0.00    -0.008 A 
HETATM    5  C   UNL     1      44.001 -12.214   8.432  1.00  0.00    -0.026 A 
HETATM    6  C   UNL     1      45.151 -12.549   9.321  1.00  0.00     0.041 C 
HETATM    7  C   UNL     1      44.890 -11.660  10.575  1.00  0.00     0.010 C 
HETATM    8  C   UNL     1      43.977 -10.492  10.106  1.00  0.00     0.047 C 
ENDROOT
BRANCH   2   9
HETATM    9  N   UNL     1      41.369 -12.215   5.909  1.00  0.00    -0.319 N 
HETATM   10  C   UNL     1      40.542 -13.304   5.773  1.00  0.00     0.248 C 
HETATM   11  O   UNL     1      40.348 -14.234   6.555  1.00  0.00    -0.271 OA
HETATM   12  H   UNL     1      41.345 -11.461   5.218  1.00  0.00     0.169 HD
BRANCH  10  13
HETATM   13  C   UNL     1      39.753 -13.324   4.464  1.00  0.00     0.335 C 
BRANCH  13  14
HETATM   14  N   UNL     1      39.843 -14.702   3.858  1.00  0.00    -0.059 N 
HETATM   15  H   UNL     1      40.569 -15.198   4.411  1.00  0.00     0.278 HD
HETATM   16  H   UNL     1      38.994 -15.236   4.075  1.00  0.00     0.278 HD
BRANCH  14  17
HETATM   17  C   UNL     1      40.193 -14.816   2.415  1.00  0.00     0.215 C 
HETATM   18  C   UNL     1      38.955 -15.194   1.603  1.00  0.00     0.045 C 
BRANCH  17  19
HETATM   19  C   UNL     1      41.331 -15.800   2.247  1.00  0.00    -0.028 A 
HETATM   20  C   UNL     1      42.669 -15.430   2.469  1.00  0.00     0.009 A 
HETATM   21  C   UNL     1      43.703 -16.347   2.272  1.00  0.00     0.001 A 
HETATM   22  C   UNL     1      43.418 -17.642   1.848  1.00  0.00     0.000 A 
HETATM   23  C   UNL     1      42.099 -18.023   1.620  1.00  0.00     0.001 A 
HETATM   24  C   UNL     1      41.061 -17.110   1.813  1.00  0.00     0.009 A 
ENDBRANCH  17  19
ENDBRANCH  14  17
ENDBRANCH  13  14
ENDBRANCH  10  13
ENDBRANCH   2   9
BRANCH   1  25
HETATM   25  C   UNL     1      43.766 -13.896   6.418  1.00  0.00     0.259 C 
HETATM   26  N   UNL     1      43.398 -15.123   6.928  1.00  0.00    -0.323 N 
HETATM   27  H   UNL     1      42.936 -15.124   7.824  1.00  0.00     0.169 HD
HETATM   28  O   UNL     1      44.413 -13.710   5.388  1.00  0.00    -0.267 OA
BRANCH  26  29
HETATM   29  C   UNL     1      43.687 -16.404   6.415  1.00  0.00     0.035 A 
HETATM   30  C   UNL     1      44.929 -17.032   6.506  1.00  0.00     0.032 A 
HETATM   31  C   UNL     1      45.110 -18.332   6.010  1.00  0.00     0.039 A 
HETATM   32  C   UNL     1      44.049 -19.015   5.419  1.00  0.00     0.068 A 
HETATM   33  C   UNL     1      42.819 -18.375   5.289  1.00  0.00     0.039 A 
HETATM   34  C   UNL     1      42.635 -17.083   5.786  1.00  0.00     0.032 A 
BRANCH  32  35
HETATM   35  O   UNL     1      44.091 -20.286   4.921  1.00  0.00    -0.352 OA
BRANCH  35  36
HETATM   36  C   UNL     1      45.053 -20.545   3.900  1.00  0.00     0.171 C 
HETATM   37  C   UNL     1      44.319 -21.112   2.699  1.00  0.00     0.034 C 
ENDBRANCH  35  36
ENDBRANCH  32  35
ENDBRANCH  26  29
ENDBRANCH   1  25
TORSDOF 9
ENDMDL
MODEL 5
REMARK VINA RESULT:      -7.5      2.943      7.117
REMARK  9 active torsions:
REMARK  status: ('A' for Active; 'I' for Inactive)
REMARK    1  A    between atoms: C_2  and  O_3 
REMARK    2  A    between atoms: O_3  and  C_4 
REMARK    3  A    between atoms: C_7  and  N_8 
REMARK       I    between atoms: N_8  and  C_9 
REMARK    4  A    between atoms: C_9  and  C_10 
REMARK    5  A    between atoms: C_11  and  N_12 
REMARK       I    between atoms: N_12  and  C_13 
REMARK    6  A    between atoms: C_13  and  C_14 
REMARK    7  A    between atoms: C_14  and  N_15 
REMARK    8  A    between atoms: N_15  and  C_18 
REMARK    9  A    between atoms: C_18  and  C_19 
ROOT
HETATM    1  C   UNL     1      39.726 -13.022   1.451  1.00  0.00     0.073 A 
HETATM    2  C   UNL     1      39.717 -12.346   2.679  1.00  0.00     0.093 A 
HETATM    3  S   UNL     1      38.352 -11.340   2.894  1.00  0.00    -0.075 SA
HETATM    4  C   UNL     1      37.789 -11.737   1.379  1.00  0.00    -0.008 A 
HETATM    5  C   UNL     1      38.585 -12.613   0.692  1.00  0.00    -0.026 A 
HETATM    6  C   UNL     1      38.009 -12.868  -0.660  1.00  0.00     0.041 C 
HETATM    7  C   UNL     1      36.944 -11.738  -0.801  1.00  0.00     0.010 C 
HETATM    8  C   UNL     1      36.583 -11.288   0.642  1.00  0.00     0.047 C 
ENDROOT
BRANCH   2   9
HETATM    9  N   UNL     1      40.707 -12.433   3.651  1.00  0.00    -0.319 N 
HETATM   10  C   UNL     1      40.817 -13.379   4.642  1.00  0.00     0.248 C 
HETATM   11  O   UNL     1      40.131 -14.382   4.836  1.00  0.00    -0.271 OA
HETATM   12  H   UNL     1      41.422 -11.707   3.552  1.00  0.00     0.169 HD
BRANCH  10  13
HETATM   13  C   UNL     1      41.973 -13.133   5.610  1.00  0.00     0.335 C 
BRANCH  13  14
HETATM   14  N   UNL     1      42.195 -14.376   6.434  1.00  0.00    -0.059 N 
HETATM   15  H   UNL     1      41.852 -14.140   7.386  1.00  0.00     0.278 HD
HETATM   16  H   UNL     1      41.543 -15.113   6.140  1.00  0.00     0.278 HD
BRANCH  14  17
HETATM   17  C   UNL     1      43.582 -14.906   6.554  1.00  0.00     0.215 C 
HETATM   18  C   UNL     1      44.534 -14.087   5.683  1.00  0.00     0.045 C 
BRANCH  17  19
HETATM   19  C   UNL     1      43.591 -16.380   6.209  1.00  0.00    -0.028 A 
HETATM   20  C   UNL     1      44.748 -17.166   6.354  1.00  0.00     0.009 A 
HETATM   21  C   UNL     1      44.742 -18.515   5.995  1.00  0.00     0.001 A 
HETATM   22  C   UNL     1      43.584 -19.097   5.486  1.00  0.00     0.000 A 
HETATM   23  C   UNL     1      42.432 -18.333   5.333  1.00  0.00     0.001 A 
HETATM   24  C   UNL     1      42.433 -16.982   5.688  1.00  0.00     0.009 A 
ENDBRANCH  17  19
ENDBRANCH  14  17
ENDBRANCH  13  14
ENDBRANCH  10  13
ENDBRANCH   2   9
BRANCH   1  25
HETATM   25  C   UNL     1      40.798 -13.978   1.114  1.00  0.00     0.259 C 
HETATM   26  N   UNL     1      40.835 -15.107   1.906  1.00  0.00    -0.323 N 
HETATM   27  H   UNL     1      40.156 -15.163   2.649  1.00  0.00     0.169 HD
HETATM   28  O   UNL     1      41.600 -13.699   0.223  1.00  0.00    -0.267 OA
BRANCH  26  29
HETATM   29  C   UNL     1      41.779 -16.153   1.890  1.00  0.00     0.035 A 
HETATM   30  C   UNL     1      43.139 -15.996   2.158  1.00  0.00     0.032 A 
HETATM   31  C   UNL     1      43.997 -17.107   2.171  1.00  0.00     0.039 A 
HETATM   32  C   UNL     1      43.501 -18.384   1.916  1.00  0.00     0.068 A 
HETATM   33  C   UNL     1      42.151 -18.538   1.607  1.00  0.00     0.039 A 
HETATM   34  C   UNL     1      41.295 -17.435   1.599  1.00  0.00     0.032 A 
BRANCH  32  35
HETATM   35  O   UNL     1      44.224 -19.542   1.921  1.00  0.00    -0.352 OA
BRANCH  35  36
HETATM   36  C   UNL     1      43.487 -20.759   2.029  1.00  0.00     0.171 C 
HETATM   37  C   UNL     1      44.430 -21.906   1.713  1.00  0.00     0.034 C 
ENDBRANCH  35  36
ENDBRANCH  32  35
ENDBRANCH  26  29
ENDBRANCH   1  25
TORSDOF 9
ENDMDL
MODEL 6
REMARK VINA RESULT:      -7.5      3.315      7.407
REMARK  9 active torsions:
REMARK  status: ('A' for Active; 'I' for Inactive)
REMARK    1  A    between atoms: C_2  and  O_3 
REMARK    2  A    between atoms: O_3  and  C_4 
REMARK    3  A    between atoms: C_7  and  N_8 
REMARK       I    between atoms: N_8  and  C_9 
REMARK    4  A    between atoms: C_9  and  C_10 
REMARK    5  A    between atoms: C_11  and  N_12 
REMARK       I    between atoms: N_12  and  C_13 
REMARK    6  A    between atoms: C_13  and  C_14 
REMARK    7  A    between atoms: C_14  and  N_15 
REMARK    8  A    between atoms: N_15  and  C_18 
REMARK    9  A    between atoms: C_18  and  C_19 
ROOT
HETATM    1  C   UNL     1      39.972 -14.470  -1.186  1.00  0.00     0.073 A 
HETATM    2  C   UNL     1      39.242 -13.290  -0.981  1.00  0.00     0.093 A 
HETATM    3  S   UNL     1      37.997 -13.051  -2.127  1.00  0.00    -0.075 SA
HETATM    4  C   UNL     1      38.426 -14.448  -2.923  1.00  0.00    -0.008 A 
HETATM    5  C   UNL     1      39.483 -15.115  -2.364  1.00  0.00    -0.026 A 
HETATM    6  C   UNL     1      39.806 -16.324  -3.175  1.00  0.00     0.041 C 
HETATM    7  C   UNL     1      39.010 -16.079  -4.493  1.00  0.00     0.010 C 
HETATM    8  C   UNL     1      37.871 -15.081  -4.144  1.00  0.00     0.047 C 
ENDROOT
BRANCH   2   9
HETATM    9  N   UNL     1      39.482 -12.362   0.026  1.00  0.00    -0.319 N 
HETATM   10  C   UNL     1      38.624 -11.991   1.034  1.00  0.00     0.248 C 
HETATM   11  O   UNL     1      37.515 -12.444   1.315  1.00  0.00    -0.271 OA
HETATM   12  H   UNL     1      40.424 -11.966  -0.019  1.00  0.00     0.169 HD
BRANCH  10  13
HETATM   13  C   UNL     1      39.160 -10.871   1.924  1.00  0.00     0.335 C 
BRANCH  13  14
HETATM   14  N   UNL     1      40.247 -11.425   2.809  1.00  0.00    -0.059 N 
HETATM   15  H   UNL     1      40.994 -11.742   2.160  1.00  0.00     0.278 HD
HETATM   16  H   UNL     1      40.707 -10.662   3.321  1.00  0.00     0.278 HD
BRANCH  14  17
HETATM   17  C   UNL     1      39.909 -12.553   3.721  1.00  0.00     0.215 C 
HETATM   18  C   UNL     1      39.147 -12.032   4.939  1.00  0.00     0.045 C 
BRANCH  17  19
HETATM   19  C   UNL     1      41.172 -13.300   4.093  1.00  0.00    -0.028 A 
HETATM   20  C   UNL     1      41.278 -14.020   5.296  1.00  0.00     0.009 A 
HETATM   21  C   UNL     1      42.466 -14.671   5.633  1.00  0.00     0.001 A 
HETATM   22  C   UNL     1      43.564 -14.609   4.778  1.00  0.00     0.000 A 
HETATM   23  C   UNL     1      43.476 -13.898   3.586  1.00  0.00     0.001 A 
HETATM   24  C   UNL     1      42.291 -13.243   3.245  1.00  0.00     0.009 A 
ENDBRANCH  17  19
ENDBRANCH  14  17
ENDBRANCH  13  14
ENDBRANCH  10  13
ENDBRANCH   2   9
BRANCH   1  25
HETATM   25  C   UNL     1      41.050 -14.870  -0.261  1.00  0.00     0.259 C 
HETATM   26  N   UNL     1      40.866 -16.094   0.346  1.00  0.00    -0.323 N 
HETATM   27  H   UNL     1      40.012 -16.585   0.129  1.00  0.00     0.169 HD
HETATM   28  O   UNL     1      41.984 -14.096  -0.049  1.00  0.00    -0.267 OA
BRANCH  26  29
HETATM   29  C   UNL     1      41.664 -16.710   1.330  1.00  0.00     0.035 A 
HETATM   30  C   UNL     1      41.240 -16.996   2.628  1.00  0.00     0.032 A 
HETATM   31  C   UNL     1      42.090 -17.660   3.526  1.00  0.00     0.039 A 
HETATM   32  C   UNL     1      43.371 -18.044   3.133  1.00  0.00     0.068 A 
HETATM   33  C   UNL     1      43.811 -17.723   1.852  1.00  0.00     0.039 A 
HETATM   34  C   UNL     1      42.966 -17.066   0.954  1.00  0.00     0.032 A 
BRANCH  32  35
HETATM   35  O   UNL     1      44.280 -18.712   3.902  1.00  0.00    -0.352 OA
BRANCH  35  36
HETATM   36  C   UNL     1      43.952 -18.884   5.280  1.00  0.00     0.171 C 
HETATM   37  C   UNL     1      44.912 -18.039   6.098  1.00  0.00     0.034 C 
ENDBRANCH  35  36
ENDBRANCH  32  35
ENDBRANCH  26  29
ENDBRANCH   1  25
TORSDOF 9
ENDMDL
MODEL 7
REMARK VINA RESULT:      -7.4      2.490      7.188
REMARK  9 active torsions:
REMARK  status: ('A' for Active; 'I' for Inactive)
REMARK    1  A    between atoms: C_2  and  O_3 
REMARK    2  A    between atoms: O_3  and  C_4 
REMARK    3  A    between atoms: C_7  and  N_8 
REMARK       I    between atoms: N_8  and  C_9 
REMARK    4  A    between atoms: C_9  and  C_10 
REMARK    5  A    between atoms: C_11  and  N_12 
REMARK       I    between atoms: N_12  and  C_13 
REMARK    6  A    between atoms: C_13  and  C_14 
REMARK    7  A    between atoms: C_14  and  N_15 
REMARK    8  A    between atoms: N_15  and  C_18 
REMARK    9  A    between atoms: C_18  and  C_19 
ROOT
HETATM    1  C   UNL     1      43.111 -17.615   3.810  1.00  0.00     0.073 A 
HETATM    2  C   UNL     1      42.835 -17.604   2.435  1.00  0.00     0.093 A 
HETATM    3  S   UNL     1      43.308 -19.039   1.634  1.00  0.00    -0.075 SA
HETATM    4  C   UNL     1      43.916 -19.661   3.053  1.00  0.00    -0.008 A 
HETATM    5  C   UNL     1      43.781 -18.835   4.136  1.00  0.00    -0.026 A 
HETATM    6  C   UNL     1      44.390 -19.473   5.339  1.00  0.00     0.041 C 
HETATM    7  C   UNL     1      45.219 -20.644   4.727  1.00  0.00     0.010 C 
HETATM    8  C   UNL     1      44.594 -20.949   3.337  1.00  0.00     0.047 C 
ENDROOT
BRANCH   2   9
HETATM    9  N   UNL     1      42.257 -16.548   1.740  1.00  0.00    -0.319 N 
HETATM   10  C   UNL     1      40.916 -16.325   1.537  1.00  0.00     0.248 C 
HETATM   11  O   UNL     1      39.949 -16.942   1.982  1.00  0.00    -0.271 OA
HETATM   12  H   UNL     1      42.949 -15.881   1.390  1.00  0.00     0.169 HD
BRANCH  10  13
HETATM   13  C   UNL     1      40.616 -15.121   0.644  1.00  0.00     0.335 C 
BRANCH  13  14
HETATM   14  N   UNL     1      41.640 -15.063  -0.461  1.00  0.00    -0.059 N 
HETATM   15  H   UNL     1      42.535 -14.819   0.006  1.00  0.00     0.278 HD
HETATM   16  H   UNL     1      41.826 -16.009  -0.817  1.00  0.00     0.278 HD
BRANCH  14  17
HETATM   17  C   UNL     1      41.418 -14.105  -1.580  1.00  0.00     0.215 C 
HETATM   18  C   UNL     1      41.214 -12.694  -1.031  1.00  0.00     0.045 C 
BRANCH  17  19
HETATM   19  C   UNL     1      40.257 -14.579  -2.428  1.00  0.00    -0.028 A 
HETATM   20  C   UNL     1      39.035 -13.883  -2.466  1.00  0.00     0.009 A 
HETATM   21  C   UNL     1      37.968 -14.361  -3.228  1.00  0.00     0.001 A 
HETATM   22  C   UNL     1      38.101 -15.538  -3.958  1.00  0.00     0.000 A 
HETATM   23  C   UNL     1      39.302 -16.241  -3.929  1.00  0.00     0.001 A 
HETATM   24  C   UNL     1      40.373 -15.769  -3.166  1.00  0.00     0.009 A 
ENDBRANCH  17  19
ENDBRANCH  14  17
ENDBRANCH  13  14
ENDBRANCH  10  13
ENDBRANCH   2   9
BRANCH   1  25
HETATM   25  C   UNL     1      42.722 -16.484   4.675  1.00  0.00     0.259 C 
HETATM   26  N   UNL     1      43.750 -15.623   4.996  1.00  0.00    -0.323 N 
HETATM   27  H   UNL     1      44.665 -15.855   4.642  1.00  0.00     0.169 HD
HETATM   28  O   UNL     1      41.566 -16.409   5.089  1.00  0.00    -0.267 OA
BRANCH  26  29
HETATM   29  C   UNL     1      43.719 -14.510   5.861  1.00  0.00     0.035 A 
HETATM   30  C   UNL     1      42.785 -13.476   5.785  1.00  0.00     0.032 A 
HETATM   31  C   UNL     1      42.800 -12.432   6.723  1.00  0.00     0.039 A 
HETATM   32  C   UNL     1      43.749 -12.414   7.744  1.00  0.00     0.068 A 
HETATM   33  C   UNL     1      44.707 -13.423   7.796  1.00  0.00     0.039 A 
HETATM   34  C   UNL     1      44.692 -14.466   6.867  1.00  0.00     0.032 A 
BRANCH  32  35
HETATM   35  O   UNL     1      43.854 -11.471   8.726  1.00  0.00    -0.352 OA
BRANCH  35  36
HETATM   36  C   UNL     1      44.826 -11.709   9.743  1.00  0.00     0.171 C 
HETATM   37  C   UNL     1      44.643 -10.654  10.819  1.00  0.00     0.034 C 
ENDBRANCH  35  36
ENDBRANCH  32  35
ENDBRANCH  26  29
ENDBRANCH   1  25
TORSDOF 9
ENDMDL
MODEL 8
REMARK VINA RESULT:      -7.3      2.576      5.615
REMARK  9 active torsions:
REMARK  status: ('A' for Active; 'I' for Inactive)
REMARK    1  A    between atoms: C_2  and  O_3 
REMARK    2  A    between atoms: O_3  and  C_4 
REMARK    3  A    between atoms: C_7  and  N_8 
REMARK       I    between atoms: N_8  and  C_9 
REMARK    4  A    between atoms: C_9  and  C_10 
REMARK    5  A    between atoms: C_11  and  N_12 
REMARK       I    between atoms: N_12  and  C_13 
REMARK    6  A    between atoms: C_13  and  C_14 
REMARK    7  A    between atoms: C_14  and  N_15 
REMARK    8  A    between atoms: N_15  and  C_18 
REMARK    9  A    between atoms: C_18  and  C_19 
ROOT
HETATM    1  C   UNL     1      43.215 -16.837   3.244  1.00  0.00     0.073 A 
HETATM    2  C   UNL     1      43.184 -17.424   1.972  1.00  0.00     0.093 A 
HETATM    3  S   UNL     1      43.713 -19.050   1.959  1.00  0.00    -0.075 SA
HETATM    4  C   UNL     1      44.030 -18.987   3.592  1.00  0.00    -0.008 A 
HETATM    5  C   UNL     1      43.752 -17.780   4.175  1.00  0.00    -0.026 A 
HETATM    6  C   UNL     1      44.107 -17.823   5.622  1.00  0.00     0.041 C 
HETATM    7  C   UNL     1      44.966 -19.119   5.730  1.00  0.00     0.010 C 
HETATM    8  C   UNL     1      44.579 -20.008   4.515  1.00  0.00     0.047 C 
ENDROOT
BRANCH   2   9
HETATM    9  N   UNL     1      42.793 -16.786   0.800  1.00  0.00    -0.319 N 
HETATM   10  C   UNL     1      41.517 -16.427   0.438  1.00  0.00     0.248 C 
HETATM   11  O   UNL     1      40.473 -16.510   1.085  1.00  0.00    -0.271 OA
HETATM   12  H   UNL     1      43.584 -16.555   0.194  1.00  0.00     0.169 HD
BRANCH  10  13
HETATM   13  C   UNL     1      41.415 -15.824  -0.963  1.00  0.00     0.335 C 
BRANCH  13  14
HETATM   14  N   UNL     1      40.140 -15.025  -1.061  1.00  0.00    -0.059 N 
HETATM   15  H   UNL     1      39.638 -15.409  -1.885  1.00  0.00     0.278 HD
HETATM   16  H   UNL     1      39.513 -15.269  -0.286  1.00  0.00     0.278 HD
BRANCH  14  17
HETATM   17  C   UNL     1      40.244 -13.548  -1.221  1.00  0.00     0.215 C 
HETATM   18  C   UNL     1      41.604 -13.060  -0.725  1.00  0.00     0.045 C 
BRANCH  17  19
HETATM   19  C   UNL     1      39.085 -12.880  -0.513  1.00  0.00    -0.028 A 
HETATM   20  C   UNL     1      38.014 -13.622   0.016  1.00  0.00     0.009 A 
HETATM   21  C   UNL     1      36.939 -12.980   0.633  1.00  0.00     0.001 A 
HETATM   22  C   UNL     1      36.915 -11.591   0.728  1.00  0.00     0.000 A 
HETATM   23  C   UNL     1      37.966 -10.842   0.207  1.00  0.00     0.001 A 
HETATM   24  C   UNL     1      39.042 -11.479  -0.414  1.00  0.00     0.009 A 
ENDBRANCH  17  19
ENDBRANCH  14  17
ENDBRANCH  13  14
ENDBRANCH  10  13
ENDBRANCH   2   9
BRANCH   1  25
HETATM   25  C   UNL     1      42.741 -15.455   3.458  1.00  0.00     0.259 C 
HETATM   26  N   UNL     1      41.430 -15.352   3.872  1.00  0.00    -0.323 N 
HETATM   27  H   UNL     1      40.913 -16.213   3.964  1.00  0.00     0.169 HD
HETATM   28  O   UNL     1      43.492 -14.512   3.208  1.00  0.00    -0.267 OA
BRANCH  26  29
HETATM   29  C   UNL     1      40.668 -14.185   4.079  1.00  0.00     0.035 A 
HETATM   30  C   UNL     1      40.219 -13.343   3.061  1.00  0.00     0.032 A 
HETATM   31  C   UNL     1      39.420 -12.227   3.358  1.00  0.00     0.039 A 
HETATM   32  C   UNL     1      39.065 -11.945   4.675  1.00  0.00     0.068 A 
HETATM   33  C   UNL     1      39.547 -12.760   5.697  1.00  0.00     0.039 A 
HETATM   34  C   UNL     1      40.338 -13.873   5.404  1.00  0.00     0.032 A 
BRANCH  32  35
HETATM   35  O   UNL     1      38.279 -10.909   5.090  1.00  0.00    -0.352 OA
BRANCH  35  36
HETATM   36  C   UNL     1      38.465  -9.657   4.431  1.00  0.00     0.171 C 
HETATM   37  C   UNL     1      37.164  -9.298   3.736  1.00  0.00     0.034 C 
ENDBRANCH  35  36
ENDBRANCH  32  35
ENDBRANCH  26  29
ENDBRANCH   1  25
TORSDOF 9
ENDMDL
MODEL 9
REMARK VINA RESULT:      -7.3      1.625      2.403
REMARK  9 active torsions:
REMARK  status: ('A' for Active; 'I' for Inactive)
REMARK    1  A    between atoms: C_2  and  O_3 
REMARK    2  A    between atoms: O_3  and  C_4 
REMARK    3  A    between atoms: C_7  and  N_8 
REMARK       I    between atoms: N_8  and  C_9 
REMARK    4  A    between atoms: C_9  and  C_10 
REMARK    5  A    between atoms: C_11  and  N_12 
REMARK       I    between atoms: N_12  and  C_13 
REMARK    6  A    between atoms: C_13  and  C_14 
REMARK    7  A    between atoms: C_14  and  N_15 
REMARK    8  A    between atoms: N_15  and  C_18 
REMARK    9  A    between atoms: C_18  and  C_19 
ROOT
HETATM    1  C   UNL     1      43.792 -18.276   3.035  1.00  0.00     0.073 A 
HETATM    2  C   UNL     1      43.900 -18.033   4.411  1.00  0.00     0.093 A 
HETATM    3  S   UNL     1      44.377 -19.406   5.311  1.00  0.00    -0.075 SA
HETATM    4  C   UNL     1      44.399 -20.335   3.930  1.00  0.00    -0.008 A 
HETATM    5  C   UNL     1      44.063 -19.658   2.789  1.00  0.00    -0.026 A 
HETATM    6  C   UNL     1      44.078 -20.589   1.624  1.00  0.00     0.041 C 
HETATM    7  C   UNL     1      44.127 -21.992   2.303  1.00  0.00     0.010 C 
HETATM    8  C   UNL     1      44.703 -21.772   3.730  1.00  0.00     0.047 C 
ENDROOT
BRANCH   2   9
HETATM    9  N   UNL     1      43.636 -16.819   5.036  1.00  0.00    -0.319 N 
HETATM   10  C   UNL     1      42.418 -16.193   5.150  1.00  0.00     0.248 C 
HETATM   11  O   UNL     1      41.305 -16.591   4.809  1.00  0.00    -0.271 OA
HETATM   12  H   UNL     1      44.468 -16.408   5.467  1.00  0.00     0.169 HD
BRANCH  10  13
HETATM   13  C   UNL     1      42.486 -14.819   5.815  1.00  0.00     0.335 C 
BRANCH  13  14
HETATM   14  N   UNL     1      42.028 -13.773   4.829  1.00  0.00    -0.059 N 
HETATM   15  H   UNL     1      42.868 -13.194   4.633  1.00  0.00     0.278 HD
HETATM   16  H   UNL     1      41.841 -14.209   3.918  1.00  0.00     0.278 HD
BRANCH  14  17
HETATM   17  C   UNL     1      40.916 -12.867   5.227  1.00  0.00     0.215 C 
HETATM   18  C   UNL     1      39.868 -13.641   6.026  1.00  0.00     0.045 C 
BRANCH  17  19
HETATM   19  C   UNL     1      40.341 -12.200   3.996  1.00  0.00    -0.028 A 
HETATM   20  C   UNL     1      38.954 -12.091   3.792  1.00  0.00     0.009 A 
HETATM   21  C   UNL     1      38.450 -11.503   2.631  1.00  0.00     0.001 A 
HETATM   22  C   UNL     1      39.319 -11.020   1.657  1.00  0.00     0.000 A 
HETATM   23  C   UNL     1      40.695 -11.123   1.842  1.00  0.00     0.001 A 
HETATM   24  C   UNL     1      41.205 -11.712   3.000  1.00  0.00     0.009 A 
ENDBRANCH  17  19
ENDBRANCH  14  17
ENDBRANCH  13  14
ENDBRANCH  10  13
ENDBRANCH   2   9
BRANCH   1  25
HETATM   25  C   UNL     1      43.445 -17.193   2.094  1.00  0.00     0.259 C 
HETATM   26  N   UNL     1      42.097 -17.061   1.837  1.00  0.00    -0.323 N 
HETATM   27  H   UNL     1      41.482 -17.723   2.284  1.00  0.00     0.169 HD
HETATM   28  O   UNL     1      44.344 -16.535   1.571  1.00  0.00    -0.267 OA
BRANCH  26  29
HETATM   29  C   UNL     1      41.462 -16.188   0.931  1.00  0.00     0.035 A 
HETATM   30  C   UNL     1      41.635 -16.221  -0.453  1.00  0.00     0.032 A 
HETATM   31  C   UNL     1      40.920 -15.344  -1.283  1.00  0.00     0.039 A 
HETATM   32  C   UNL     1      40.026 -14.426  -0.735  1.00  0.00     0.068 A 
HETATM   33  C   UNL     1      39.883 -14.362   0.649  1.00  0.00     0.039 A 
HETATM   34  C   UNL     1      40.590 -15.238   1.477  1.00  0.00     0.032 A 
BRANCH  32  35
HETATM   35  O   UNL     1      39.258 -13.538  -1.433  1.00  0.00    -0.352 OA
BRANCH  35  36
HETATM   36  C   UNL     1      37.909 -13.923  -1.694  1.00  0.00     0.171 C 
HETATM   37  C   UNL     1      37.845 -14.465  -3.111  1.00  0.00     0.034 C 
ENDBRANCH  35  36
ENDBRANCH  32  35
ENDBRANCH  26  29
ENDBRANCH   1  25
TORSDOF 9
ENDMDL
MODEL 10
REMARK VINA RESULT:      -7.2      3.054      8.436
REMARK  9 active torsions:
REMARK  status: ('A' for Active; 'I' for Inactive)
REMARK    1  A    between atoms: C_2  and  O_3 
REMARK    2  A    between atoms: O_3  and  C_4 
REMARK    3  A    between atoms: C_7  and  N_8 
REMARK       I    between atoms: N_8  and  C_9 
REMARK    4  A    between atoms: C_9  and  C_10 
REMARK    5  A    between atoms: C_11  and  N_12 
REMARK       I    between atoms: N_12  and  C_13 
REMARK    6  A    between atoms: C_13  and  C_14 
REMARK    7  A    between atoms: C_14  and  N_15 
REMARK    8  A    between atoms: N_15  and  C_18 
REMARK    9  A    between atoms: C_18  and  C_19 
ROOT
HETATM    1  C   UNL     1      41.099 -12.139   5.006  1.00  0.00     0.073 A 
HETATM    2  C   UNL     1      40.125 -12.014   4.006  1.00  0.00     0.093 A 
HETATM    3  S   UNL     1      39.044 -10.715   4.267  1.00  0.00    -0.075 SA
HETATM    4  C   UNL     1      39.802 -10.338   5.700  1.00  0.00    -0.008 A 
HETATM    5  C   UNL     1      40.859 -11.151   6.011  1.00  0.00    -0.026 A 
HETATM    6  C   UNL     1      41.437 -10.750   7.326  1.00  0.00     0.041 C 
HETATM    7  C   UNL     1      40.342  -9.807   7.912  1.00  0.00     0.010 C 
HETATM    8  C   UNL     1      39.515  -9.286   6.704  1.00  0.00     0.047 C 
ENDROOT
BRANCH   2   9
HETATM    9  N   UNL     1      39.993 -12.850   2.903  1.00  0.00    -0.319 N 
HETATM   10  C   UNL     1      40.699 -12.787   1.725  1.00  0.00     0.248 C 
HETATM   11  O   UNL     1      41.638 -12.053   1.422  1.00  0.00    -0.271 OA
HETATM   12  H   UNL     1      39.303 -13.591   3.050  1.00  0.00     0.169 HD
BRANCH  10  13
HETATM   13  C   UNL     1      40.242 -13.797   0.673  1.00  0.00     0.335 C 
BRANCH  13  14
HETATM   14  N   UNL     1      41.231 -14.935   0.625  1.00  0.00    -0.059 N 
HETATM   15  H   UNL     1      41.577 -14.957  -0.354  1.00  0.00     0.278 HD
HETATM   16  H   UNL     1      42.076 -14.688   1.154  1.00  0.00     0.278 HD
BRANCH  14  17
HETATM   17  C   UNL     1      40.755 -16.299   0.985  1.00  0.00     0.215 C 
HETATM   18  C   UNL     1      39.751 -16.219   2.134  1.00  0.00     0.045 C 
BRANCH  17  19
HETATM   19  C   UNL     1      41.943 -17.182   1.303  1.00  0.00    -0.028 A 
HETATM   20  C   UNL     1      41.786 -18.529   1.676  1.00  0.00     0.009 A 
HETATM   21  C   UNL     1      42.895 -19.312   1.999  1.00  0.00     0.001 A 
HETATM   22  C   UNL     1      44.173 -18.764   1.959  1.00  0.00     0.000 A 
HETATM   23  C   UNL     1      44.346 -17.432   1.595  1.00  0.00     0.001 A 
HETATM   24  C   UNL     1      43.240 -16.643   1.273  1.00  0.00     0.009 A 
ENDBRANCH  17  19
ENDBRANCH  14  17
ENDBRANCH  13  14
ENDBRANCH  10  13
ENDBRANCH   2   9
BRANCH   1  25
HETATM   25  C   UNL     1      42.153 -13.170   4.919  1.00  0.00     0.259 C 
HETATM   26  N   UNL     1      41.889 -14.325   5.625  1.00  0.00    -0.323 N 
HETATM   27  H   UNL     1      41.030 -14.350   6.152  1.00  0.00     0.169 HD
HETATM   28  O   UNL     1      43.186 -12.928   4.296  1.00  0.00    -0.267 OA
BRANCH  26  29
HETATM   29  C   UNL     1      42.724 -15.446   5.808  1.00  0.00     0.035 A 
HETATM   30  C   UNL     1      43.843 -15.472   6.640  1.00  0.00     0.032 A 
HETATM   31  C   UNL     1      44.586 -16.652   6.799  1.00  0.00     0.039 A 
HETATM   32  C   UNL     1      44.215 -17.815   6.127  1.00  0.00     0.068 A 
HETATM   33  C   UNL     1      43.123 -17.781   5.264  1.00  0.00     0.039 A 
HETATM   34  C   UNL     1      42.379 -16.609   5.107  1.00  0.00     0.032 A 
BRANCH  32  35
HETATM   35  O   UNL     1      44.839 -19.027   6.216  1.00  0.00    -0.352 OA
BRANCH  35  36
HETATM   36  C   UNL     1      44.028 -20.183   6.012  1.00  0.00     0.171 C 
HETATM   37  C   UNL     1      44.789 -21.133   5.105  1.00  0.00     0.034 C 
ENDBRANCH  35  36
ENDBRANCH  32  35
ENDBRANCH  26  29
ENDBRANCH   1  25
TORSDOF 9
ENDMDL
