MODEL 1
REMARK VINA RESULT:      -7.6      0.000      0.000
REMARK  3 active torsions:
REMARK  status: ('A' for Active; 'I' for Inactive)
REMARK    1  A    between atoms: C_8  and  N_9 
REMARK       I    between atoms: N_9  and  C_10 
REMARK       I    between atoms: C_10  and  N_11 
REMARK    2  A    between atoms: N_11  and  C_12 
REMARK    3  A    between atoms: C_16  and  O_17 
ROOT
HETATM    1  N   UNL     1      41.863 -15.848   0.100  1.00  0.00    -0.305 N 
HETATM    2  C   UNL     1      41.859 -16.883   1.018  1.00  0.00     0.325 C 
HETATM    3  N   UNL     1      43.149 -17.376   1.180  1.00  0.00    -0.309 N 
HETATM    4  O   UNL     1      40.880 -17.295   1.622  1.00  0.00    -0.247 OA
HETATM    5  H   UNL     1      42.759 -15.442  -0.116  1.00  0.00     0.171 HD
HETATM    6  H   UNL     1      43.809 -17.111   0.463  1.00  0.00     0.170 HD
ENDROOT
BRANCH   1   7
HETATM    7  C   UNL     1      40.772 -15.131  -0.363  1.00  0.00     0.086 A 
HETATM    8  C   UNL     1      40.453 -15.094  -1.709  1.00  0.00     0.052 A 
HETATM    9  C   UNL     1      41.082 -15.704  -2.905  1.00  0.00     0.072 C 
HETATM   10  N   UNL     1      39.346 -14.300  -1.810  1.00  0.00    -0.280 N 
HETATM   11  H   UNL     1      38.839 -14.034  -2.647  1.00  0.00     0.189 HD
HETATM   12  N   UNL     1      38.904 -13.840  -0.637  1.00  0.00    -0.177 NA
HETATM   13  C   UNL     1      39.764 -14.341   0.264  1.00  0.00     0.079 A 
HETATM   14  C   UNL     1      39.528 -14.033   1.697  1.00  0.00     0.075 C 
ENDBRANCH   1   7
BRANCH   3  15
HETATM   15  C   UNL     1      43.621 -18.270   2.164  1.00  0.00     0.039 A 
HETATM   16  C   UNL     1      43.970 -17.894   3.462  1.00  0.00     0.056 A 
HETATM   17  C   UNL     1      44.489 -18.838   4.358  1.00  0.00     0.071 A 
HETATM   18 CL   UNL     1      44.916 -18.312   5.948  1.00  0.00    -0.081 Cl
HETATM   19  C   UNL     1      44.659 -20.172   3.969  1.00  0.00     0.111 A 
HETATM   20  C   UNL     1      44.318 -20.547   2.667  1.00  0.00     0.071 A 
HETATM   21 CL   UNL     1      44.559 -22.155   2.086  1.00  0.00    -0.081 Cl
HETATM   22  C   UNL     1      43.791 -19.605   1.777  1.00  0.00     0.056 A 
BRANCH  19  23
HETATM   23  O   UNL     1      45.248 -21.056   4.836  1.00  0.00    -0.352 OA
HETATM   24  C   UNL     1      44.288 -21.700   5.674  1.00  0.00     0.210 C 
ENDBRANCH  19  23
ENDBRANCH   3  15
TORSDOF 3
ENDMDL
MODEL 2
REMARK VINA RESULT:      -7.6      0.241      1.788
REMARK  3 active torsions:
REMARK  status: ('A' for Active; 'I' for Inactive)
REMARK    1  A    between atoms: C_8  and  N_9 
REMARK       I    between atoms: N_9  and  C_10 
REMARK       I    between atoms: C_10  and  N_11 
REMARK    2  A    between atoms: N_11  and  C_12 
REMARK    3  A    between atoms: C_16  and  O_17 
ROOT
HETATM    1  N   UNL     1      41.970 -15.724   0.181  1.00  0.00    -0.305 N 
HETATM    2  C   UNL     1      41.996 -16.907   0.898  1.00  0.00     0.325 C 
HETATM    3  N   UNL     1      43.284 -17.146   1.366  1.00  0.00    -0.309 N 
HETATM    4  O   UNL     1      41.035 -17.630   1.116  1.00  0.00    -0.247 OA
HETATM    5  H   UNL     1      42.755 -15.106   0.304  1.00  0.00     0.171 HD
HETATM    6  H   UNL     1      44.014 -16.607   0.925  1.00  0.00     0.170 HD
ENDROOT
BRANCH   1   7
HETATM    7  C   UNL     1      40.887 -15.166  -0.478  1.00  0.00     0.086 A 
HETATM    8  C   UNL     1      39.876 -14.522   0.213  1.00  0.00     0.052 A 
HETATM    9  C   UNL     1      39.652 -14.271   1.657  1.00  0.00     0.072 C 
HETATM   10  N   UNL     1      38.979 -14.110  -0.731  1.00  0.00    -0.280 N 
HETATM   11  H   UNL     1      38.105 -13.616  -0.593  1.00  0.00     0.189 HD
HETATM   12  N   UNL     1      39.338 -14.409  -1.981  1.00  0.00    -0.177 NA
HETATM   13  C   UNL     1      40.507 -15.055  -1.849  1.00  0.00     0.079 A 
HETATM   14  C   UNL     1      41.198 -15.505  -3.083  1.00  0.00     0.075 C 
ENDBRANCH   1   7
BRANCH   3  15
HETATM   15  C   UNL     1      43.701 -18.111   2.307  1.00  0.00     0.039 A 
HETATM   16  C   UNL     1      44.004 -17.826   3.639  1.00  0.00     0.056 A 
HETATM   17  C   UNL     1      44.471 -18.837   4.491  1.00  0.00     0.071 A 
HETATM   18 CL   UNL     1      44.843 -18.423   6.127  1.00  0.00    -0.081 Cl
HETATM   19  C   UNL     1      44.634 -20.146   4.023  1.00  0.00     0.111 A 
HETATM   20  C   UNL     1      44.339 -20.429   2.687  1.00  0.00     0.071 A 
HETATM   21 CL   UNL     1      44.576 -22.001   2.011  1.00  0.00    -0.081 Cl
HETATM   22  C   UNL     1      43.863 -19.421   1.840  1.00  0.00     0.056 A 
BRANCH  19  23
HETATM   23  O   UNL     1      45.174 -21.095   4.853  1.00  0.00    -0.352 OA
HETATM   24  C   UNL     1      44.198 -21.642   5.740  1.00  0.00     0.210 C 
ENDBRANCH  19  23
ENDBRANCH   3  15
TORSDOF 3
ENDMDL
MODEL 3
REMARK VINA RESULT:      -7.5      0.941      2.821
REMARK  3 active torsions:
REMARK  status: ('A' for Active; 'I' for Inactive)
REMARK    1  A    between atoms: C_8  and  N_9 
REMARK       I    between atoms: N_9  and  C_10 
REMARK       I    between atoms: C_10  and  N_11 
REMARK    2  A    between atoms: N_11  and  C_12 
REMARK    3  A    between atoms: C_16  and  O_17 
ROOT
HETATM    1  N   UNL     1      40.669 -16.132   0.655  1.00  0.00    -0.305 N 
HETATM    2  C   UNL     1      41.875 -16.522   1.209  1.00  0.00     0.325 C 
HETATM    3  N   UNL     1      41.698 -17.678   1.961  1.00  0.00    -0.309 N 
HETATM    4  O   UNL     1      42.948 -15.958   1.048  1.00  0.00    -0.247 OA
HETATM    5  H   UNL     1      39.934 -16.821   0.648  1.00  0.00     0.171 HD
HETATM    6  H   UNL     1      40.743 -17.899   2.199  1.00  0.00     0.170 HD
ENDROOT
BRANCH   1   7
HETATM    7  C   UNL     1      40.423 -15.011  -0.120  1.00  0.00     0.086 A 
HETATM    8  C   UNL     1      39.963 -13.833   0.443  1.00  0.00     0.052 A 
HETATM    9  C   UNL     1      39.627 -13.453   1.835  1.00  0.00     0.072 C 
HETATM   10  N   UNL     1      39.821 -12.954  -0.592  1.00  0.00    -0.280 N 
HETATM   11  H   UNL     1      39.492 -11.995  -0.561  1.00  0.00     0.189 HD
HETATM   12  N   UNL     1      40.177 -13.454  -1.778  1.00  0.00    -0.177 NA
HETATM   13  C   UNL     1      40.552 -14.715  -1.509  1.00  0.00     0.079 A 
HETATM   14  C   UNL     1      41.041 -15.550  -2.635  1.00  0.00     0.075 C 
ENDBRANCH   1   7
BRANCH   3  15
HETATM   15  C   UNL     1      42.690 -18.519   2.508  1.00  0.00     0.039 A 
HETATM   16  C   UNL     1      43.106 -19.719   1.929  1.00  0.00     0.056 A 
HETATM   17  C   UNL     1      44.055 -20.524   2.573  1.00  0.00     0.071 A 
HETATM   18 CL   UNL     1      44.523 -22.006   1.816  1.00  0.00    -0.081 Cl
HETATM   19  C   UNL     1      44.604 -20.137   3.800  1.00  0.00     0.111 A 
HETATM   20  C   UNL     1      44.181 -18.941   4.385  1.00  0.00     0.071 A 
HETATM   21 CL   UNL     1      44.757 -18.423   5.928  1.00  0.00    -0.081 Cl
HETATM   22  C   UNL     1      43.241 -18.132   3.735  1.00  0.00     0.056 A 
BRANCH  19  23
HETATM   23  O   UNL     1      45.465 -20.985   4.450  1.00  0.00    -0.352 OA
HETATM   24  C   UNL     1      44.771 -21.901   5.297  1.00  0.00     0.210 C 
ENDBRANCH  19  23
ENDBRANCH   3  15
TORSDOF 3
ENDMDL
MODEL 4
REMARK VINA RESULT:      -7.4      1.022      2.232
REMARK  3 active torsions:
REMARK  status: ('A' for Active; 'I' for Inactive)
REMARK    1  A    between atoms: C_8  and  N_9 
REMARK       I    between atoms: N_9  and  C_10 
REMARK       I    between atoms: C_10  and  N_11 
REMARK    2  A    between atoms: N_11  and  C_12 
REMARK    3  A    between atoms: C_16  and  O_17 
ROOT
HETATM    1  N   UNL     1      40.619 -15.961   0.699  1.00  0.00    -0.305 N 
HETATM    2  C   UNL     1      41.801 -16.341   1.310  1.00  0.00     0.325 C 
HETATM    3  N   UNL     1      41.639 -17.579   1.922  1.00  0.00    -0.309 N 
HETATM    4  O   UNL     1      42.844 -15.705   1.298  1.00  0.00    -0.247 OA
HETATM    5  H   UNL     1      39.932 -16.685   0.559  1.00  0.00     0.171 HD
HETATM    6  H   UNL     1      40.685 -17.877   2.055  1.00  0.00     0.170 HD
ENDROOT
BRANCH   1   7
HETATM    7  C   UNL     1      40.363 -14.778   0.025  1.00  0.00     0.086 A 
HETATM    8  C   UNL     1      40.516 -14.684  -1.348  1.00  0.00     0.052 A 
HETATM    9  C   UNL     1      40.943 -15.661  -2.377  1.00  0.00     0.072 C 
HETATM   10  N   UNL     1      40.196 -13.397  -1.673  1.00  0.00    -0.280 N 
HETATM   11  H   UNL     1      40.206 -12.959  -2.587  1.00  0.00     0.189 HD
HETATM   12  N   UNL     1      39.823 -12.654  -0.628  1.00  0.00    -0.177 NA
HETATM   13  C   UNL     1      39.917 -13.484   0.423  1.00  0.00     0.079 A 
HETATM   14  C   UNL     1      39.535 -12.961   1.759  1.00  0.00     0.075 C 
ENDBRANCH   1   7
BRANCH   3  15
HETATM   15  C   UNL     1      42.637 -18.418   2.461  1.00  0.00     0.039 A 
HETATM   16  C   UNL     1      43.035 -19.629   1.892  1.00  0.00     0.056 A 
HETATM   17  C   UNL     1      43.992 -20.431   2.529  1.00  0.00     0.071 A 
HETATM   18 CL   UNL     1      44.435 -21.926   1.785  1.00  0.00    -0.081 Cl
HETATM   19  C   UNL     1      44.568 -20.028   3.739  1.00  0.00     0.111 A 
HETATM   20  C   UNL     1      44.164 -18.821   4.313  1.00  0.00     0.071 A 
HETATM   21 CL   UNL     1      44.774 -18.283   5.837  1.00  0.00    -0.081 Cl
HETATM   22  C   UNL     1      43.215 -18.016   3.671  1.00  0.00     0.056 A 
BRANCH  19  23
HETATM   23  O   UNL     1      45.437 -20.871   4.384  1.00  0.00    -0.352 OA
HETATM   24  C   UNL     1      44.757 -21.755   5.276  1.00  0.00     0.210 C 
ENDBRANCH  19  23
ENDBRANCH   3  15
TORSDOF 3
ENDMDL
MODEL 5
REMARK VINA RESULT:      -7.0      3.819      8.116
REMARK  3 active torsions:
REMARK  status: ('A' for Active; 'I' for Inactive)
REMARK    1  A    between atoms: C_8  and  N_9 
REMARK       I    between atoms: N_9  and  C_10 
REMARK       I    between atoms: C_10  and  N_11 
REMARK    2  A    between atoms: N_11  and  C_12 
REMARK    3  A    between atoms: C_16  and  O_17 
ROOT
HETATM    1  N   UNL     1      42.684 -18.521   2.597  1.00  0.00    -0.305 N 
HETATM    2  C   UNL     1      42.919 -17.612   1.581  1.00  0.00     0.325 C 
HETATM    3  N   UNL     1      41.725 -17.003   1.207  1.00  0.00    -0.309 N 
HETATM    4  O   UNL     1      44.009 -17.353   1.095  1.00  0.00    -0.247 OA
HETATM    5  H   UNL     1      41.802 -18.442   3.077  1.00  0.00     0.171 HD
HETATM    6  H   UNL     1      40.885 -17.468   1.516  1.00  0.00     0.170 HD
ENDROOT
BRANCH   1   7
HETATM    7  C   UNL     1      43.606 -19.356   3.207  1.00  0.00     0.086 A 
HETATM    8  C   UNL     1      44.186 -19.024   4.419  1.00  0.00     0.052 A 
HETATM    9  C   UNL     1      44.039 -17.850   5.312  1.00  0.00     0.072 C 
HETATM   10  N   UNL     1      45.039 -20.047   4.718  1.00  0.00    -0.280 N 
HETATM   11  H   UNL     1      45.647 -20.143   5.525  1.00  0.00     0.189 HD
HETATM   12  N   UNL     1      45.042 -21.029   3.813  1.00  0.00    -0.177 NA
HETATM   13  C   UNL     1      44.167 -20.625   2.879  1.00  0.00     0.079 A 
HETATM   14  C   UNL     1      43.914 -21.527   1.727  1.00  0.00     0.075 C 
ENDBRANCH   1   7
BRANCH   3  15
HETATM   15  C   UNL     1      41.548 -15.878   0.375  1.00  0.00     0.039 A 
HETATM   16  C   UNL     1      41.217 -15.949  -0.979  1.00  0.00     0.056 A 
HETATM   17  C   UNL     1      41.120 -14.780  -1.747  1.00  0.00     0.071 A 
HETATM   18 CL   UNL     1      40.721 -14.930  -3.421  1.00  0.00    -0.081 Cl
HETATM   19  C   UNL     1      41.347 -13.526  -1.168  1.00  0.00     0.111 A 
HETATM   20  C   UNL     1      41.687 -13.455   0.185  1.00  0.00     0.071 A 
HETATM   21 CL   UNL     1      42.049 -11.955   0.960  1.00  0.00    -0.081 Cl
HETATM   22  C   UNL     1      41.773 -14.622   0.953  1.00  0.00     0.056 A 
BRANCH  19  23
HETATM   23  O   UNL     1      41.331 -12.407  -1.961  1.00  0.00    -0.352 OA
HETATM   24  C   UNL     1      42.619 -12.126  -2.511  1.00  0.00     0.210 C 
ENDBRANCH  19  23
ENDBRANCH   3  15
TORSDOF 3
ENDMDL
MODEL 6
REMARK VINA RESULT:      -7.0      2.190      3.384
REMARK  3 active torsions:
REMARK  status: ('A' for Active; 'I' for Inactive)
REMARK    1  A    between atoms: C_8  and  N_9 
REMARK       I    between atoms: N_9  and  C_10 
REMARK       I    between atoms: C_10  and  N_11 
REMARK    2  A    between atoms: N_11  and  C_12 
REMARK    3  A    between atoms: C_16  and  O_17 
ROOT
HETATM    1  N   UNL     1      39.735 -14.875  -0.804  1.00  0.00    -0.305 N 
HETATM    2  C   UNL     1      40.762 -15.153   0.080  1.00  0.00     0.325 C 
HETATM    3  N   UNL     1      40.352 -16.121   0.991  1.00  0.00    -0.309 N 
HETATM    4  O   UNL     1      41.876 -14.652   0.058  1.00  0.00    -0.247 OA
HETATM    5  H   UNL     1      38.979 -15.539  -0.839  1.00  0.00     0.171 HD
HETATM    6  H   UNL     1      39.356 -16.274   1.043  1.00  0.00     0.170 HD
ENDROOT
BRANCH   1   7
HETATM    7  C   UNL     1      39.736 -13.940  -1.826  1.00  0.00     0.086 A 
HETATM    8  C   UNL     1      39.609 -14.321  -3.150  1.00  0.00     0.052 A 
HETATM    9  C   UNL     1      39.462 -15.644  -3.802  1.00  0.00     0.072 C 
HETATM   10  N   UNL     1      39.661 -13.168  -3.879  1.00  0.00    -0.280 N 
HETATM   11  H   UNL     1      39.613 -13.059  -4.886  1.00  0.00     0.189 HD
HETATM   12  N   UNL     1      39.785 -12.066  -3.136  1.00  0.00    -0.177 NA
HETATM   13  C   UNL     1      39.831 -12.518  -1.873  1.00  0.00     0.079 A 
HETATM   14  C   UNL     1      39.939 -11.519  -0.779  1.00  0.00     0.075 C 
ENDBRANCH   1   7
BRANCH   3  15
HETATM   15  C   UNL     1      41.145 -16.840   1.910  1.00  0.00     0.039 A 
HETATM   16  C   UNL     1      42.017 -17.870   1.555  1.00  0.00     0.056 A 
HETATM   17  C   UNL     1      42.721 -18.574   2.542  1.00  0.00     0.071 A 
HETATM   18 CL   UNL     1      43.777 -19.848   2.044  1.00  0.00    -0.081 Cl
HETATM   19  C   UNL     1      42.566 -18.252   3.895  1.00  0.00     0.111 A 
HETATM   20  C   UNL     1      41.686 -17.228   4.251  1.00  0.00     0.071 A 
HETATM   21 CL   UNL     1      41.385 -16.812   5.901  1.00  0.00    -0.081 Cl
HETATM   22  C   UNL     1      40.991 -16.519   3.264  1.00  0.00     0.056 A 
BRANCH  19  23
HETATM   23  O   UNL     1      43.200 -19.013   4.844  1.00  0.00    -0.352 OA
HETATM   24  C   UNL     1      44.461 -18.455   5.217  1.00  0.00     0.210 C 
ENDBRANCH  19  23
ENDBRANCH   3  15
TORSDOF 3
ENDMDL
MODEL 7
REMARK VINA RESULT:      -7.0      2.328      3.142
REMARK  3 active torsions:
REMARK  status: ('A' for Active; 'I' for Inactive)
REMARK    1  A    between atoms: C_8  and  N_9 
REMARK       I    between atoms: N_9  and  C_10 
REMARK       I    between atoms: C_10  and  N_11 
REMARK    2  A    between atoms: N_11  and  C_12 
REMARK    3  A    between atoms: C_16  and  O_17 
ROOT
HETATM    1  N   UNL     1      40.639 -15.496  -1.616  1.00  0.00    -0.305 N 
HETATM    2  C   UNL     1      40.945 -15.490  -0.267  1.00  0.00     0.325 C 
HETATM    3  N   UNL     1      40.922 -16.790   0.228  1.00  0.00    -0.309 N 
HETATM    4  O   UNL     1      41.222 -14.502   0.397  1.00  0.00    -0.247 OA
HETATM    5  H   UNL     1      40.696 -16.385  -2.086  1.00  0.00     0.171 HD
HETATM    6  H   UNL     1      40.458 -17.469  -0.356  1.00  0.00     0.170 HD
ENDROOT
BRANCH   1   7
HETATM    7  C   UNL     1      40.519 -14.400  -2.455  1.00  0.00     0.086 A 
HETATM    8  C   UNL     1      39.333 -14.125  -3.113  1.00  0.00     0.052 A 
HETATM    9  C   UNL     1      38.019 -14.809  -3.138  1.00  0.00     0.072 C 
HETATM   10  N   UNL     1      39.567 -13.000  -3.851  1.00  0.00    -0.280 N 
HETATM   11  H   UNL     1      38.930 -12.512  -4.471  1.00  0.00     0.189 HD
HETATM   12  N   UNL     1      40.799 -12.507  -3.706  1.00  0.00    -0.177 NA
HETATM   13  C   UNL     1      41.398 -13.350  -2.851  1.00  0.00     0.079 A 
HETATM   14  C   UNL     1      42.799 -13.059  -2.452  1.00  0.00     0.075 C 
ENDBRANCH   1   7
BRANCH   3  15
HETATM   15  C   UNL     1      41.380 -17.250   1.481  1.00  0.00     0.039 A 
HETATM   16  C   UNL     1      40.899 -16.792   2.708  1.00  0.00     0.056 A 
HETATM   17  C   UNL     1      41.455 -17.261   3.906  1.00  0.00     0.071 A 
HETATM   18 CL   UNL     1      40.828 -16.648   5.396  1.00  0.00    -0.081 Cl
HETATM   19  C   UNL     1      42.495 -18.197   3.892  1.00  0.00     0.111 A 
HETATM   20  C   UNL     1      42.983 -18.649   2.664  1.00  0.00     0.071 A 
HETATM   21 CL   UNL     1      44.308 -19.752   2.555  1.00  0.00    -0.081 Cl
HETATM   22  C   UNL     1      42.420 -18.188   1.468  1.00  0.00     0.056 A 
BRANCH  19  23
HETATM   23  O   UNL     1      43.078 -18.573   5.075  1.00  0.00    -0.352 OA
HETATM   24  C   UNL     1      44.158 -17.710   5.434  1.00  0.00     0.210 C 
ENDBRANCH  19  23
ENDBRANCH   3  15
TORSDOF 3
ENDMDL
MODEL 8
REMARK VINA RESULT:      -6.9      3.815      7.942
REMARK  3 active torsions:
REMARK  status: ('A' for Active; 'I' for Inactive)
REMARK    1  A    between atoms: C_8  and  N_9 
REMARK       I    between atoms: N_9  and  C_10 
REMARK       I    between atoms: C_10  and  N_11 
REMARK    2  A    between atoms: N_11  and  C_12 
REMARK    3  A    between atoms: C_16  and  O_17 
ROOT
HETATM    1  N   UNL     1      42.731 -18.587   2.513  1.00  0.00    -0.305 N 
HETATM    2  C   UNL     1      43.005 -17.656   1.527  1.00  0.00     0.325 C 
HETATM    3  N   UNL     1      41.825 -17.058   1.100  1.00  0.00    -0.309 N 
HETATM    4  O   UNL     1      44.116 -17.374   1.103  1.00  0.00    -0.247 OA
HETATM    5  H   UNL     1      41.823 -18.528   2.946  1.00  0.00     0.171 HD
HETATM    6  H   UNL     1      40.976 -17.540   1.356  1.00  0.00     0.170 HD
ENDROOT
BRANCH   1   7
HETATM    7  C   UNL     1      43.631 -19.420   3.157  1.00  0.00     0.086 A 
HETATM    8  C   UNL     1      44.175 -19.081   4.383  1.00  0.00     0.052 A 
HETATM    9  C   UNL     1      44.005 -17.899   5.262  1.00  0.00     0.072 C 
HETATM   10  N   UNL     1      45.016 -20.104   4.716  1.00  0.00    -0.280 N 
HETATM   11  H   UNL     1      45.598 -20.195   5.541  1.00  0.00     0.189 HD
HETATM   12  N   UNL     1      45.043 -21.092   3.819  1.00  0.00    -0.177 NA
HETATM   13  C   UNL     1      44.198 -20.693   2.855  1.00  0.00     0.079 A 
HETATM   14  C   UNL     1      43.977 -21.602   1.703  1.00  0.00     0.075 C 
ENDBRANCH   1   7
BRANCH   3  15
HETATM   15  C   UNL     1      41.675 -15.920   0.279  1.00  0.00     0.039 A 
HETATM   16  C   UNL     1      41.943 -14.614   0.693  1.00  0.00     0.056 A 
HETATM   17  C   UNL     1      41.706 -13.536  -0.171  1.00  0.00     0.071 A 
HETATM   18 CL   UNL     1      42.044 -11.940   0.400  1.00  0.00    -0.081 Cl
HETATM   19  C   UNL     1      41.206 -13.750  -1.460  1.00  0.00     0.111 A 
HETATM   20  C   UNL     1      40.929 -15.056  -1.870  1.00  0.00     0.071 A 
HETATM   21 CL   UNL     1      40.246 -15.403  -3.419  1.00  0.00    -0.081 Cl
HETATM   22  C   UNL     1      41.175 -16.133  -1.011  1.00  0.00     0.056 A 
BRANCH  19  23
HETATM   23  O   UNL     1      40.903 -12.672  -2.252  1.00  0.00    -0.352 OA
HETATM   24  C   UNL     1      41.973 -12.347  -3.140  1.00  0.00     0.210 C 
ENDBRANCH  19  23
ENDBRANCH   3  15
TORSDOF 3
ENDMDL
MODEL 9
REMARK VINA RESULT:      -6.8      3.762      7.933
REMARK  3 active torsions:
REMARK  status: ('A' for Active; 'I' for Inactive)
REMARK    1  A    between atoms: C_8  and  N_9 
REMARK       I    between atoms: N_9  and  C_10 
REMARK       I    between atoms: C_10  and  N_11 
REMARK    2  A    between atoms: N_11  and  C_12 
REMARK    3  A    between atoms: C_16  and  O_17 
ROOT
HETATM    1  N   UNL     1      42.778 -18.536   2.909  1.00  0.00    -0.305 N 
HETATM    2  C   UNL     1      42.981 -17.694   1.830  1.00  0.00     0.325 C 
HETATM    3  N   UNL     1      41.783 -17.082   1.478  1.00  0.00    -0.309 N 
HETATM    4  O   UNL     1      44.051 -17.490   1.277  1.00  0.00    -0.247 OA
HETATM    5  H   UNL     1      41.923 -18.408   3.426  1.00  0.00     0.171 HD
HETATM    6  H   UNL     1      40.949 -17.508   1.855  1.00  0.00     0.170 HD
ENDROOT
BRANCH   1   7
HETATM    7  C   UNL     1      43.713 -19.353   3.524  1.00  0.00     0.086 A 
HETATM    8  C   UNL     1      44.101 -20.555   2.958  1.00  0.00     0.052 A 
HETATM    9  C   UNL     1      43.700 -21.252   1.713  1.00  0.00     0.072 C 
HETATM   10  N   UNL     1      45.011 -21.098   3.820  1.00  0.00    -0.280 N 
HETATM   11  H   UNL     1      45.500 -21.983   3.741  1.00  0.00     0.189 HD
HETATM   12  N   UNL     1      45.264 -20.336   4.886  1.00  0.00    -0.177 NA
HETATM   13  C   UNL     1      44.480 -19.260   4.723  1.00  0.00     0.079 A 
HETATM   14  C   UNL     1      44.550 -18.185   5.745  1.00  0.00     0.075 C 
ENDBRANCH   1   7
BRANCH   3  15
HETATM   15  C   UNL     1      41.586 -16.004   0.589  1.00  0.00     0.039 A 
HETATM   16  C   UNL     1      41.229 -16.150  -0.753  1.00  0.00     0.056 A 
HETATM   17  C   UNL     1      41.115 -15.026  -1.582  1.00  0.00     0.071 A 
HETATM   18 CL   UNL     1      40.684 -15.268  -3.237  1.00  0.00    -0.081 Cl
HETATM   19  C   UNL     1      41.351 -13.742  -1.078  1.00  0.00     0.111 A 
HETATM   20  C   UNL     1      41.717 -13.596   0.262  1.00  0.00     0.071 A 
HETATM   21 CL   UNL     1      42.091 -12.055   0.946  1.00  0.00    -0.081 Cl
HETATM   22  C   UNL     1      41.821 -14.719   1.091  1.00  0.00     0.056 A 
BRANCH  19  23
HETATM   23  O   UNL     1      41.317 -12.668  -1.931  1.00  0.00    -0.352 OA
HETATM   24  C   UNL     1      42.593 -12.419  -2.523  1.00  0.00     0.210 C 
ENDBRANCH  19  23
ENDBRANCH   3  15
TORSDOF 3
ENDMDL
MODEL 10
REMARK VINA RESULT:      -6.8      3.800      7.751
REMARK  3 active torsions:
REMARK  status: ('A' for Active; 'I' for Inactive)
REMARK    1  A    between atoms: C_8  and  N_9 
REMARK       I    between atoms: N_9  and  C_10 
REMARK       I    between atoms: C_10  and  N_11 
REMARK    2  A    between atoms: N_11  and  C_12 
REMARK    3  A    between atoms: C_16  and  O_17 
ROOT
HETATM    1  N   UNL     1      42.848 -18.388   2.970  1.00  0.00    -0.305 N 
HETATM    2  C   UNL     1      43.094 -17.531   1.912  1.00  0.00     0.325 C 
HETATM    3  N   UNL     1      41.921 -16.876   1.553  1.00  0.00    -0.309 N 
HETATM    4  O   UNL     1      44.179 -17.348   1.380  1.00  0.00    -0.247 OA
HETATM    5  H   UNL     1      41.989 -18.244   3.475  1.00  0.00     0.171 HD
HETATM    6  H   UNL     1      41.069 -17.285   1.908  1.00  0.00     0.170 HD
ENDROOT
BRANCH   1   7
HETATM    7  C   UNL     1      43.747 -19.245   3.583  1.00  0.00     0.086 A 
HETATM    8  C   UNL     1      44.094 -20.456   3.009  1.00  0.00     0.052 A 
HETATM    9  C   UNL     1      43.674 -21.127   1.756  1.00  0.00     0.072 C 
HETATM   10  N   UNL     1      44.977 -21.040   3.871  1.00  0.00    -0.280 N 
HETATM   11  H   UNL     1      45.433 -21.942   3.787  1.00  0.00     0.189 HD
HETATM   12  N   UNL     1      45.253 -20.297   4.945  1.00  0.00    -0.177 NA
HETATM   13  C   UNL     1      44.511 -19.190   4.786  1.00  0.00     0.079 A 
HETATM   14  C   UNL     1      44.615 -18.128   5.818  1.00  0.00     0.075 C 
ENDBRANCH   1   7
BRANCH   3  15
HETATM   15  C   UNL     1      41.771 -15.776   0.683  1.00  0.00     0.039 A 
HETATM   16  C   UNL     1      41.949 -14.445   1.064  1.00  0.00     0.056 A 
HETATM   17  C   UNL     1      41.720 -13.409   0.148  1.00  0.00     0.071 A 
HETATM   18 CL   UNL     1      41.943 -11.780   0.680  1.00  0.00    -0.081 Cl
HETATM   19  C   UNL     1      41.316 -13.691  -1.161  1.00  0.00     0.111 A 
HETATM   20  C   UNL     1      41.129 -15.023  -1.541  1.00  0.00     0.071 A 
HETATM   21 CL   UNL     1      40.567 -15.455  -3.116  1.00  0.00    -0.081 Cl
HETATM   22  C   UNL     1      41.368 -16.057  -0.628  1.00  0.00     0.056 A 
BRANCH  19  23
HETATM   23  O   UNL     1      41.015 -12.657  -2.010  1.00  0.00    -0.352 OA
HETATM   24  C   UNL     1      42.136 -12.284  -2.813  1.00  0.00     0.210 C 
ENDBRANCH  19  23
ENDBRANCH   3  15
TORSDOF 3
ENDMDL
