MODEL 1
REMARK VINA RESULT:      -7.9      0.000      0.000
REMARK  6 active torsions:
REMARK  status: ('A' for Active; 'I' for Inactive)
REMARK    1  A    between atoms: C_2  and  N_3 
REMARK    2  A    between atoms: C_2  and  C_24 
REMARK       I    between atoms: N_3  and  C_4 
REMARK    3  A    between atoms: C_4  and  C_5 
REMARK    4  A    between atoms: C_5  and  N_6 
REMARK    5  A    between atoms: C_10  and  N_11 
REMARK       I    between atoms: N_11  and  C_12 
REMARK       I    between atoms: C_12  and  N_13 
REMARK    6  A    between atoms: N_13  and  C_14 
ROOT
HETATM    1  N   UNL     1      42.049 -15.342   5.157  1.00  0.00    -0.063 N 
HETATM    2  H   UNL     1      42.245 -14.945   6.090  1.00  0.00     0.280 HD
HETATM    3  C   UNL     1      43.109 -14.900   4.191  1.00  0.00     0.237 C 
HETATM    4  C   UNL     1      42.941 -13.451   3.784  1.00  0.00     0.053 C 
HETATM    5  C   UNL     1      41.542 -13.118   3.281  1.00  0.00     0.089 C 
HETATM    6  C   UNL     1      40.486 -13.550   4.294  1.00  0.00     0.053 C 
HETATM    7  C   UNL     1      40.625 -14.970   4.815  1.00  0.00     0.237 C 
ENDROOT
BRANCH   1   8
HETATM    8  C   UNL     1      42.157 -16.873   5.350  1.00  0.00     0.337 C 
BRANCH   8   9
HETATM    9  C   UNL     1      43.613 -17.326   5.387  1.00  0.00     0.244 C 
HETATM   10  N   UNL     1      44.208 -17.904   4.313  1.00  0.00    -0.351 N 
HETATM   11  H   UNL     1      45.177 -18.149   4.491  1.00  0.00     0.163 HD
HETATM   12  O   UNL     1      44.262 -17.160   6.426  1.00  0.00    -0.272 OA
BRANCH  10  13
HETATM   13  C   UNL     1      43.665 -18.381   3.038  1.00  0.00     0.120 C 
HETATM   14  C   UNL     1      44.066 -17.490   1.867  1.00  0.00     0.038 C 
BRANCH  13  15
HETATM   15  C   UNL     1      43.904 -19.865   2.890  1.00  0.00     0.005 A 
HETATM   16  S   UNL     1      44.754 -20.800   4.055  1.00  0.00    -0.104 SA
HETATM   17  C   UNL     1      44.619 -22.225   3.129  1.00  0.00     0.050 A 
HETATM   18  C   UNL     1      43.959 -22.007   1.943  1.00  0.00     0.008 A 
HETATM   19  C   UNL     1      43.546 -20.651   1.806  1.00  0.00     0.017 A 
ENDBRANCH  13  15
ENDBRANCH  10  13
ENDBRANCH   8   9
ENDBRANCH   1   8
BRANCH   5  20
HETATM   20  N   UNL     1      41.298 -13.522   1.896  1.00  0.00    -0.338 N 
HETATM   21  C   UNL     1      41.766 -12.937   0.766  1.00  0.00     0.316 C 
HETATM   22  N   UNL     1      41.326 -13.423  -0.412  1.00  0.00    -0.339 N 
HETATM   23  O   UNL     1      42.536 -11.984   0.762  1.00  0.00    -0.247 OA
HETATM   24  H   UNL     1      41.769 -12.964  -1.200  1.00  0.00     0.164 HD
HETATM   25  H   UNL     1      40.766 -14.371   1.766  1.00  0.00     0.164 HD
BRANCH  22  26
HETATM   26  C   UNL     1      40.373 -14.490  -0.720  1.00  0.00     0.086 C 
HETATM   27  C   UNL     1      39.101 -13.902  -1.349  1.00  0.00     0.025 C 
HETATM   28  C   UNL     1      39.316 -13.414  -2.783  1.00  0.00     0.002 C 
HETATM   29  C   UNL     1      39.928 -14.500  -3.661  1.00  0.00     0.000 C 
HETATM   30  C   UNL     1      41.214 -15.057  -3.057  1.00  0.00     0.002 C 
HETATM   31  C   UNL     1      40.998 -15.556  -1.629  1.00  0.00     0.025 C 
ENDBRANCH  22  26
ENDBRANCH   5  20
TORSDOF 6
ENDMDL
MODEL 2
REMARK VINA RESULT:      -7.8      2.930      7.430
REMARK  6 active torsions:
REMARK  status: ('A' for Active; 'I' for Inactive)
REMARK    1  A    between atoms: C_2  and  N_3 
REMARK    2  A    between atoms: C_2  and  C_24 
REMARK       I    between atoms: N_3  and  C_4 
REMARK    3  A    between atoms: C_4  and  C_5 
REMARK    4  A    between atoms: C_5  and  N_6 
REMARK    5  A    between atoms: C_10  and  N_11 
REMARK       I    between atoms: N_11  and  C_12 
REMARK       I    between atoms: C_12  and  N_13 
REMARK    6  A    between atoms: N_13  and  C_14 
ROOT
HETATM    1  N   UNL     1      42.238 -14.958   6.050  1.00  0.00    -0.063 N 
HETATM    2  H   UNL     1      41.980 -14.359   6.851  1.00  0.00     0.280 HD
HETATM    3  C   UNL     1      41.508 -16.266   6.144  1.00  0.00     0.237 C 
HETATM    4  C   UNL     1      42.091 -17.169   7.211  1.00  0.00     0.053 C 
HETATM    5  C   UNL     1      43.596 -17.369   7.084  1.00  0.00     0.089 C 
HETATM    6  C   UNL     1      44.317 -16.025   7.020  1.00  0.00     0.053 C 
HETATM    7  C   UNL     1      43.748 -15.027   6.027  1.00  0.00     0.237 C 
ENDROOT
BRANCH   1   8
HETATM    8  C   UNL     1      41.731 -14.192   4.806  1.00  0.00     0.337 C 
BRANCH   8   9
HETATM    9  C   UNL     1      40.216 -14.299   4.668  1.00  0.00     0.244 C 
HETATM   10  N   UNL     1      39.637 -14.869   3.581  1.00  0.00    -0.351 N 
HETATM   11  H   UNL     1      38.623 -14.867   3.635  1.00  0.00     0.163 HD
HETATM   12  O   UNL     1      39.503 -13.852   5.572  1.00  0.00    -0.272 OA
BRANCH  10  13
HETATM   13  C   UNL     1      40.196 -15.316   2.302  1.00  0.00     0.120 C 
HETATM   14  C   UNL     1      40.427 -16.823   2.266  1.00  0.00     0.038 C 
BRANCH  13  15
HETATM   15  C   UNL     1      39.426 -14.708   1.153  1.00  0.00     0.005 A 
HETATM   16  S   UNL     1      40.152 -14.292  -0.347  1.00  0.00    -0.104 SA
HETATM   17  C   UNL     1      38.693 -13.668  -0.972  1.00  0.00     0.050 A 
HETATM   18  C   UNL     1      37.667 -13.751  -0.062  1.00  0.00     0.008 A 
HETATM   19  C   UNL     1      38.087 -14.350   1.160  1.00  0.00     0.017 A 
ENDBRANCH  13  15
ENDBRANCH  10  13
ENDBRANCH   8   9
ENDBRANCH   1   8
BRANCH   5  20
HETATM   20  N   UNL     1      43.980 -18.346   6.064  1.00  0.00    -0.338 N 
HETATM   21  C   UNL     1      43.955 -19.698   6.159  1.00  0.00     0.316 C 
HETATM   22  N   UNL     1      44.454 -20.402   5.123  1.00  0.00    -0.339 N 
HETATM   23  O   UNL     1      43.534 -20.304   7.138  1.00  0.00    -0.247 OA
HETATM   24  H   UNL     1      44.345 -21.401   5.257  1.00  0.00     0.164 HD
HETATM   25  H   UNL     1      44.239 -17.972   5.163  1.00  0.00     0.164 HD
BRANCH  22  26
HETATM   26  C   UNL     1      45.073 -19.967   3.871  1.00  0.00     0.086 C 
HETATM   27  C   UNL     1      45.381 -21.180   2.981  1.00  0.00     0.025 C 
HETATM   28  C   UNL     1      44.126 -21.806   2.370  1.00  0.00     0.002 C 
HETATM   29  C   UNL     1      43.280 -20.770   1.638  1.00  0.00     0.000 C 
HETATM   30  C   UNL     1      42.939 -19.583   2.534  1.00  0.00     0.002 C 
HETATM   31  C   UNL     1      44.193 -18.949   3.134  1.00  0.00     0.025 C 
ENDBRANCH  22  26
ENDBRANCH   5  20
TORSDOF 6
ENDMDL
MODEL 3
REMARK VINA RESULT:      -7.8      4.186      7.340
REMARK  6 active torsions:
REMARK  status: ('A' for Active; 'I' for Inactive)
REMARK    1  A    between atoms: C_2  and  N_3 
REMARK    2  A    between atoms: C_2  and  C_24 
REMARK       I    between atoms: N_3  and  C_4 
REMARK    3  A    between atoms: C_4  and  C_5 
REMARK    4  A    between atoms: C_5  and  N_6 
REMARK    5  A    between atoms: C_10  and  N_11 
REMARK       I    between atoms: N_11  and  C_12 
REMARK       I    between atoms: C_12  and  N_13 
REMARK    6  A    between atoms: N_13  and  C_14 
ROOT
HETATM    1  N   UNL     1      41.378 -14.154   4.240  1.00  0.00    -0.063 N 
HETATM    2  H   UNL     1      40.723 -14.213   3.443  1.00  0.00     0.280 HD
HETATM    3  C   UNL     1      40.627 -14.351   5.524  1.00  0.00     0.237 C 
HETATM    4  C   UNL     1      39.811 -13.132   5.901  1.00  0.00     0.053 C 
HETATM    5  C   UNL     1      40.617 -11.839   5.909  1.00  0.00     0.089 C 
HETATM    6  C   UNL     1      41.347 -11.647   4.582  1.00  0.00     0.053 C 
HETATM    7  C   UNL     1      42.131 -12.852   4.090  1.00  0.00     0.237 C 
ENDROOT
BRANCH   1   8
HETATM    8  C   UNL     1      42.347 -15.343   4.041  1.00  0.00     0.337 C 
BRANCH   8   9
HETATM    9  C   UNL     1      41.693 -16.464   3.241  1.00  0.00     0.244 C 
HETATM   10  N   UNL     1      42.124 -17.748   3.326  1.00  0.00    -0.351 N 
HETATM   11  H   UNL     1      41.589 -18.378   2.736  1.00  0.00     0.163 HD
HETATM   12  O   UNL     1      40.746 -16.189   2.496  1.00  0.00    -0.272 OA
BRANCH  10  13
HETATM   13  C   UNL     1      43.302 -18.338   3.968  1.00  0.00     0.120 C 
HETATM   14  C   UNL     1      43.196 -18.335   5.490  1.00  0.00     0.038 C 
BRANCH  13  15
HETATM   15  C   UNL     1      43.659 -19.647   3.304  1.00  0.00     0.005 A 
HETATM   16  S   UNL     1      44.757 -20.779   3.988  1.00  0.00    -0.104 SA
HETATM   17  C   UNL     1      44.625 -21.834   2.655  1.00  0.00     0.050 A 
HETATM   18  C   UNL     1      43.779 -21.342   1.691  1.00  0.00     0.008 A 
HETATM   19  C   UNL     1      43.223 -20.085   2.063  1.00  0.00     0.017 A 
ENDBRANCH  13  15
ENDBRANCH  10  13
ENDBRANCH   8   9
ENDBRANCH   1   8
BRANCH   5  20
HETATM   20  N   UNL     1      41.428 -11.653   7.113  1.00  0.00    -0.338 N 
HETATM   21  C   UNL     1      41.951 -10.498   7.591  1.00  0.00     0.316 C 
HETATM   22  N   UNL     1      42.756 -10.581   8.670  1.00  0.00    -0.339 N 
HETATM   23  O   UNL     1      41.756  -9.400   7.082  1.00  0.00    -0.247 OA
HETATM   24  H   UNL     1      43.055  -9.667   8.989  1.00  0.00     0.164 HD
HETATM   25  H   UNL     1      41.565 -12.471   7.689  1.00  0.00     0.164 HD
BRANCH  22  26
HETATM   26  C   UNL     1      43.218 -11.735   9.442  1.00  0.00     0.086 C 
HETATM   27  C   UNL     1      44.578 -12.216   8.916  1.00  0.00     0.025 C 
HETATM   28  C   UNL     1      45.725 -11.271   9.275  1.00  0.00     0.002 C 
HETATM   29  C   UNL     1      45.770 -10.983  10.771  1.00  0.00     0.000 C 
HETATM   30  C   UNL     1      44.431 -10.466  11.288  1.00  0.00     0.002 C 
HETATM   31  C   UNL     1      43.286 -11.416  10.941  1.00  0.00     0.025 C 
ENDBRANCH  22  26
ENDBRANCH   5  20
TORSDOF 6
ENDMDL
MODEL 4
REMARK VINA RESULT:      -7.7      2.793      7.588
REMARK  6 active torsions:
REMARK  status: ('A' for Active; 'I' for Inactive)
REMARK    1  A    between atoms: C_2  and  N_3 
REMARK    2  A    between atoms: C_2  and  C_24 
REMARK       I    between atoms: N_3  and  C_4 
REMARK    3  A    between atoms: C_4  and  C_5 
REMARK    4  A    between atoms: C_5  and  N_6 
REMARK    5  A    between atoms: C_10  and  N_11 
REMARK       I    between atoms: N_11  and  C_12 
REMARK       I    between atoms: C_12  and  N_13 
REMARK    6  A    between atoms: N_13  and  C_14 
ROOT
HETATM    1  N   UNL     1      40.964 -14.530   2.286  1.00  0.00    -0.063 N 
HETATM    2  H   UNL     1      40.627 -13.587   2.538  1.00  0.00     0.280 HD
HETATM    3  C   UNL     1      40.440 -15.532   3.273  1.00  0.00     0.237 C 
HETATM    4  C   UNL     1      41.163 -15.457   4.601  1.00  0.00     0.053 C 
HETATM    5  C   UNL     1      42.680 -15.528   4.473  1.00  0.00     0.089 C 
HETATM    6  C   UNL     1      43.190 -14.480   3.487  1.00  0.00     0.053 C 
HETATM    7  C   UNL     1      42.466 -14.435   2.152  1.00  0.00     0.237 C 
ENDROOT
BRANCH   1   8
HETATM    8  C   UNL     1      40.333 -14.815   0.903  1.00  0.00     0.337 C 
BRANCH   8   9
HETATM    9  C   UNL     1      41.291 -15.592   0.006  1.00  0.00     0.244 C 
HETATM   10  N   UNL     1      41.612 -15.160  -1.240  1.00  0.00    -0.351 N 
HETATM   11  H   UNL     1      42.260 -15.782  -1.712  1.00  0.00     0.163 HD
HETATM   12  O   UNL     1      41.786 -16.642   0.431  1.00  0.00    -0.272 OA
BRANCH  10  13
HETATM   13  C   UNL     1      41.066 -14.078  -2.065  1.00  0.00     0.120 C 
HETATM   14  C   UNL     1      42.141 -13.384  -2.896  1.00  0.00     0.038 C 
BRANCH  13  15
HETATM   15  C   UNL     1      39.827 -14.547  -2.792  1.00  0.00     0.005 A 
HETATM   16  S   UNL     1      38.266 -13.887  -2.509  1.00  0.00    -0.104 SA
HETATM   17  C   UNL     1      37.526 -14.956  -3.612  1.00  0.00     0.050 A 
HETATM   18  C   UNL     1      38.433 -15.817  -4.181  1.00  0.00     0.008 A 
HETATM   19  C   UNL     1      39.756 -15.582  -3.710  1.00  0.00     0.017 A 
ENDBRANCH  13  15
ENDBRANCH  10  13
ENDBRANCH   8   9
ENDBRANCH   1   8
BRANCH   5  20
HETATM   20  N   UNL     1      43.196 -16.885   4.283  1.00  0.00    -0.338 N 
HETATM   21  C   UNL     1      42.848 -18.007   4.958  1.00  0.00     0.316 C 
HETATM   22  N   UNL     1      43.532 -19.135   4.681  1.00  0.00    -0.339 N 
HETATM   23  O   UNL     1      41.974 -18.041   5.817  1.00  0.00    -0.247 OA
HETATM   24  H   UNL     1      43.169 -19.932   5.191  1.00  0.00     0.164 HD
HETATM   25  H   UNL     1      43.844 -17.012   3.519  1.00  0.00     0.164 HD
BRANCH  22  26
HETATM   26  C   UNL     1      44.650 -19.386   3.770  1.00  0.00     0.086 C 
HETATM   27  C   UNL     1      45.333 -20.716   4.121  1.00  0.00     0.025 C 
HETATM   28  C   UNL     1      44.493 -21.937   3.738  1.00  0.00     0.002 C 
HETATM   29  C   UNL     1      44.067 -21.891   2.275  1.00  0.00     0.000 C 
HETATM   30  C   UNL     1      43.351 -20.586   1.936  1.00  0.00     0.002 C 
HETATM   31  C   UNL     1      44.195 -19.367   2.305  1.00  0.00     0.025 C 
ENDBRANCH  22  26
ENDBRANCH   5  20
TORSDOF 6
ENDMDL
MODEL 5
REMARK VINA RESULT:      -7.7      2.591      7.433
REMARK  6 active torsions:
REMARK  status: ('A' for Active; 'I' for Inactive)
REMARK    1  A    between atoms: C_2  and  N_3 
REMARK    2  A    between atoms: C_2  and  C_24 
REMARK       I    between atoms: N_3  and  C_4 
REMARK    3  A    between atoms: C_4  and  C_5 
REMARK    4  A    between atoms: C_5  and  N_6 
REMARK    5  A    between atoms: C_10  and  N_11 
REMARK       I    between atoms: N_11  and  C_12 
REMARK       I    between atoms: C_12  and  N_13 
REMARK    6  A    between atoms: N_13  and  C_14 
ROOT
HETATM    1  N   UNL     1      42.024 -13.443   2.987  1.00  0.00    -0.063 N 
HETATM    2  H   UNL     1      41.669 -12.575   3.421  1.00  0.00     0.280 HD
HETATM    3  C   UNL     1      41.046 -14.557   3.219  1.00  0.00     0.237 C 
HETATM    4  C   UNL     1      41.089 -15.067   4.644  1.00  0.00     0.053 C 
HETATM    5  C   UNL     1      42.489 -15.435   5.118  1.00  0.00     0.089 C 
HETATM    6  C   UNL     1      43.457 -14.275   4.899  1.00  0.00     0.053 C 
HETATM    7  C   UNL     1      43.425 -13.652   3.513  1.00  0.00     0.237 C 
ENDROOT
BRANCH   1   8
HETATM    8  C   UNL     1      42.076 -13.132   1.473  1.00  0.00     0.337 C 
BRANCH   8   9
HETATM    9  C   UNL     1      40.678 -12.929   0.900  1.00  0.00     0.244 C 
HETATM   10  N   UNL     1      40.200 -13.701  -0.109  1.00  0.00    -0.351 N 
HETATM   11  H   UNL     1      39.256 -13.446  -0.381  1.00  0.00     0.163 HD
HETATM   12  O   UNL     1      39.965 -12.035   1.370  1.00  0.00    -0.272 OA
BRANCH  10  13
HETATM   13  C   UNL     1      40.853 -14.694  -0.967  1.00  0.00     0.120 C 
HETATM   14  C   UNL     1      41.369 -15.893  -0.178  1.00  0.00     0.038 C 
BRANCH  13  15
HETATM   15  C   UNL     1      39.998 -14.981  -2.179  1.00  0.00     0.005 A 
HETATM   16  S   UNL     1      38.512 -14.176  -2.491  1.00  0.00    -0.104 SA
HETATM   17  C   UNL     1      38.222 -15.088  -3.903  1.00  0.00     0.050 A 
HETATM   18  C   UNL     1      39.219 -16.004  -4.137  1.00  0.00     0.008 A 
HETATM   19  C   UNL     1      40.241 -15.943  -3.147  1.00  0.00     0.017 A 
ENDBRANCH  13  15
ENDBRANCH  10  13
ENDBRANCH   8   9
ENDBRANCH   1   8
BRANCH   5  20
HETATM   20  N   UNL     1      42.949 -16.743   4.650  1.00  0.00    -0.338 N 
HETATM   21  C   UNL     1      42.383 -17.952   4.882  1.00  0.00     0.316 C 
HETATM   22  N   UNL     1      43.040 -19.041   4.434  1.00  0.00    -0.339 N 
HETATM   23  O   UNL     1      41.333 -18.106   5.495  1.00  0.00    -0.247 OA
HETATM   24  H   UNL     1      42.519 -19.894   4.603  1.00  0.00     0.164 HD
HETATM   25  H   UNL     1      43.748 -16.741   4.033  1.00  0.00     0.164 HD
BRANCH  22  26
HETATM   26  C   UNL     1      44.321 -19.176   3.739  1.00  0.00     0.086 C 
HETATM   27  C   UNL     1      45.126 -20.343   4.331  1.00  0.00     0.025 C 
HETATM   28  C   UNL     1      44.557 -21.712   3.956  1.00  0.00     0.002 C 
HETATM   29  C   UNL     1      44.383 -21.855   2.448  1.00  0.00     0.000 C 
HETATM   30  C   UNL     1      43.549 -20.719   1.864  1.00  0.00     0.002 C 
HETATM   31  C   UNL     1      44.124 -19.351   2.228  1.00  0.00     0.025 C 
ENDBRANCH  22  26
ENDBRANCH   5  20
TORSDOF 6
ENDMDL
MODEL 6
REMARK VINA RESULT:      -7.5      2.402      2.871
REMARK  6 active torsions:
REMARK  status: ('A' for Active; 'I' for Inactive)
REMARK    1  A    between atoms: C_2  and  N_3 
REMARK    2  A    between atoms: C_2  and  C_24 
REMARK       I    between atoms: N_3  and  C_4 
REMARK    3  A    between atoms: C_4  and  C_5 
REMARK    4  A    between atoms: C_5  and  N_6 
REMARK    5  A    between atoms: C_10  and  N_11 
REMARK       I    between atoms: N_11  and  C_12 
REMARK       I    between atoms: C_12  and  N_13 
REMARK    6  A    between atoms: N_13  and  C_14 
ROOT
HETATM    1  N   UNL     1      40.606 -15.894   3.459  1.00  0.00    -0.063 N 
HETATM    2  H   UNL     1      39.954 -16.259   4.173  1.00  0.00     0.280 HD
HETATM    3  C   UNL     1      40.956 -14.470   3.780  1.00  0.00     0.237 C 
HETATM    4  C   UNL     1      39.823 -13.518   3.461  1.00  0.00     0.053 C 
HETATM    5  C   UNL     1      39.288 -13.663   2.041  1.00  0.00     0.089 C 
HETATM    6  C   UNL     1      38.912 -15.113   1.750  1.00  0.00     0.053 C 
HETATM    7  C   UNL     1      39.965 -16.146   2.114  1.00  0.00     0.237 C 
ENDROOT
BRANCH   1   8
HETATM    8  C   UNL     1      41.876 -16.765   3.604  1.00  0.00     0.337 C 
BRANCH   8   9
HETATM    9  C   UNL     1      41.715 -17.802   4.710  1.00  0.00     0.244 C 
HETATM   10  N   UNL     1      42.756 -18.562   5.133  1.00  0.00    -0.351 N 
HETATM   11  H   UNL     1      42.492 -19.205   5.874  1.00  0.00     0.163 HD
HETATM   12  O   UNL     1      40.604 -17.949   5.231  1.00  0.00    -0.272 OA
BRANCH  10  13
HETATM   13  C   UNL     1      44.111 -18.738   4.603  1.00  0.00     0.120 C 
HETATM   14  C   UNL     1      45.175 -18.656   5.693  1.00  0.00     0.038 C 
BRANCH  13  15
HETATM   15  C   UNL     1      44.161 -19.932   3.678  1.00  0.00     0.005 A 
HETATM   16  S   UNL     1      43.525 -19.909   2.082  1.00  0.00    -0.104 SA
HETATM   17  C   UNL     1      43.919 -21.547   1.815  1.00  0.00     0.050 A 
HETATM   18  C   UNL     1      44.508 -22.120   2.917  1.00  0.00     0.008 A 
HETATM   19  C   UNL     1      44.649 -21.191   3.988  1.00  0.00     0.017 A 
ENDBRANCH  13  15
ENDBRANCH  10  13
ENDBRANCH   8   9
ENDBRANCH   1   8
BRANCH   5  20
HETATM   20  N   UNL     1      40.112 -13.004   1.027  1.00  0.00    -0.338 N 
HETATM   21  C   UNL     1      39.750 -12.005   0.185  1.00  0.00     0.316 C 
HETATM   22  N   UNL     1      40.649 -11.619  -0.743  1.00  0.00    -0.339 N 
HETATM   23  O   UNL     1      38.651 -11.463   0.205  1.00  0.00    -0.247 OA
HETATM   24  H   UNL     1      40.315 -10.834  -1.289  1.00  0.00     0.164 HD
HETATM   25  H   UNL     1      41.081 -13.284   0.988  1.00  0.00     0.164 HD
BRANCH  22  26
HETATM   26  C   UNL     1      41.992 -12.114  -1.048  1.00  0.00     0.086 C 
HETATM   27  C   UNL     1      41.916 -13.261  -2.067  1.00  0.00     0.025 C 
HETATM   28  C   UNL     1      41.560 -12.785  -3.476  1.00  0.00     0.002 C 
HETATM   29  C   UNL     1      42.491 -11.674  -3.947  1.00  0.00     0.000 C 
HETATM   30  C   UNL     1      42.535 -10.515  -2.956  1.00  0.00     0.002 C 
HETATM   31  C   UNL     1      42.904 -10.987  -1.550  1.00  0.00     0.025 C 
ENDBRANCH  22  26
ENDBRANCH   5  20
TORSDOF 6
ENDMDL
MODEL 7
REMARK VINA RESULT:      -7.5      4.822      7.962
REMARK  6 active torsions:
REMARK  status: ('A' for Active; 'I' for Inactive)
REMARK    1  A    between atoms: C_2  and  N_3 
REMARK    2  A    between atoms: C_2  and  C_24 
REMARK       I    between atoms: N_3  and  C_4 
REMARK    3  A    between atoms: C_4  and  C_5 
REMARK    4  A    between atoms: C_5  and  N_6 
REMARK    5  A    between atoms: C_10  and  N_11 
REMARK       I    between atoms: N_11  and  C_12 
REMARK       I    between atoms: C_12  and  N_13 
REMARK    6  A    between atoms: N_13  and  C_14 
ROOT
HETATM    1  N   UNL     1      41.395 -13.653   4.859  1.00  0.00    -0.063 N 
HETATM    2  H   UNL     1      40.859 -13.774   3.985  1.00  0.00     0.280 HD
HETATM    3  C   UNL     1      40.498 -13.903   6.037  1.00  0.00     0.237 C 
HETATM    4  C   UNL     1      39.542 -12.754   6.280  1.00  0.00     0.053 C 
HETATM    5  C   UNL     1      40.230 -11.398   6.369  1.00  0.00     0.089 C 
HETATM    6  C   UNL     1      41.111 -11.155   5.147  1.00  0.00     0.053 C 
HETATM    7  C   UNL     1      42.050 -12.293   4.785  1.00  0.00     0.237 C 
ENDROOT
BRANCH   1   8
HETATM    8  C   UNL     1      42.476 -14.757   4.813  1.00  0.00     0.337 C 
BRANCH   8   9
HETATM    9  C   UNL     1      43.092 -14.873   3.423  1.00  0.00     0.244 C 
HETATM   10  N   UNL     1      42.745 -15.868   2.568  1.00  0.00    -0.351 N 
HETATM   11  H   UNL     1      43.239 -15.810   1.683  1.00  0.00     0.163 HD
HETATM   12  O   UNL     1      43.930 -14.035   3.071  1.00  0.00    -0.272 OA
BRANCH  10  13
HETATM   13  C   UNL     1      41.937 -17.076   2.758  1.00  0.00     0.120 C 
HETATM   14  C   UNL     1      40.827 -17.200   1.720  1.00  0.00     0.038 C 
BRANCH  13  15
HETATM   15  C   UNL     1      42.831 -18.277   2.959  1.00  0.00     0.005 A 
HETATM   16  S   UNL     1      43.683 -18.579   4.421  1.00  0.00    -0.104 SA
HETATM   17  C   UNL     1      44.422 -19.982   3.795  1.00  0.00     0.050 A 
HETATM   18  C   UNL     1      44.052 -20.222   2.493  1.00  0.00     0.008 A 
HETATM   19  C   UNL     1      43.136 -19.242   2.013  1.00  0.00     0.017 A 
ENDBRANCH  13  15
ENDBRANCH  10  13
ENDBRANCH   8   9
ENDBRANCH   1   8
BRANCH   5  20
HETATM   20  N   UNL     1      40.855 -11.134   7.666  1.00  0.00    -0.338 N 
HETATM   21  C   UNL     1      41.658 -10.097   8.004  1.00  0.00     0.316 C 
HETATM   22  N   UNL     1      42.207 -10.113   9.237  1.00  0.00    -0.339 N 
HETATM   23  O   UNL     1      41.933  -9.173   7.247  1.00  0.00    -0.247 OA
HETATM   24  H   UNL     1      42.746  -9.275   9.421  1.00  0.00     0.164 HD
HETATM   25  H   UNL     1      40.612 -11.767   8.415  1.00  0.00     0.164 HD
BRANCH  22  26
HETATM   26  C   UNL     1      42.119 -11.094  10.318  1.00  0.00     0.086 C 
HETATM   27  C   UNL     1      43.525 -11.549  10.737  1.00  0.00     0.025 C 
HETATM   28  C   UNL     1      44.293 -10.476  11.511  1.00  0.00     0.002 C 
HETATM   29  C   UNL     1      43.492  -9.956  12.699  1.00  0.00     0.000 C 
HETATM   30  C   UNL     1      42.110  -9.466  12.277  1.00  0.00     0.002 C 
HETATM   31  C   UNL     1      41.337 -10.541  11.516  1.00  0.00     0.025 C 
ENDBRANCH  22  26
ENDBRANCH   5  20
TORSDOF 6
ENDMDL
MODEL 8
REMARK VINA RESULT:      -7.3      3.159      8.214
REMARK  6 active torsions:
REMARK  status: ('A' for Active; 'I' for Inactive)
REMARK    1  A    between atoms: C_2  and  N_3 
REMARK    2  A    between atoms: C_2  and  C_24 
REMARK       I    between atoms: N_3  and  C_4 
REMARK    3  A    between atoms: C_4  and  C_5 
REMARK    4  A    between atoms: C_5  and  N_6 
REMARK    5  A    between atoms: C_10  and  N_11 
REMARK       I    between atoms: N_11  and  C_12 
REMARK       I    between atoms: C_12  and  N_13 
REMARK    6  A    between atoms: N_13  and  C_14 
ROOT
HETATM    1  N   UNL     1      40.610 -14.283   1.675  1.00  0.00    -0.063 N 
HETATM    2  H   UNL     1      40.189 -13.369   1.909  1.00  0.00     0.280 HD
HETATM    3  C   UNL     1      39.978 -15.357   2.511  1.00  0.00     0.237 C 
HETATM    4  C   UNL     1      40.463 -15.324   3.945  1.00  0.00     0.053 C 
HETATM    5  C   UNL     1      41.981 -15.325   4.075  1.00  0.00     0.089 C 
HETATM    6  C   UNL     1      42.597 -14.205   3.240  1.00  0.00     0.053 C 
HETATM    7  C   UNL     1      42.107 -14.118   1.805  1.00  0.00     0.237 C 
ENDROOT
BRANCH   1   8
HETATM    8  C   UNL     1      40.237 -14.520   0.193  1.00  0.00     0.337 C 
BRANCH   8   9
HETATM    9  C   UNL     1      38.840 -13.996  -0.118  1.00  0.00     0.244 C 
HETATM   10  N   UNL     1      38.305 -14.083  -1.362  1.00  0.00    -0.351 N 
HETATM   11  H   UNL     1      37.369 -13.693  -1.412  1.00  0.00     0.163 HD
HETATM   12  O   UNL     1      38.181 -13.479   0.791  1.00  0.00    -0.272 OA
BRANCH  10  13
HETATM   13  C   UNL     1      38.891 -14.471  -2.649  1.00  0.00     0.120 C 
HETATM   14  C   UNL     1      37.855 -15.047  -3.608  1.00  0.00     0.038 C 
BRANCH  13  15
HETATM   15  C   UNL     1      39.779 -13.367  -3.173  1.00  0.00     0.005 A 
HETATM   16  S   UNL     1      39.183 -11.822  -3.633  1.00  0.00    -0.104 SA
HETATM   17  C   UNL     1      40.726 -11.283  -4.120  1.00  0.00     0.050 A 
HETATM   18  C   UNL     1      41.685 -12.254  -3.959  1.00  0.00     0.008 A 
HETATM   19  C   UNL     1      41.141 -13.452  -3.413  1.00  0.00     0.017 A 
ENDBRANCH  13  15
ENDBRANCH  10  13
ENDBRANCH   8   9
ENDBRANCH   1   8
BRANCH   5  20
HETATM   20  N   UNL     1      42.589 -16.646   3.914  1.00  0.00    -0.338 N 
HETATM   21  C   UNL     1      42.196 -17.814   4.478  1.00  0.00     0.316 C 
HETATM   22  N   UNL     1      42.973 -18.897   4.268  1.00  0.00    -0.339 N 
HETATM   23  O   UNL     1      41.201 -17.929   5.185  1.00  0.00    -0.247 OA
HETATM   24  H   UNL     1      42.574 -19.733   4.679  1.00  0.00     0.164 HD
HETATM   25  H   UNL     1      43.355 -16.708   3.260  1.00  0.00     0.164 HD
BRANCH  22  26
HETATM   26  C   UNL     1      44.231 -19.054   3.538  1.00  0.00     0.086 C 
HETATM   27  C   UNL     1      45.114 -20.107   4.222  1.00  0.00     0.025 C 
HETATM   28  C   UNL     1      44.600 -21.534   4.030  1.00  0.00     0.002 C 
HETATM   29  C   UNL     1      44.376 -21.858   2.557  1.00  0.00     0.000 C 
HETATM   30  C   UNL     1      43.464 -20.835   1.885  1.00  0.00     0.002 C 
HETATM   31  C   UNL     1      43.985 -19.410   2.066  1.00  0.00     0.025 C 
ENDBRANCH  22  26
ENDBRANCH   5  20
TORSDOF 6
ENDMDL
MODEL 9
REMARK VINA RESULT:      -7.3      2.778      7.229
REMARK  6 active torsions:
REMARK  status: ('A' for Active; 'I' for Inactive)
REMARK    1  A    between atoms: C_2  and  N_3 
REMARK    2  A    between atoms: C_2  and  C_24 
REMARK       I    between atoms: N_3  and  C_4 
REMARK    3  A    between atoms: C_4  and  C_5 
REMARK    4  A    between atoms: C_5  and  N_6 
REMARK    5  A    between atoms: C_10  and  N_11 
REMARK       I    between atoms: N_11  and  C_12 
REMARK       I    between atoms: C_12  and  N_13 
REMARK    6  A    between atoms: N_13  and  C_14 
ROOT
HETATM    1  N   UNL     1      40.521 -13.627   2.541  1.00  0.00    -0.063 N 
HETATM    2  H   UNL     1      40.206 -12.646   2.465  1.00  0.00     0.280 HD
HETATM    3  C   UNL     1      39.802 -14.298   3.674  1.00  0.00     0.237 C 
HETATM    4  C   UNL     1      40.328 -13.859   5.025  1.00  0.00     0.053 C 
HETATM    5  C   UNL     1      41.840 -13.986   5.159  1.00  0.00     0.089 C 
HETATM    6  C   UNL     1      42.548 -13.270   4.012  1.00  0.00     0.053 C 
HETATM    7  C   UNL     1      42.030 -13.596   2.622  1.00  0.00     0.237 C 
ENDROOT
BRANCH   1   8
HETATM    8  C   UNL     1      40.082 -14.285   1.212  1.00  0.00     0.337 C 
BRANCH   8   9
HETATM    9  C   UNL     1      41.210 -15.110   0.603  1.00  0.00     0.244 C 
HETATM   10  N   UNL     1      41.712 -14.834  -0.627  1.00  0.00    -0.351 N 
HETATM   11  H   UNL     1      42.458 -15.469  -0.894  1.00  0.00     0.163 HD
HETATM   12  O   UNL     1      41.676 -16.053   1.251  1.00  0.00    -0.272 OA
BRANCH  10  13
HETATM   13  C   UNL     1      41.262 -13.918  -1.680  1.00  0.00     0.120 C 
HETATM   14  C   UNL     1      42.425 -13.230  -2.386  1.00  0.00     0.038 C 
BRANCH  13  15
HETATM   15  C   UNL     1      40.226 -14.590  -2.550  1.00  0.00     0.005 A 
HETATM   16  S   UNL     1      38.613 -14.017  -2.702  1.00  0.00    -0.104 SA
HETATM   17  C   UNL     1      38.169 -15.299  -3.735  1.00  0.00     0.050 A 
HETATM   18  C   UNL     1      39.212 -16.166  -3.956  1.00  0.00     0.008 A 
HETATM   19  C   UNL     1      40.395 -15.758  -3.276  1.00  0.00     0.017 A 
ENDBRANCH  13  15
ENDBRANCH  10  13
ENDBRANCH   8   9
ENDBRANCH   1   8
BRANCH   5  20
HETATM   20  N   UNL     1      42.298 -15.348   5.438  1.00  0.00    -0.338 N 
HETATM   21  C   UNL     1      43.506 -15.735   5.917  1.00  0.00     0.316 C 
HETATM   22  N   UNL     1      43.744 -17.060   6.000  1.00  0.00    -0.339 N 
HETATM   23  O   UNL     1      44.391 -14.953   6.244  1.00  0.00    -0.247 OA
HETATM   24  H   UNL     1      44.646 -17.256   6.417  1.00  0.00     0.164 HD
HETATM   25  H   UNL     1      41.616 -16.082   5.317  1.00  0.00     0.164 HD
BRANCH  22  26
HETATM   26  C   UNL     1      42.922 -18.212   5.629  1.00  0.00     0.086 C 
HETATM   27  C   UNL     1      42.620 -18.186   4.123  1.00  0.00     0.025 C 
HETATM   28  C   UNL     1      43.837 -18.532   3.264  1.00  0.00     0.002 C 
HETATM   29  C   UNL     1      44.470 -19.852   3.689  1.00  0.00     0.000 C 
HETATM   30  C   UNL     1      44.809 -19.864   5.176  1.00  0.00     0.002 C 
HETATM   31  C   UNL     1      43.591 -19.532   6.036  1.00  0.00     0.025 C 
ENDBRANCH  22  26
ENDBRANCH   5  20
TORSDOF 6
ENDMDL
MODEL 10
REMARK VINA RESULT:      -7.3      3.383      8.371
REMARK  6 active torsions:
REMARK  status: ('A' for Active; 'I' for Inactive)
REMARK    1  A    between atoms: C_2  and  N_3 
REMARK    2  A    between atoms: C_2  and  C_24 
REMARK       I    between atoms: N_3  and  C_4 
REMARK    3  A    between atoms: C_4  and  C_5 
REMARK    4  A    between atoms: C_5  and  N_6 
REMARK    5  A    between atoms: C_10  and  N_11 
REMARK       I    between atoms: N_11  and  C_12 
REMARK       I    between atoms: C_12  and  N_13 
REMARK    6  A    between atoms: N_13  and  C_14 
ROOT
HETATM    1  N   UNL     1      40.837 -14.035   1.731  1.00  0.00    -0.063 N 
HETATM    2  H   UNL     1      40.397 -13.134   1.981  1.00  0.00     0.280 HD
HETATM    3  C   UNL     1      40.110 -15.155   2.415  1.00  0.00     0.237 C 
HETATM    4  C   UNL     1      40.434 -15.228   3.892  1.00  0.00     0.053 C 
HETATM    5  C   UNL     1      41.928 -15.259   4.187  1.00  0.00     0.089 C 
HETATM    6  C   UNL     1      42.639 -14.093   3.505  1.00  0.00     0.053 C 
HETATM    7  C   UNL     1      42.311 -13.900   2.034  1.00  0.00     0.237 C 
ENDROOT
BRANCH   1   8
HETATM    8  C   UNL     1      40.628 -14.163   0.204  1.00  0.00     0.337 C 
BRANCH   8   9
HETATM    9  C   UNL     1      40.069 -12.876  -0.391  1.00  0.00     0.244 C 
HETATM   10  N   UNL     1      40.863 -11.979  -1.027  1.00  0.00    -0.351 N 
HETATM   11  H   UNL     1      40.347 -11.174  -1.368  1.00  0.00     0.163 HD
HETATM   12  O   UNL     1      38.858 -12.648  -0.286  1.00  0.00    -0.272 OA
BRANCH  10  13
HETATM   13  C   UNL     1      42.321 -11.886  -1.152  1.00  0.00     0.120 C 
HETATM   14  C   UNL     1      42.835 -12.528  -2.436  1.00  0.00     0.038 C 
BRANCH  13  15
HETATM   15  C   UNL     1      42.784 -10.480  -0.849  1.00  0.00     0.005 A 
HETATM   16  S   UNL     1      41.914  -9.404   0.169  1.00  0.00    -0.104 SA
HETATM   17  C   UNL     1      43.027  -8.138  -0.083  1.00  0.00     0.050 A 
HETATM   18  C   UNL     1      44.039  -8.505  -0.937  1.00  0.00     0.008 A 
HETATM   19  C   UNL     1      43.901  -9.852  -1.377  1.00  0.00     0.017 A 
ENDBRANCH  13  15
ENDBRANCH  10  13
ENDBRANCH   8   9
ENDBRANCH   1   8
BRANCH   5  20
HETATM   20  N   UNL     1      42.542 -16.574   4.001  1.00  0.00    -0.338 N 
HETATM   21  C   UNL     1      42.142 -17.758   4.525  1.00  0.00     0.316 C 
HETATM   22  N   UNL     1      42.924 -18.833   4.300  1.00  0.00    -0.339 N 
HETATM   23  O   UNL     1      41.134 -17.894   5.210  1.00  0.00    -0.247 OA
HETATM   24  H   UNL     1      42.521 -19.681   4.681  1.00  0.00     0.164 HD
HETATM   25  H   UNL     1      43.321 -16.617   3.359  1.00  0.00     0.164 HD
BRANCH  22  26
HETATM   26  C   UNL     1      44.196 -18.967   3.589  1.00  0.00     0.086 C 
HETATM   27  C   UNL     1      45.075 -20.027   4.269  1.00  0.00     0.025 C 
HETATM   28  C   UNL     1      44.574 -21.454   4.041  1.00  0.00     0.002 C 
HETATM   29  C   UNL     1      44.379 -21.752   2.559  1.00  0.00     0.000 C 
HETATM   30  C   UNL     1      43.472 -20.722   1.890  1.00  0.00     0.002 C 
HETATM   31  C   UNL     1      43.979 -19.298   2.107  1.00  0.00     0.025 C 
ENDBRANCH  22  26
ENDBRANCH   5  20
TORSDOF 6
ENDMDL
