MODEL 1
REMARK VINA RESULT:      -9.2      0.000      0.000
REMARK  6 active torsions:
REMARK  status: ('A' for Active; 'I' for Inactive)
REMARK    1  A    between atoms: C_2  and  O_3 
REMARK    2  A    between atoms: C_2  and  C_4 
REMARK    3  A    between atoms: C_6  and  N_7 
REMARK       I    between atoms: N_7  and  C_8 
REMARK    4  A    between atoms: C_8  and  C_9 
REMARK    5  A    between atoms: C_12  and  C_13 
REMARK    6  A    between atoms: C_18  and  C_19 
ROOT
HETATM    1  C   UNL     1      41.097 -16.153   1.379  1.00  0.00     0.096 A 
HETATM    2  C   UNL     1      40.918 -15.172   0.421  1.00  0.00     0.138 A 
HETATM    3  N   UNL     1      39.721 -14.562   0.724  1.00  0.00    -0.240 N 
HETATM    4  C   UNL     1      39.111 -13.505  -0.065  1.00  0.00     0.221 C 
HETATM    5  C   UNL     1      40.130 -12.919  -1.061  1.00  0.00     0.068 C 
HETATM    6  C   UNL     1      40.956 -14.026  -1.731  1.00  0.00     0.143 C 
HETATM    7  N   UNL     1      41.642 -14.796  -0.672  1.00  0.00    -0.363 N 
HETATM    8  N   UNL     1      39.045 -15.179   1.706  1.00  0.00    -0.181 NA
HETATM    9  C   UNL     1      39.892 -16.125   2.120  1.00  0.00     0.160 A 
HETATM   10  H   UNL     1      42.287 -15.480  -1.073  1.00  0.00     0.162 HD
ENDROOT
BRANCH   1  11
HETATM   11  C   UNL     1      42.213 -17.063   1.574  1.00  0.00     0.261 C 
HETATM   12  N   UNL     1      42.185 -17.708   2.796  1.00  0.00    -0.323 N 
HETATM   13  H   UNL     1      41.337 -17.576   3.338  1.00  0.00     0.169 HD
HETATM   14  O   UNL     1      43.042 -17.228   0.688  1.00  0.00    -0.267 OA
BRANCH  12  15
HETATM   15  C   UNL     1      43.134 -18.611   3.314  1.00  0.00     0.035 A 
HETATM   16  C   UNL     1      43.510 -19.794   2.672  1.00  0.00     0.039 A 
HETATM   17  C   UNL     1      44.476 -20.651   3.232  1.00  0.00    -0.028 A 
HETATM   18  C   UNL     1      45.046 -20.310   4.465  1.00  0.00     0.010 A 
HETATM   19  C   UNL     1      44.680 -19.130   5.111  1.00  0.00     0.003 A 
HETATM   20  C   UNL     1      43.735 -18.281   4.534  1.00  0.00     0.029 A 
BRANCH  17  21
HETATM   21  C   UNL     1      44.846 -21.930   2.511  1.00  0.00     0.147 C 
HETATM   22  C   UNL     1      44.002 -22.131   1.260  1.00  0.00     0.044 C 
BRANCH  21  23
HETATM   23  O   UNL     1      44.676 -23.051   3.377  1.00  0.00    -0.391 OA
HETATM   24  H   UNL     1      45.564 -23.327   3.658  1.00  0.00     0.210 HD
ENDBRANCH  21  23
ENDBRANCH  17  21
ENDBRANCH  12  15
ENDBRANCH   1  11
BRANCH   4  25
HETATM   25  C   UNL     1      38.568 -12.397   0.811  1.00  0.00     0.409 C 
HETATM   26  F   UNL     1      37.312 -12.617   1.248  1.00  0.00    -0.169 F 
HETATM   27  F   UNL     1      39.356 -12.162   1.886  1.00  0.00    -0.169 F 
HETATM   28  F   UNL     1      38.525 -11.235   0.104  1.00  0.00    -0.169 F 
ENDBRANCH   4  25
BRANCH   6  29
HETATM   29  C   UNL     1      40.125 -14.845  -2.674  1.00  0.00     0.075 A 
HETATM   30  O   UNL     1      38.984 -14.254  -3.140  1.00  0.00    -0.325 OA
HETATM   31  C   UNL     1      38.372 -15.155  -3.952  1.00  0.00     0.142 A 
HETATM   32  C   UNL     1      39.104 -16.317  -4.020  1.00  0.00     0.027 A 
HETATM   33  C   UNL     1      40.238 -16.118  -3.197  1.00  0.00     0.037 A 
ENDBRANCH   6  29
TORSDOF 6
ENDMDL
MODEL 2
REMARK VINA RESULT:      -8.7      3.100      8.049
REMARK  6 active torsions:
REMARK  status: ('A' for Active; 'I' for Inactive)
REMARK    1  A    between atoms: C_2  and  O_3 
REMARK    2  A    between atoms: C_2  and  C_4 
REMARK    3  A    between atoms: C_6  and  N_7 
REMARK       I    between atoms: N_7  and  C_8 
REMARK    4  A    between atoms: C_8  and  C_9 
REMARK    5  A    between atoms: C_12  and  C_13 
REMARK    6  A    between atoms: C_18  and  C_19 
ROOT
HETATM    1  C   UNL     1      42.134 -14.985   2.443  1.00  0.00     0.096 A 
HETATM    2  C   UNL     1      42.164 -15.969   3.415  1.00  0.00     0.138 A 
HETATM    3  N   UNL     1      43.133 -15.583   4.314  1.00  0.00    -0.240 N 
HETATM    4  C   UNL     1      43.540 -16.361   5.471  1.00  0.00     0.221 C 
HETATM    5  C   UNL     1      42.517 -17.478   5.757  1.00  0.00     0.068 C 
HETATM    6  C   UNL     1      42.067 -18.168   4.462  1.00  0.00     0.143 C 
HETATM    7  N   UNL     1      41.487 -17.143   3.570  1.00  0.00    -0.363 N 
HETATM    8  N   UNL     1      43.834 -14.512   3.911  1.00  0.00    -0.181 NA
HETATM    9  C   UNL     1      43.210 -14.135   2.792  1.00  0.00     0.160 A 
HETATM   10  H   UNL     1      41.078 -17.570   2.735  1.00  0.00     0.162 HD
ENDROOT
BRANCH   1  11
HETATM   11  C   UNL     1      41.265 -14.852   1.286  1.00  0.00     0.261 C 
HETATM   12  N   UNL     1      41.937 -14.480   0.137  1.00  0.00    -0.323 N 
HETATM   13  H   UNL     1      42.950 -14.478   0.207  1.00  0.00     0.169 HD
HETATM   14  O   UNL     1      40.069 -15.101   1.376  1.00  0.00    -0.267 OA
BRANCH  12  15
HETATM   15  C   UNL     1      41.390 -14.222  -1.135  1.00  0.00     0.035 A 
HETATM   16  C   UNL     1      40.633 -15.149  -1.855  1.00  0.00     0.039 A 
HETATM   17  C   UNL     1      40.099 -14.830  -3.118  1.00  0.00    -0.028 A 
HETATM   18  C   UNL     1      40.356 -13.563  -3.657  1.00  0.00     0.010 A 
HETATM   19  C   UNL     1      41.106 -12.629  -2.944  1.00  0.00     0.003 A 
HETATM   20  C   UNL     1      41.613 -12.955  -1.685  1.00  0.00     0.029 A 
BRANCH  17  21
HETATM   21  C   UNL     1      39.295 -15.867  -3.872  1.00  0.00     0.147 C 
HETATM   22  C   UNL     1      37.812 -15.523  -3.887  1.00  0.00     0.044 C 
BRANCH  21  23
HETATM   23  O   UNL     1      39.472 -17.154  -3.281  1.00  0.00    -0.391 OA
HETATM   24  H   UNL     1      40.347 -17.151  -2.857  1.00  0.00     0.210 HD
ENDBRANCH  21  23
ENDBRANCH  17  21
ENDBRANCH  12  15
ENDBRANCH   1  11
BRANCH   4  25
HETATM   25  C   UNL     1      43.695 -15.493   6.701  1.00  0.00     0.409 C 
HETATM   26  F   UNL     1      44.948 -15.032   6.885  1.00  0.00    -0.169 F 
HETATM   27  F   UNL     1      42.851 -14.435   6.691  1.00  0.00    -0.169 F 
HETATM   28  F   UNL     1      43.391 -16.217   7.813  1.00  0.00    -0.169 F 
ENDBRANCH   4  25
BRANCH   6  29
HETATM   29  C   UNL     1      43.170 -18.986   3.858  1.00  0.00     0.075 A 
HETATM   30  O   UNL     1      43.971 -19.662   4.735  1.00  0.00    -0.325 OA
HETATM   31  C   UNL     1      44.906 -20.316   3.999  1.00  0.00     0.142 A 
HETATM   32  C   UNL     1      44.718 -20.075   2.658  1.00  0.00     0.027 A 
HETATM   33  C   UNL     1      43.596 -19.218   2.565  1.00  0.00     0.037 A 
ENDBRANCH   6  29
TORSDOF 6
ENDMDL
MODEL 3
REMARK VINA RESULT:      -8.6      2.222      2.697
REMARK  6 active torsions:
REMARK  status: ('A' for Active; 'I' for Inactive)
REMARK    1  A    between atoms: C_2  and  O_3 
REMARK    2  A    between atoms: C_2  and  C_4 
REMARK    3  A    between atoms: C_6  and  N_7 
REMARK       I    between atoms: N_7  and  C_8 
REMARK    4  A    between atoms: C_8  and  C_9 
REMARK    5  A    between atoms: C_12  and  C_13 
REMARK    6  A    between atoms: C_18  and  C_19 
ROOT
HETATM    1  C   UNL     1      41.486 -14.661   0.954  1.00  0.00     0.096 A 
HETATM    2  C   UNL     1      41.586 -14.535  -0.420  1.00  0.00     0.138 A 
HETATM    3  N   UNL     1      41.501 -13.186  -0.682  1.00  0.00    -0.240 N 
HETATM    4  C   UNL     1      41.501 -12.604  -2.013  1.00  0.00     0.221 C 
HETATM    5  C   UNL     1      41.963 -13.641  -3.056  1.00  0.00     0.068 C 
HETATM    6  C   UNL     1      41.327 -15.014  -2.796  1.00  0.00     0.143 C 
HETATM    7  N   UNL     1      41.696 -15.443  -1.432  1.00  0.00    -0.363 N 
HETATM    8  N   UNL     1      41.198 -12.453   0.400  1.00  0.00    -0.181 NA
HETATM    9  C   UNL     1      41.217 -13.344   1.395  1.00  0.00     0.160 A 
HETATM   10  H   UNL     1      41.382 -16.399  -1.249  1.00  0.00     0.162 HD
ENDROOT
BRANCH   1  11
HETATM   11  C   UNL     1      41.568 -15.853   1.782  1.00  0.00     0.261 C 
HETATM   12  N   UNL     1      42.839 -16.094   2.269  1.00  0.00    -0.323 N 
HETATM   13  H   UNL     1      43.515 -15.354   2.106  1.00  0.00     0.169 HD
HETATM   14  O   UNL     1      40.564 -16.513   2.021  1.00  0.00    -0.267 OA
BRANCH  12  15
HETATM   15  C   UNL     1      43.267 -17.181   3.057  1.00  0.00     0.035 A 
HETATM   16  C   UNL     1      43.715 -18.394   2.526  1.00  0.00     0.039 A 
HETATM   17  C   UNL     1      44.143 -19.441   3.364  1.00  0.00    -0.028 A 
HETATM   18  C   UNL     1      44.096 -19.256   4.752  1.00  0.00     0.010 A 
HETATM   19  C   UNL     1      43.656 -18.047   5.289  1.00  0.00     0.003 A 
HETATM   20  C   UNL     1      43.251 -17.013   4.446  1.00  0.00     0.029 A 
BRANCH  17  21
HETATM   21  C   UNL     1      44.608 -20.744   2.751  1.00  0.00     0.147 C 
HETATM   22  C   UNL     1      43.616 -21.262   1.718  1.00  0.00     0.044 C 
BRANCH  21  23
HETATM   23  O   UNL     1      44.787 -21.731   3.766  1.00  0.00    -0.391 OA
HETATM   24  H   UNL     1      43.994 -21.704   4.327  1.00  0.00     0.210 HD
ENDBRANCH  21  23
ENDBRANCH  17  21
ENDBRANCH  12  15
ENDBRANCH   1  11
BRANCH   4  25
HETATM   25  C   UNL     1      42.393 -11.383  -2.088  1.00  0.00     0.409 C 
HETATM   26  F   UNL     1      41.788 -10.244  -1.694  1.00  0.00    -0.169 F 
HETATM   27  F   UNL     1      43.528 -11.533  -1.366  1.00  0.00    -0.169 F 
HETATM   28  F   UNL     1      42.781 -11.179  -3.376  1.00  0.00    -0.169 F 
ENDBRANCH   4  25
BRANCH   6  29
HETATM   29  C   UNL     1      39.855 -15.006  -3.083  1.00  0.00     0.075 A 
HETATM   30  O   UNL     1      39.451 -15.698  -4.190  1.00  0.00    -0.325 OA
HETATM   31  C   UNL     1      38.104 -15.552  -4.284  1.00  0.00     0.142 A 
HETATM   32  C   UNL     1      37.632 -14.779  -3.250  1.00  0.00     0.027 A 
HETATM   33  C   UNL     1      38.760 -14.427  -2.472  1.00  0.00     0.037 A 
ENDBRANCH   6  29
TORSDOF 6
ENDMDL
MODEL 4
REMARK VINA RESULT:      -8.6      1.226      2.066
REMARK  6 active torsions:
REMARK  status: ('A' for Active; 'I' for Inactive)
REMARK    1  A    between atoms: C_2  and  O_3 
REMARK    2  A    between atoms: C_2  and  C_4 
REMARK    3  A    between atoms: C_6  and  N_7 
REMARK       I    between atoms: N_7  and  C_8 
REMARK    4  A    between atoms: C_8  and  C_9 
REMARK    5  A    between atoms: C_12  and  C_13 
REMARK    6  A    between atoms: C_18  and  C_19 
ROOT
HETATM    1  C   UNL     1      40.948 -15.800   1.266  1.00  0.00     0.096 A 
HETATM    2  C   UNL     1      40.710 -14.892   0.250  1.00  0.00     0.138 A 
HETATM    3  N   UNL     1      39.472 -14.349   0.513  1.00  0.00    -0.240 N 
HETATM    4  C   UNL     1      38.797 -13.385  -0.340  1.00  0.00     0.221 C 
HETATM    5  C   UNL     1      39.781 -12.791  -1.366  1.00  0.00     0.068 C 
HETATM    6  C   UNL     1      40.685 -13.877  -1.966  1.00  0.00     0.143 C 
HETATM    7  N   UNL     1      41.414 -14.533  -0.861  1.00  0.00    -0.363 N 
HETATM    8  N   UNL     1      38.833 -14.951   1.528  1.00  0.00    -0.181 NA
HETATM    9  C   UNL     1      39.739 -15.811   2.000  1.00  0.00     0.160 A 
HETATM   10  H   UNL     1      42.107 -15.195  -1.219  1.00  0.00     0.162 HD
ENDROOT
BRANCH   1  11
HETATM   11  C   UNL     1      42.123 -16.618   1.519  1.00  0.00     0.261 C 
HETATM   12  N   UNL     1      41.857 -17.733   2.290  1.00  0.00    -0.323 N 
HETATM   13  H   UNL     1      40.874 -17.915   2.468  1.00  0.00     0.169 HD
HETATM   14  O   UNL     1      43.206 -16.317   1.032  1.00  0.00    -0.267 OA
BRANCH  12  15
HETATM   15  C   UNL     1      42.773 -18.699   2.752  1.00  0.00     0.035 A 
HETATM   16  C   UNL     1      43.304 -18.707   4.044  1.00  0.00     0.039 A 
HETATM   17  C   UNL     1      44.207 -19.706   4.454  1.00  0.00    -0.028 A 
HETATM   18  C   UNL     1      44.583 -20.693   3.534  1.00  0.00     0.010 A 
HETATM   19  C   UNL     1      44.054 -20.696   2.244  1.00  0.00     0.003 A 
HETATM   20  C   UNL     1      43.147 -19.708   1.859  1.00  0.00     0.029 A 
BRANCH  17  21
HETATM   21  C   UNL     1      44.770 -19.672   5.858  1.00  0.00     0.147 C 
HETATM   22  C   UNL     1      43.787 -20.246   6.870  1.00  0.00     0.044 C 
BRANCH  21  23
HETATM   23  O   UNL     1      45.094 -18.332   6.227  1.00  0.00    -0.391 OA
HETATM   24  H   UNL     1      44.294 -17.948   6.623  1.00  0.00     0.210 HD
ENDBRANCH  21  23
ENDBRANCH  17  21
ENDBRANCH  12  15
ENDBRANCH   1  11
BRANCH   4  25
HETATM   25  C   UNL     1      38.174 -12.267   0.467  1.00  0.00     0.409 C 
HETATM   26  F   UNL     1      38.050 -11.110  -0.213  1.00  0.00    -0.169 F 
HETATM   27  F   UNL     1      36.957 -12.604   0.955  1.00  0.00    -0.169 F 
HETATM   28  F   UNL     1      38.957 -11.990   1.545  1.00  0.00    -0.169 F 
ENDBRANCH   4  25
BRANCH   6  29
HETATM   29  C   UNL     1      39.917 -14.805  -2.861  1.00  0.00     0.075 A 
HETATM   30  O   UNL     1      38.751 -14.317  -3.379  1.00  0.00    -0.325 OA
HETATM   31  C   UNL     1      38.206 -15.305  -4.135  1.00  0.00     0.142 A 
HETATM   32  C   UNL     1      39.006 -16.423  -4.115  1.00  0.00     0.027 A 
HETATM   33  C   UNL     1      40.114 -16.101  -3.295  1.00  0.00     0.037 A 
ENDBRANCH   6  29
TORSDOF 6
ENDMDL
MODEL 5
REMARK VINA RESULT:      -8.5      2.322      3.062
REMARK  6 active torsions:
REMARK  status: ('A' for Active; 'I' for Inactive)
REMARK    1  A    between atoms: C_2  and  O_3 
REMARK    2  A    between atoms: C_2  and  C_4 
REMARK    3  A    between atoms: C_6  and  N_7 
REMARK       I    between atoms: N_7  and  C_8 
REMARK    4  A    between atoms: C_8  and  C_9 
REMARK    5  A    between atoms: C_12  and  C_13 
REMARK    6  A    between atoms: C_18  and  C_19 
ROOT
HETATM    1  C   UNL     1      42.138 -14.877   1.822  1.00  0.00     0.096 A 
HETATM    2  C   UNL     1      41.536 -14.457   0.649  1.00  0.00     0.138 A 
HETATM    3  N   UNL     1      41.895 -13.137   0.492  1.00  0.00    -0.240 N 
HETATM    4  C   UNL     1      41.433 -12.280  -0.586  1.00  0.00     0.221 C 
HETATM    5  C   UNL     1      40.792 -13.121  -1.706  1.00  0.00     0.068 C 
HETATM    6  C   UNL     1      39.888 -14.221  -1.132  1.00  0.00     0.143 C 
HETATM    7  N   UNL     1      40.705 -15.071  -0.241  1.00  0.00    -0.363 N 
HETATM    8  N   UNL     1      42.548 -12.635   1.552  1.00  0.00    -0.181 NA
HETATM    9  C   UNL     1      42.718 -13.697   2.344  1.00  0.00     0.160 A 
HETATM   10  H   UNL     1      40.173 -15.881   0.086  1.00  0.00     0.162 HD
ENDROOT
BRANCH   1  11
HETATM   11  C   UNL     1      42.142 -16.192   2.441  1.00  0.00     0.261 C 
HETATM   12  N   UNL     1      43.384 -16.571   2.912  1.00  0.00    -0.323 N 
HETATM   13  H   UNL     1      44.096 -15.847   2.892  1.00  0.00     0.169 HD
HETATM   14  O   UNL     1      41.103 -16.834   2.541  1.00  0.00    -0.267 OA
BRANCH  12  15
HETATM   15  C   UNL     1      43.740 -17.792   3.517  1.00  0.00     0.035 A 
HETATM   16  C   UNL     1      43.972 -18.971   2.804  1.00  0.00     0.039 A 
HETATM   17  C   UNL     1      44.338 -20.160   3.463  1.00  0.00    -0.028 A 
HETATM   18  C   UNL     1      44.449 -20.150   4.859  1.00  0.00     0.010 A 
HETATM   19  C   UNL     1      44.223 -18.977   5.578  1.00  0.00     0.003 A 
HETATM   20  C   UNL     1      43.879 -17.803   4.909  1.00  0.00     0.029 A 
BRANCH  17  21
HETATM   21  C   UNL     1      44.569 -21.420   2.656  1.00  0.00     0.147 C 
HETATM   22  C   UNL     1      43.493 -21.609   1.595  1.00  0.00     0.044 C 
BRANCH  21  23
HETATM   23  O   UNL     1      44.586 -22.559   3.514  1.00  0.00    -0.391 OA
HETATM   24  H   UNL     1      44.738 -22.230   4.416  1.00  0.00     0.210 HD
ENDBRANCH  21  23
ENDBRANCH  17  21
ENDBRANCH  12  15
ENDBRANCH   1  11
BRANCH   4  25
HETATM   25  C   UNL     1      42.560 -11.449  -1.161  1.00  0.00     0.409 C 
HETATM   26  F   UNL     1      43.004 -10.487  -0.328  1.00  0.00    -0.169 F 
HETATM   27  F   UNL     1      43.616 -12.208  -1.535  1.00  0.00    -0.169 F 
HETATM   28  F   UNL     1      42.130 -10.809  -2.282  1.00  0.00    -0.169 F 
ENDBRANCH   4  25
BRANCH   6  29
HETATM   29  C   UNL     1      38.650 -13.650  -0.505  1.00  0.00     0.075 A 
HETATM   30  O   UNL     1      38.114 -12.554  -1.119  1.00  0.00    -0.325 OA
HETATM   31  C   UNL     1      37.025 -12.185  -0.396  1.00  0.00     0.142 A 
HETATM   32  C   UNL     1      36.849 -13.030   0.674  1.00  0.00     0.027 A 
HETATM   33  C   UNL     1      37.896 -13.979   0.604  1.00  0.00     0.037 A 
ENDBRANCH   6  29
TORSDOF 6
ENDMDL
MODEL 6
REMARK VINA RESULT:      -8.4      2.201      3.716
REMARK  6 active torsions:
REMARK  status: ('A' for Active; 'I' for Inactive)
REMARK    1  A    between atoms: C_2  and  O_3 
REMARK    2  A    between atoms: C_2  and  C_4 
REMARK    3  A    between atoms: C_6  and  N_7 
REMARK       I    between atoms: N_7  and  C_8 
REMARK    4  A    between atoms: C_8  and  C_9 
REMARK    5  A    between atoms: C_12  and  C_13 
REMARK    6  A    between atoms: C_18  and  C_19 
ROOT
HETATM    1  C   UNL     1      41.174 -15.679   1.025  1.00  0.00     0.096 A 
HETATM    2  C   UNL     1      39.975 -15.050   0.746  1.00  0.00     0.138 A 
HETATM    3  N   UNL     1      40.203 -14.283  -0.375  1.00  0.00    -0.240 N 
HETATM    4  C   UNL     1      39.221 -13.403  -0.985  1.00  0.00     0.221 C 
HETATM    5  C   UNL     1      37.812 -13.707  -0.441  1.00  0.00     0.068 C 
HETATM    6  C   UNL     1      37.835 -13.929   1.078  1.00  0.00     0.143 C 
HETATM    7  N   UNL     1      38.761 -15.044   1.368  1.00  0.00    -0.363 N 
HETATM    8  N   UNL     1      41.493 -14.249  -0.741  1.00  0.00    -0.181 NA
HETATM    9  C   UNL     1      42.076 -15.116   0.091  1.00  0.00     0.160 A 
HETATM   10  H   UNL     1      38.732 -15.298   2.358  1.00  0.00     0.162 HD
ENDROOT
BRANCH   1  11
HETATM   11  C   UNL     1      41.493 -16.644   2.063  1.00  0.00     0.261 C 
HETATM   12  N   UNL     1      42.812 -17.058   2.040  1.00  0.00    -0.323 N 
HETATM   13  H   UNL     1      43.416 -16.547   1.404  1.00  0.00     0.169 HD
HETATM   14  O   UNL     1      40.642 -16.987   2.876  1.00  0.00    -0.267 OA
BRANCH  12  15
HETATM   15  C   UNL     1      43.429 -18.013   2.871  1.00  0.00     0.035 A 
HETATM   16  C   UNL     1      43.777 -19.298   2.450  1.00  0.00     0.039 A 
HETATM   17  C   UNL     1      44.405 -20.206   3.323  1.00  0.00    -0.028 A 
HETATM   18  C   UNL     1      44.663 -19.806   4.640  1.00  0.00     0.010 A 
HETATM   19  C   UNL     1      44.324 -18.523   5.068  1.00  0.00     0.003 A 
HETATM   20  C   UNL     1      43.718 -17.629   4.186  1.00  0.00     0.029 A 
BRANCH  17  21
HETATM   21  C   UNL     1      44.754 -21.595   2.831  1.00  0.00     0.147 C 
HETATM   22  C   UNL     1      44.007 -21.938   1.549  1.00  0.00     0.044 C 
BRANCH  21  23
HETATM   23  O   UNL     1      44.442 -22.564   3.830  1.00  0.00    -0.391 OA
HETATM   24  H   UNL     1      44.205 -23.384   3.363  1.00  0.00     0.210 HD
ENDBRANCH  21  23
ENDBRANCH  17  21
ENDBRANCH  12  15
ENDBRANCH   1  11
BRANCH   4  25
HETATM   25  C   UNL     1      39.218 -13.530  -2.493  1.00  0.00     0.409 C 
HETATM   26  F   UNL     1      40.135 -12.755  -3.105  1.00  0.00    -0.169 F 
HETATM   27  F   UNL     1      39.402 -14.808  -2.899  1.00  0.00    -0.169 F 
HETATM   28  F   UNL     1      38.008 -13.143  -2.982  1.00  0.00    -0.169 F 
ENDBRANCH   4  25
BRANCH   6  29
HETATM   29  C   UNL     1      38.122 -12.657   1.819  1.00  0.00     0.075 A 
HETATM   30  O   UNL     1      37.330 -11.587   1.510  1.00  0.00    -0.325 OA
HETATM   31  C   UNL     1      37.758 -10.542   2.265  1.00  0.00     0.142 A 
HETATM   32  C   UNL     1      38.813 -10.924   3.061  1.00  0.00     0.027 A 
HETATM   33  C   UNL     1      39.047 -12.291   2.777  1.00  0.00     0.037 A 
ENDBRANCH   6  29
TORSDOF 6
ENDMDL
MODEL 7
REMARK VINA RESULT:      -8.2      2.476      4.254
REMARK  6 active torsions:
REMARK  status: ('A' for Active; 'I' for Inactive)
REMARK    1  A    between atoms: C_2  and  O_3 
REMARK    2  A    between atoms: C_2  and  C_4 
REMARK    3  A    between atoms: C_6  and  N_7 
REMARK       I    between atoms: N_7  and  C_8 
REMARK    4  A    between atoms: C_8  and  C_9 
REMARK    5  A    between atoms: C_12  and  C_13 
REMARK    6  A    between atoms: C_18  and  C_19 
ROOT
HETATM    1  C   UNL     1      41.239 -15.906   1.106  1.00  0.00     0.096 A 
HETATM    2  C   UNL     1      40.041 -15.256   0.871  1.00  0.00     0.138 A 
HETATM    3  N   UNL     1      40.219 -14.546  -0.295  1.00  0.00    -0.240 N 
HETATM    4  C   UNL     1      39.224 -13.666  -0.884  1.00  0.00     0.221 C 
HETATM    5  C   UNL     1      37.844 -13.908  -0.243  1.00  0.00     0.068 C 
HETATM    6  C   UNL     1      37.954 -14.064   1.280  1.00  0.00     0.143 C 
HETATM    7  N   UNL     1      38.867 -15.190   1.563  1.00  0.00    -0.363 N 
HETATM    8  N   UNL     1      41.485 -14.564  -0.738  1.00  0.00    -0.181 NA
HETATM    9  C   UNL     1      42.096 -15.410   0.095  1.00  0.00     0.160 A 
HETATM   10  H   UNL     1      38.893 -15.400   2.564  1.00  0.00     0.162 HD
ENDROOT
BRANCH   1  11
HETATM   11  C   UNL     1      41.596 -16.834   2.166  1.00  0.00     0.261 C 
HETATM   12  N   UNL     1      42.842 -17.406   1.996  1.00  0.00    -0.323 N 
HETATM   13  H   UNL     1      43.401 -17.016   1.243  1.00  0.00     0.169 HD
HETATM   14  O   UNL     1      40.840 -17.016   3.113  1.00  0.00    -0.267 OA
BRANCH  12  15
HETATM   15  C   UNL     1      43.464 -18.373   2.809  1.00  0.00     0.035 A 
HETATM   16  C   UNL     1      43.783 -18.166   4.154  1.00  0.00     0.039 A 
HETATM   17  C   UNL     1      44.393 -19.176   4.921  1.00  0.00    -0.028 A 
HETATM   18  C   UNL     1      44.696 -20.398   4.309  1.00  0.00     0.010 A 
HETATM   19  C   UNL     1      44.377 -20.616   2.969  1.00  0.00     0.003 A 
HETATM   20  C   UNL     1      43.757 -19.611   2.226  1.00  0.00     0.029 A 
BRANCH  17  21
HETATM   21  C   UNL     1      44.735 -18.906   6.371  1.00  0.00     0.147 C 
HETATM   22  C   UNL     1      43.481 -18.754   7.223  1.00  0.00     0.044 C 
BRANCH  21  23
HETATM   23  O   UNL     1      45.522 -17.721   6.481  1.00  0.00    -0.391 OA
HETATM   24  H   UNL     1      46.073 -17.821   7.275  1.00  0.00     0.210 HD
ENDBRANCH  21  23
ENDBRANCH  17  21
ENDBRANCH  12  15
ENDBRANCH   1  11
BRANCH   4  25
HETATM   25  C   UNL     1      39.126 -13.859  -2.382  1.00  0.00     0.409 C 
HETATM   26  F   UNL     1      39.988 -13.099  -3.085  1.00  0.00    -0.169 F 
HETATM   27  F   UNL     1      39.306 -15.151  -2.744  1.00  0.00    -0.169 F 
HETATM   28  F   UNL     1      37.880 -13.511  -2.807  1.00  0.00    -0.169 F 
ENDBRANCH   4  25
BRANCH   6  29
HETATM   29  C   UNL     1      38.317 -12.768   1.944  1.00  0.00     0.075 A 
HETATM   30  O   UNL     1      37.551 -11.686   1.616  1.00  0.00    -0.325 OA
HETATM   31  C   UNL     1      38.048 -10.623   2.300  1.00  0.00     0.142 A 
HETATM   32  C   UNL     1      39.122 -11.005   3.068  1.00  0.00     0.027 A 
HETATM   33  C   UNL     1      39.296 -12.391   2.842  1.00  0.00     0.037 A 
ENDBRANCH   6  29
TORSDOF 6
ENDMDL
MODEL 8
REMARK VINA RESULT:      -8.1      1.629      1.916
REMARK  6 active torsions:
REMARK  status: ('A' for Active; 'I' for Inactive)
REMARK    1  A    between atoms: C_2  and  O_3 
REMARK    2  A    between atoms: C_2  and  C_4 
REMARK    3  A    between atoms: C_6  and  N_7 
REMARK       I    between atoms: N_7  and  C_8 
REMARK    4  A    between atoms: C_8  and  C_9 
REMARK    5  A    between atoms: C_12  and  C_13 
REMARK    6  A    between atoms: C_18  and  C_19 
ROOT
HETATM    1  C   UNL     1      41.192 -15.244   2.003  1.00  0.00     0.096 A 
HETATM    2  C   UNL     1      41.098 -13.990   1.426  1.00  0.00     0.138 A 
HETATM    3  N   UNL     1      39.753 -13.759   1.244  1.00  0.00    -0.240 N 
HETATM    4  C   UNL     1      39.200 -12.576   0.607  1.00  0.00     0.221 C 
HETATM    5  C   UNL     1      40.271 -11.474   0.491  1.00  0.00     0.068 C 
HETATM    6  C   UNL     1      41.620 -12.053   0.042  1.00  0.00     0.143 C 
HETATM    7  N   UNL     1      42.030 -13.081   1.020  1.00  0.00    -0.363 N 
HETATM    8  N   UNL     1      38.989 -14.828   1.513  1.00  0.00    -0.181 NA
HETATM    9  C   UNL     1      39.859 -15.718   1.999  1.00  0.00     0.160 A 
HETATM   10  H   UNL     1      42.973 -13.424   0.821  1.00  0.00     0.162 HD
ENDROOT
BRANCH   1  11
HETATM   11  C   UNL     1      42.367 -15.967   2.459  1.00  0.00     0.261 C 
HETATM   12  N   UNL     1      42.090 -17.256   2.872  1.00  0.00    -0.323 N 
HETATM   13  H   UNL     1      41.147 -17.580   2.683  1.00  0.00     0.169 HD
HETATM   14  O   UNL     1      43.474 -15.443   2.418  1.00  0.00    -0.267 OA
BRANCH  12  15
HETATM   15  C   UNL     1      42.988 -18.199   3.411  1.00  0.00     0.035 A 
HETATM   16  C   UNL     1      43.376 -19.366   2.747  1.00  0.00     0.039 A 
HETATM   17  C   UNL     1      44.288 -20.266   3.330  1.00  0.00    -0.028 A 
HETATM   18  C   UNL     1      44.792 -19.983   4.606  1.00  0.00     0.010 A 
HETATM   19  C   UNL     1      44.414 -18.819   5.273  1.00  0.00     0.003 A 
HETATM   20  C   UNL     1      43.523 -17.928   4.675  1.00  0.00     0.029 A 
BRANCH  17  21
HETATM   21  C   UNL     1      44.673 -21.525   2.584  1.00  0.00     0.147 C 
HETATM   22  C   UNL     1      43.725 -21.801   1.425  1.00  0.00     0.044 C 
BRANCH  21  23
HETATM   23  O   UNL     1      44.667 -22.644   3.470  1.00  0.00    -0.391 OA
HETATM   24  H   UNL     1      45.110 -23.374   3.006  1.00  0.00     0.210 HD
ENDBRANCH  21  23
ENDBRANCH  17  21
ENDBRANCH  12  15
ENDBRANCH   1  11
BRANCH   4  25
HETATM   25  C   UNL     1      38.006 -12.040   1.367  1.00  0.00     0.409 C 
HETATM   26  F   UNL     1      36.839 -12.620   1.024  1.00  0.00    -0.169 F 
HETATM   27  F   UNL     1      38.159 -12.155   2.707  1.00  0.00    -0.169 F 
HETATM   28  F   UNL     1      37.859 -10.711   1.110  1.00  0.00    -0.169 F 
ENDBRANCH   4  25
BRANCH   6  29
HETATM   29  C   UNL     1      41.578 -12.514  -1.385  1.00  0.00     0.075 A 
HETATM   30  O   UNL     1      41.834 -13.839  -1.599  1.00  0.00    -0.325 OA
HETATM   31  C   UNL     1      41.767 -14.046  -2.940  1.00  0.00     0.142 A 
HETATM   32  C   UNL     1      41.466 -12.875  -3.594  1.00  0.00     0.027 A 
HETATM   33  C   UNL     1      41.341 -11.884  -2.591  1.00  0.00     0.037 A 
ENDBRANCH   6  29
TORSDOF 6
ENDMDL
MODEL 9
REMARK VINA RESULT:      -8.0      3.220      8.308
REMARK  6 active torsions:
REMARK  status: ('A' for Active; 'I' for Inactive)
REMARK    1  A    between atoms: C_2  and  O_3 
REMARK    2  A    between atoms: C_2  and  C_4 
REMARK    3  A    between atoms: C_6  and  N_7 
REMARK       I    between atoms: N_7  and  C_8 
REMARK    4  A    between atoms: C_8  and  C_9 
REMARK    5  A    between atoms: C_12  and  C_13 
REMARK    6  A    between atoms: C_18  and  C_19 
ROOT
HETATM    1  C   UNL     1      42.162 -14.968   2.479  1.00  0.00     0.096 A 
HETATM    2  C   UNL     1      42.178 -15.918   3.484  1.00  0.00     0.138 A 
HETATM    3  N   UNL     1      43.168 -15.526   4.358  1.00  0.00    -0.240 N 
HETATM    4  C   UNL     1      43.570 -16.274   5.536  1.00  0.00     0.221 C 
HETATM    5  C   UNL     1      42.523 -17.353   5.873  1.00  0.00     0.068 C 
HETATM    6  C   UNL     1      42.040 -18.076   4.608  1.00  0.00     0.143 C 
HETATM    7  N   UNL     1      41.475 -17.068   3.688  1.00  0.00    -0.363 N 
HETATM    8  N   UNL     1      43.891 -14.488   3.909  1.00  0.00    -0.181 NA
HETATM    9  C   UNL     1      43.263 -14.134   2.785  1.00  0.00     0.160 A 
HETATM   10  H   UNL     1      41.045 -17.513   2.873  1.00  0.00     0.162 HD
ENDROOT
BRANCH   1  11
HETATM   11  C   UNL     1      41.282 -14.854   1.328  1.00  0.00     0.261 C 
HETATM   12  N   UNL     1      41.961 -14.758   0.128  1.00  0.00    -0.323 N 
HETATM   13  H   UNL     1      42.963 -14.913   0.181  1.00  0.00     0.169 HD
HETATM   14  O   UNL     1      40.065 -14.887   1.470  1.00  0.00    -0.267 OA
BRANCH  12  15
HETATM   15  C   UNL     1      41.413 -14.590  -1.160  1.00  0.00     0.035 A 
HETATM   16  C   UNL     1      41.384 -13.367  -1.836  1.00  0.00     0.039 A 
HETATM   17  C   UNL     1      40.835 -13.263  -3.128  1.00  0.00    -0.028 A 
HETATM   18  C   UNL     1      40.297 -14.409  -3.726  1.00  0.00     0.010 A 
HETATM   19  C   UNL     1      40.326 -15.634  -3.061  1.00  0.00     0.003 A 
HETATM   20  C   UNL     1      40.889 -15.725  -1.788  1.00  0.00     0.029 A 
BRANCH  17  21
HETATM   21  C   UNL     1      40.811 -11.918  -3.821  1.00  0.00     0.147 C 
HETATM   22  C   UNL     1      42.204 -11.490  -4.263  1.00  0.00     0.044 C 
BRANCH  21  23
HETATM   23  O   UNL     1      40.269 -10.925  -2.951  1.00  0.00    -0.391 OA
HETATM   24  H   UNL     1      39.756 -10.313  -3.505  1.00  0.00     0.210 HD
ENDBRANCH  21  23
ENDBRANCH  17  21
ENDBRANCH  12  15
ENDBRANCH   1  11
BRANCH   4  25
HETATM   25  C   UNL     1      43.763 -15.367   6.733  1.00  0.00     0.409 C 
HETATM   26  F   UNL     1      43.523 -15.969   7.915  1.00  0.00    -0.169 F 
HETATM   27  F   UNL     1      45.005 -14.830   6.774  1.00  0.00    -0.169 F 
HETATM   28  F   UNL     1      42.895 -14.321   6.658  1.00  0.00    -0.169 F 
ENDBRANCH   4  25
BRANCH   6  29
HETATM   29  C   UNL     1      43.115 -18.942   4.021  1.00  0.00     0.075 A 
HETATM   30  O   UNL     1      42.982 -19.256   2.697  1.00  0.00    -0.325 OA
HETATM   31  C   UNL     1      44.032 -20.052   2.368  1.00  0.00     0.142 A 
HETATM   32  C   UNL     1      44.843 -20.253   3.459  1.00  0.00     0.027 A 
HETATM   33  C   UNL     1      44.255 -19.535   4.527  1.00  0.00     0.037 A 
ENDBRANCH   6  29
TORSDOF 6
ENDMDL
MODEL 10
REMARK VINA RESULT:      -7.9      4.096      7.739
REMARK  6 active torsions:
REMARK  status: ('A' for Active; 'I' for Inactive)
REMARK    1  A    between atoms: C_2  and  O_3 
REMARK    2  A    between atoms: C_2  and  C_4 
REMARK    3  A    between atoms: C_6  and  N_7 
REMARK       I    between atoms: N_7  and  C_8 
REMARK    4  A    between atoms: C_8  and  C_9 
REMARK    5  A    between atoms: C_12  and  C_13 
REMARK    6  A    between atoms: C_18  and  C_19 
ROOT
HETATM    1  C   UNL     1      42.158 -16.280   2.515  1.00  0.00     0.096 A 
HETATM    2  C   UNL     1      42.509 -15.338   3.466  1.00  0.00     0.138 A 
HETATM    3  N   UNL     1      42.336 -15.952   4.687  1.00  0.00    -0.240 N 
HETATM    4  C   UNL     1      42.534 -15.301   5.970  1.00  0.00     0.221 C 
HETATM    5  C   UNL     1      43.295 -13.974   5.791  1.00  0.00     0.068 C 
HETATM    6  C   UNL     1      42.769 -13.187   4.583  1.00  0.00     0.143 C 
HETATM    7  N   UNL     1      42.908 -14.037   3.382  1.00  0.00    -0.363 N 
HETATM    8  N   UNL     1      41.753 -17.157   4.597  1.00  0.00    -0.181 NA
HETATM    9  C   UNL     1      41.671 -17.366   3.280  1.00  0.00     0.160 A 
HETATM   10  H   UNL     1      42.667 -13.519   2.534  1.00  0.00     0.162 HD
ENDROOT
BRANCH   1  11
HETATM   11  C   UNL     1      42.202 -16.192   1.065  1.00  0.00     0.261 C 
HETATM   12  N   UNL     1      41.486 -15.123   0.560  1.00  0.00    -0.323 N 
HETATM   13  H   UNL     1      41.139 -14.466   1.252  1.00  0.00     0.169 HD
HETATM   14  O   UNL     1      42.861 -16.994   0.414  1.00  0.00    -0.267 OA
BRANCH  12  15
HETATM   15  C   UNL     1      41.288 -14.782  -0.792  1.00  0.00     0.035 A 
HETATM   16  C   UNL     1      40.465 -15.504  -1.660  1.00  0.00     0.039 A 
HETATM   17  C   UNL     1      40.295 -15.107  -3.000  1.00  0.00    -0.028 A 
HETATM   18  C   UNL     1      40.983 -13.978  -3.461  1.00  0.00     0.010 A 
HETATM   19  C   UNL     1      41.802 -13.249  -2.601  1.00  0.00     0.003 A 
HETATM   20  C   UNL     1      41.947 -13.645  -1.271  1.00  0.00     0.029 A 
BRANCH  17  21
HETATM   21  C   UNL     1      39.404 -15.923  -3.912  1.00  0.00     0.147 C 
HETATM   22  C   UNL     1      37.994 -15.352  -3.976  1.00  0.00     0.044 C 
BRANCH  21  23
HETATM   23  O   UNL     1      39.343 -17.275  -3.460  1.00  0.00    -0.391 OA
HETATM   24  H   UNL     1      38.857 -17.777  -4.136  1.00  0.00     0.210 HD
ENDBRANCH  21  23
ENDBRANCH  17  21
ENDBRANCH  12  15
ENDBRANCH   1  11
BRANCH   4  25
HETATM   25  C   UNL     1      43.289 -16.190   6.935  1.00  0.00     0.409 C 
HETATM   26  F   UNL     1      43.968 -15.511   7.881  1.00  0.00    -0.169 F 
HETATM   27  F   UNL     1      42.480 -17.082   7.551  1.00  0.00    -0.169 F 
HETATM   28  F   UNL     1      44.216 -16.918   6.254  1.00  0.00    -0.169 F 
ENDBRANCH   4  25
BRANCH   6  29
HETATM   29  C   UNL     1      41.387 -12.655   4.827  1.00  0.00     0.075 A 
HETATM   30  O   UNL     1      41.207 -11.952   5.985  1.00  0.00    -0.325 OA
HETATM   31  C   UNL     1      39.902 -11.579   6.026  1.00  0.00     0.142 A 
HETATM   32  C   UNL     1      39.238 -12.028   4.909  1.00  0.00     0.027 A 
HETATM   33  C   UNL     1      40.196 -12.720   4.132  1.00  0.00     0.037 A 
ENDBRANCH   6  29
TORSDOF 6
ENDMDL
