MODEL 1
REMARK VINA RESULT:      -8.5      0.000      0.000
REMARK  2 active torsions:
REMARK  status: ('A' for Active; 'I' for Inactive)
REMARK    1  A    between atoms: C_2  and  C_3 
REMARK    2  A    between atoms: C_6  and  C_7 
ROOT
HETATM    1  C   UNL     1      43.031 -16.321   4.183  1.00  0.00     0.119 C 
HETATM    2  S   UNL     1      43.052 -15.104   2.850  1.00  0.00    -0.141 SA
HETATM    3  C   UNL     1      41.463 -15.469   2.054  1.00  0.00     0.136 C 
HETATM    4  C   UNL     1      41.568 -15.131   0.570  1.00  0.00     0.031 C 
HETATM    5  C   UNL     1      40.384 -14.651   2.720  1.00  0.00     0.236 C 
HETATM    6  O   UNL     1      39.682 -13.821   2.160  1.00  0.00    -0.272 OA
HETATM    7  N   UNL     1      40.018 -14.876   4.081  1.00  0.00    -0.311 N 
HETATM    8  C   UNL     1      40.582 -15.735   5.003  1.00  0.00     0.134 A 
HETATM    9  C   UNL     1      41.811 -16.377   5.054  1.00  0.00     0.032 A 
HETATM   10  N   UNL     1      39.933 -16.067   6.166  1.00  0.00    -0.262 N 
HETATM   11  H   UNL     1      39.017 -15.765   6.480  1.00  0.00     0.191 HD
HETATM   12  N   UNL     1      40.597 -16.922   6.939  1.00  0.00    -0.178 NA
HETATM   13  C   UNL     1      41.754 -17.104   6.300  1.00  0.00     0.062 A 
HETATM   14  C   UNL     1      42.786 -17.984   6.917  1.00  0.00     0.073 C 
HETATM   15  H   UNL     1      39.199 -14.337   4.349  1.00  0.00     0.170 HD
ENDROOT
BRANCH   1  16
HETATM   16  C   UNL     1      43.388 -17.724   3.709  1.00  0.00    -0.040 A 
HETATM   17  C   UNL     1      42.683 -18.250   2.608  1.00  0.00     0.009 A 
HETATM   18  C   UNL     1      42.969 -19.519   2.100  1.00  0.00     0.007 A 
HETATM   19  C   UNL     1      43.957 -20.311   2.689  1.00  0.00    -0.059 A 
HETATM   20  C   UNL     1      44.651 -19.809   3.796  1.00  0.00     0.007 A 
HETATM   21  C   UNL     1      44.371 -18.535   4.299  1.00  0.00     0.009 A 
BRANCH  19  22
HETATM   22  C   UNL     1      44.283 -21.673   2.128  1.00  0.00     0.034 C 
HETATM   23  C   UNL     1      44.645 -22.670   3.220  1.00  0.00     0.010 C 
ENDBRANCH  19  22
ENDBRANCH   1  16
TORSDOF 2
ENDMDL
MODEL 2
REMARK VINA RESULT:      -8.0      3.870      6.182
REMARK  2 active torsions:
REMARK  status: ('A' for Active; 'I' for Inactive)
REMARK    1  A    between atoms: C_2  and  C_3 
REMARK    2  A    between atoms: C_6  and  C_7 
ROOT
HETATM    1  C   UNL     1      44.862 -19.265   4.148  1.00  0.00     0.119 C 
HETATM    2  S   UNL     1      45.025 -18.385   5.716  1.00  0.00    -0.141 SA
HETATM    3  C   UNL     1      43.511 -18.933   6.552  1.00  0.00     0.136 C 
HETATM    4  C   UNL     1      43.055 -17.835   7.509  1.00  0.00     0.031 C 
HETATM    5  C   UNL     1      43.800 -20.214   7.295  1.00  0.00     0.236 C 
HETATM    6  O   UNL     1      43.692 -20.366   8.505  1.00  0.00    -0.272 OA
HETATM    7  N   UNL     1      44.128 -21.415   6.600  1.00  0.00    -0.311 N 
HETATM    8  C   UNL     1      44.322 -21.613   5.248  1.00  0.00     0.134 A 
HETATM    9  C   UNL     1      44.591 -20.739   4.204  1.00  0.00     0.032 A 
HETATM   10  N   UNL     1      44.323 -22.871   4.698  1.00  0.00    -0.262 N 
HETATM   11  H   UNL     1      44.180 -23.759   5.167  1.00  0.00     0.191 HD
HETATM   12  N   UNL     1      44.500 -22.893   3.380  1.00  0.00    -0.178 NA
HETATM   13  C   UNL     1      44.693 -21.613   3.059  1.00  0.00     0.062 A 
HETATM   14  C   UNL     1      44.978 -21.263   1.638  1.00  0.00     0.073 C 
HETATM   15  H   UNL     1      44.174 -22.216   7.224  1.00  0.00     0.170 HD
ENDROOT
BRANCH   1  16
HETATM   16  C   UNL     1      43.881 -18.598   3.193  1.00  0.00    -0.040 A 
HETATM   17  C   UNL     1      44.387 -18.061   1.993  1.00  0.00     0.009 A 
HETATM   18  C   UNL     1      43.546 -17.455   1.056  1.00  0.00     0.007 A 
HETATM   19  C   UNL     1      42.175 -17.350   1.299  1.00  0.00    -0.059 A 
HETATM   20  C   UNL     1      41.662 -17.861   2.496  1.00  0.00     0.007 A 
HETATM   21  C   UNL     1      42.502 -18.476   3.431  1.00  0.00     0.009 A 
BRANCH  19  22
HETATM   22  C   UNL     1      41.263 -16.716   0.279  1.00  0.00     0.034 C 
HETATM   23  C   UNL     1      40.713 -15.379   0.755  1.00  0.00     0.010 C 
ENDBRANCH  19  22
ENDBRANCH   1  16
TORSDOF 2
ENDMDL
MODEL 3
REMARK VINA RESULT:      -7.9      2.651      4.257
REMARK  2 active torsions:
REMARK  status: ('A' for Active; 'I' for Inactive)
REMARK    1  A    between atoms: C_2  and  C_3 
REMARK    2  A    between atoms: C_6  and  C_7 
ROOT
HETATM    1  C   UNL     1      42.097 -16.758   4.544  1.00  0.00     0.119 C 
HETATM    2  S   UNL     1      41.875 -17.082   6.307  1.00  0.00    -0.141 SA
HETATM    3  C   UNL     1      43.583 -16.894   6.887  1.00  0.00     0.136 C 
HETATM    4  C   UNL     1      43.788 -17.788   8.107  1.00  0.00     0.031 C 
HETATM    5  C   UNL     1      43.825 -15.445   7.232  1.00  0.00     0.236 C 
HETATM    6  O   UNL     1      44.139 -15.027   8.338  1.00  0.00    -0.272 OA
HETATM    7  N   UNL     1      43.809 -14.432   6.228  1.00  0.00    -0.311 N 
HETATM    8  C   UNL     1      43.507 -14.543   4.885  1.00  0.00     0.134 A 
HETATM    9  C   UNL     1      42.832 -15.511   4.155  1.00  0.00     0.032 A 
HETATM   10  N   UNL     1      43.836 -13.554   3.991  1.00  0.00    -0.262 N 
HETATM   11  H   UNL     1      44.318 -12.681   4.173  1.00  0.00     0.191 HD
HETATM   12  N   UNL     1      43.497 -13.819   2.732  1.00  0.00    -0.178 NA
HETATM   13  C   UNL     1      42.861 -14.990   2.809  1.00  0.00     0.062 A 
HETATM   14  C   UNL     1      42.289 -15.580   1.565  1.00  0.00     0.073 C 
HETATM   15  H   UNL     1      44.108 -13.531   6.591  1.00  0.00     0.170 HD
ENDROOT
BRANCH   1  16
HETATM   16  C   UNL     1      42.673 -17.950   3.791  1.00  0.00    -0.040 A 
HETATM   17  C   UNL     1      43.798 -18.597   4.339  1.00  0.00     0.009 A 
HETATM   18  C   UNL     1      44.369 -19.711   3.719  1.00  0.00     0.007 A 
HETATM   19  C   UNL     1      43.843 -20.203   2.523  1.00  0.00    -0.059 A 
HETATM   20  C   UNL     1      42.737 -19.559   1.958  1.00  0.00     0.007 A 
HETATM   21  C   UNL     1      42.160 -18.448   2.582  1.00  0.00     0.009 A 
BRANCH  19  22
HETATM   22  C   UNL     1      44.444 -21.420   1.865  1.00  0.00     0.034 C 
HETATM   23  C   UNL     1      44.649 -22.562   2.851  1.00  0.00     0.010 C 
ENDBRANCH  19  22
ENDBRANCH   1  16
TORSDOF 2
ENDMDL
MODEL 4
REMARK VINA RESULT:      -7.6      1.498      1.998
REMARK  2 active torsions:
REMARK  status: ('A' for Active; 'I' for Inactive)
REMARK    1  A    between atoms: C_2  and  C_3 
REMARK    2  A    between atoms: C_6  and  C_7 
ROOT
HETATM    1  C   UNL     1      42.265 -15.047   2.876  1.00  0.00     0.119 C 
HETATM    2  S   UNL     1      41.933 -14.036   1.417  1.00  0.00    -0.141 SA
HETATM    3  C   UNL     1      40.240 -14.565   1.037  1.00  0.00     0.136 C 
HETATM    4  C   UNL     1      40.014 -14.443  -0.468  1.00  0.00     0.031 C 
HETATM    5  C   UNL     1      39.273 -13.694   1.801  1.00  0.00     0.236 C 
HETATM    6  O   UNL     1      38.420 -12.977   1.296  1.00  0.00    -0.272 OA
HETATM    7  N   UNL     1      39.212 -13.730   3.226  1.00  0.00    -0.311 N 
HETATM    8  C   UNL     1      40.007 -14.427   4.114  1.00  0.00     0.134 A 
HETATM    9  C   UNL     1      41.258 -15.014   3.987  1.00  0.00     0.032 A 
HETATM   10  N   UNL     1      39.634 -14.608   5.422  1.00  0.00    -0.262 N 
HETATM   11  H   UNL     1      38.786 -14.292   5.881  1.00  0.00     0.191 HD
HETATM   12  N   UNL     1      40.496 -15.318   6.144  1.00  0.00    -0.178 NA
HETATM   13  C   UNL     1      41.504 -15.554   5.303  1.00  0.00     0.062 A 
HETATM   14  C   UNL     1      42.695 -16.301   5.799  1.00  0.00     0.073 C 
HETATM   15  H   UNL     1      38.434 -13.185   3.587  1.00  0.00     0.170 HD
ENDROOT
BRANCH   1  16
HETATM   16  C   UNL     1      42.603 -16.491   2.531  1.00  0.00    -0.040 A 
HETATM   17  C   UNL     1      43.951 -16.813   2.278  1.00  0.00     0.009 A 
HETATM   18  C   UNL     1      44.343 -18.119   1.978  1.00  0.00     0.007 A 
HETATM   19  C   UNL     1      43.396 -19.143   1.905  1.00  0.00    -0.059 A 
HETATM   20  C   UNL     1      42.051 -18.834   2.135  1.00  0.00     0.007 A 
HETATM   21  C   UNL     1      41.659 -17.527   2.443  1.00  0.00     0.009 A 
BRANCH  19  22
HETATM   22  C   UNL     1      43.820 -20.559   1.604  1.00  0.00     0.034 C 
HETATM   23  C   UNL     1      44.445 -21.238   2.814  1.00  0.00     0.010 C 
ENDBRANCH  19  22
ENDBRANCH   1  16
TORSDOF 2
ENDMDL
MODEL 5
REMARK VINA RESULT:      -7.5      3.771      6.631
REMARK  2 active torsions:
REMARK  status: ('A' for Active; 'I' for Inactive)
REMARK    1  A    between atoms: C_2  and  C_3 
REMARK    2  A    between atoms: C_6  and  C_7 
ROOT
HETATM    1  C   UNL     1      44.339 -17.534   4.792  1.00  0.00     0.119 C 
HETATM    2  S   UNL     1      45.036 -18.360   6.238  1.00  0.00    -0.141 SA
HETATM    3  C   UNL     1      43.855 -19.724   6.430  1.00  0.00     0.136 C 
HETATM    4  C   UNL     1      43.777 -20.101   7.907  1.00  0.00     0.031 C 
HETATM    5  C   UNL     1      44.319 -20.893   5.597  1.00  0.00     0.236 C 
HETATM    6  O   UNL     1      44.604 -22.000   6.034  1.00  0.00    -0.272 OA
HETATM    7  N   UNL     1      44.357 -20.819   4.173  1.00  0.00    -0.311 N 
HETATM    8  C   UNL     1      44.094 -19.742   3.350  1.00  0.00     0.134 A 
HETATM    9  C   UNL     1      44.043 -18.375   3.586  1.00  0.00     0.032 A 
HETATM   10  N   UNL     1      43.867 -19.903   2.006  1.00  0.00    -0.262 N 
HETATM   11  H   UNL     1      43.850 -20.766   1.473  1.00  0.00     0.191 HD
HETATM   12  N   UNL     1      43.606 -18.773   1.355  1.00  0.00    -0.178 NA
HETATM   13  C   UNL     1      43.734 -17.827   2.287  1.00  0.00     0.062 A 
HETATM   14  C   UNL     1      43.556 -16.400   1.893  1.00  0.00     0.073 C 
HETATM   15  H   UNL     1      44.572 -21.718   3.751  1.00  0.00     0.170 HD
ENDROOT
BRANCH   1  16
HETATM   16  C   UNL     1      43.127 -16.674   5.128  1.00  0.00    -0.040 A 
HETATM   17  C   UNL     1      43.335 -15.300   5.363  1.00  0.00     0.009 A 
HETATM   18  C   UNL     1      42.272 -14.443   5.654  1.00  0.00     0.007 A 
HETATM   19  C   UNL     1      40.968 -14.935   5.736  1.00  0.00    -0.059 A 
HETATM   20  C   UNL     1      40.749 -16.301   5.523  1.00  0.00     0.007 A 
HETATM   21  C   UNL     1      41.813 -17.159   5.224  1.00  0.00     0.009 A 
BRANCH  19  22
HETATM   22  C   UNL     1      39.815 -14.007   6.026  1.00  0.00     0.034 C 
HETATM   23  C   UNL     1      39.639 -12.956   4.939  1.00  0.00     0.010 C 
ENDBRANCH  19  22
ENDBRANCH   1  16
TORSDOF 2
ENDMDL
MODEL 6
REMARK VINA RESULT:      -7.4      3.037      4.559
REMARK  2 active torsions:
REMARK  status: ('A' for Active; 'I' for Inactive)
REMARK    1  A    between atoms: C_2  and  C_3 
REMARK    2  A    between atoms: C_6  and  C_7 
ROOT
HETATM    1  C   UNL     1      40.896 -15.134   2.120  1.00  0.00     0.119 C 
HETATM    2  S   UNL     1      40.405 -14.580   3.767  1.00  0.00    -0.141 SA
HETATM    3  C   UNL     1      41.880 -13.638   4.243  1.00  0.00     0.136 C 
HETATM    4  C   UNL     1      42.030 -13.696   5.761  1.00  0.00     0.031 C 
HETATM    5  C   UNL     1      41.725 -12.214   3.769  1.00  0.00     0.236 C 
HETATM    6  O   UNL     1      41.714 -11.228   4.493  1.00  0.00    -0.272 OA
HETATM    7  N   UNL     1      41.687 -11.896   2.379  1.00  0.00    -0.311 N 
HETATM    8  C   UNL     1      41.690 -12.747   1.292  1.00  0.00     0.134 A 
HETATM    9  C   UNL     1      41.403 -14.099   1.161  1.00  0.00     0.032 A 
HETATM   10  N   UNL     1      41.965 -12.294   0.026  1.00  0.00    -0.262 N 
HETATM   11  H   UNL     1      42.198 -11.350  -0.265  1.00  0.00     0.191 HD
HETATM   12  N   UNL     1      41.950 -13.239  -0.910  1.00  0.00    -0.178 NA
HETATM   13  C   UNL     1      41.584 -14.340  -0.251  1.00  0.00     0.062 A 
HETATM   14  C   UNL     1      41.413 -15.610  -1.011  1.00  0.00     0.073 C 
HETATM   15  H   UNL     1      41.703 -10.893   2.217  1.00  0.00     0.170 HD
ENDROOT
BRANCH   1  16
HETATM   16  C   UNL     1      41.857 -16.315   2.155  1.00  0.00    -0.040 A 
HETATM   17  C   UNL     1      41.315 -17.612   2.071  1.00  0.00     0.009 A 
HETATM   18  C   UNL     1      42.132 -18.745   2.073  1.00  0.00     0.007 A 
HETATM   19  C   UNL     1      43.519 -18.616   2.178  1.00  0.00    -0.059 A 
HETATM   20  C   UNL     1      44.070 -17.334   2.283  1.00  0.00     0.007 A 
HETATM   21  C   UNL     1      43.252 -16.199   2.272  1.00  0.00     0.009 A 
BRANCH  19  22
HETATM   22  C   UNL     1      44.405 -19.836   2.158  1.00  0.00     0.034 C 
HETATM   23  C   UNL     1      43.632 -21.099   1.807  1.00  0.00     0.010 C 
ENDBRANCH  19  22
ENDBRANCH   1  16
TORSDOF 2
ENDMDL
MODEL 7
REMARK VINA RESULT:      -7.4      3.066      5.158
REMARK  2 active torsions:
REMARK  status: ('A' for Active; 'I' for Inactive)
REMARK    1  A    between atoms: C_2  and  C_3 
REMARK    2  A    between atoms: C_6  and  C_7 
ROOT
HETATM    1  C   UNL     1      41.668 -16.482   3.431  1.00  0.00     0.119 C 
HETATM    2  S   UNL     1      40.258 -15.498   2.880  1.00  0.00    -0.141 SA
HETATM    3  C   UNL     1      41.106 -14.266   1.853  1.00  0.00     0.136 C 
HETATM    4  C   UNL     1      40.303 -12.968   1.881  1.00  0.00     0.031 C 
HETATM    5  C   UNL     1      41.222 -14.800   0.446  1.00  0.00     0.236 C 
HETATM    6  O   UNL     1      40.738 -14.276  -0.548  1.00  0.00    -0.272 OA
HETATM    7  N   UNL     1      42.026 -15.940   0.151  1.00  0.00    -0.311 N 
HETATM    8  C   UNL     1      42.719 -16.764   1.017  1.00  0.00     0.134 A 
HETATM    9  C   UNL     1      42.618 -16.981   2.383  1.00  0.00     0.032 A 
HETATM   10  N   UNL     1      43.692 -17.622   0.567  1.00  0.00    -0.262 N 
HETATM   11  H   UNL     1      44.021 -17.753  -0.383  1.00  0.00     0.191 HD
HETATM   12  N   UNL     1      44.282 -18.331   1.525  1.00  0.00    -0.178 NA
HETATM   13  C   UNL     1      43.628 -17.982   2.635  1.00  0.00     0.062 A 
HETATM   14  C   UNL     1      44.000 -18.632   3.924  1.00  0.00     0.073 C 
HETATM   15  H   UNL     1      42.103 -16.104  -0.848  1.00  0.00     0.170 HD
ENDROOT
BRANCH   1  16
HETATM   16  C   UNL     1      42.450 -15.818   4.557  1.00  0.00    -0.040 A 
HETATM   17  C   UNL     1      43.202 -14.666   4.252  1.00  0.00     0.009 A 
HETATM   18  C   UNL     1      43.925 -13.988   5.235  1.00  0.00     0.007 A 
HETATM   19  C   UNL     1      43.935 -14.451   6.552  1.00  0.00    -0.059 A 
HETATM   20  C   UNL     1      43.208 -15.605   6.866  1.00  0.00     0.007 A 
HETATM   21  C   UNL     1      42.476 -16.279   5.883  1.00  0.00     0.009 A 
BRANCH  19  22
HETATM   22  C   UNL     1      44.697 -13.707   7.620  1.00  0.00     0.034 C 
HETATM   23  C   UNL     1      46.044 -13.207   7.119  1.00  0.00     0.010 C 
ENDBRANCH  19  22
ENDBRANCH   1  16
TORSDOF 2
ENDMDL
MODEL 8
REMARK VINA RESULT:      -7.3      3.108      5.223
REMARK  2 active torsions:
REMARK  status: ('A' for Active; 'I' for Inactive)
REMARK    1  A    between atoms: C_2  and  C_3 
REMARK    2  A    between atoms: C_6  and  C_7 
ROOT
HETATM    1  C   UNL     1      41.706 -16.559   4.839  1.00  0.00     0.119 C 
HETATM    2  S   UNL     1      42.239 -18.213   5.330  1.00  0.00    -0.141 SA
HETATM    3  C   UNL     1      44.029 -18.062   5.080  1.00  0.00     0.136 C 
HETATM    4  C   UNL     1      44.592 -19.435   4.721  1.00  0.00     0.031 C 
HETATM    5  C   UNL     1      44.657 -17.535   6.347  1.00  0.00     0.236 C 
HETATM    6  O   UNL     1      45.501 -18.120   7.011  1.00  0.00    -0.272 OA
HETATM    7  N   UNL     1      44.378 -16.218   6.819  1.00  0.00    -0.311 N 
HETATM    8  C   UNL     1      43.494 -15.283   6.317  1.00  0.00     0.134 A 
HETATM    9  C   UNL     1      42.402 -15.389   5.468  1.00  0.00     0.032 A 
HETATM   10  N   UNL     1      43.562 -13.962   6.684  1.00  0.00    -0.262 N 
HETATM   11  H   UNL     1      44.224 -13.520   7.313  1.00  0.00     0.191 HD
HETATM   12  N   UNL     1      42.656 -13.184   6.098  1.00  0.00    -0.178 NA
HETATM   13  C   UNL     1      41.921 -14.031   5.376  1.00  0.00     0.062 A 
HETATM   14  C   UNL     1      40.758 -13.501   4.609  1.00  0.00     0.073 C 
HETATM   15  H   UNL     1      44.965 -15.964   7.608  1.00  0.00     0.170 HD
ENDROOT
BRANCH   1  16
HETATM   16  C   UNL     1      41.659 -16.377   3.327  1.00  0.00    -0.040 A 
HETATM   17  C   UNL     1      40.421 -16.551   2.678  1.00  0.00     0.009 A 
HETATM   18  C   UNL     1      40.294 -16.378   1.298  1.00  0.00     0.007 A 
HETATM   19  C   UNL     1      41.404 -16.043   0.520  1.00  0.00    -0.059 A 
HETATM   20  C   UNL     1      42.644 -15.885   1.150  1.00  0.00     0.007 A 
HETATM   21  C   UNL     1      42.771 -16.050   2.533  1.00  0.00     0.009 A 
BRANCH  19  22
HETATM   22  C   UNL     1      41.263 -15.833  -0.967  1.00  0.00     0.034 C 
HETATM   23  C   UNL     1      40.837 -14.411  -1.306  1.00  0.00     0.010 C 
ENDBRANCH  19  22
ENDBRANCH   1  16
TORSDOF 2
ENDMDL
MODEL 9
REMARK VINA RESULT:      -7.2      2.985      5.299
REMARK  2 active torsions:
REMARK  status: ('A' for Active; 'I' for Inactive)
REMARK    1  A    between atoms: C_2  and  C_3 
REMARK    2  A    between atoms: C_6  and  C_7 
ROOT
HETATM    1  C   UNL     1      41.632 -13.961   3.821  1.00  0.00     0.119 C 
HETATM    2  S   UNL     1      41.505 -12.276   4.456  1.00  0.00    -0.141 SA
HETATM    3  C   UNL     1      39.737 -12.216   4.859  1.00  0.00     0.136 C 
HETATM    4  C   UNL     1      39.249 -10.777   4.712  1.00  0.00     0.031 C 
HETATM    5  C   UNL     1      39.540 -12.712   6.271  1.00  0.00     0.236 C 
HETATM    6  O   UNL     1      39.060 -12.058   7.187  1.00  0.00    -0.272 OA
HETATM    7  N   UNL     1      39.812 -14.067   6.624  1.00  0.00    -0.311 N 
HETATM    8  C   UNL     1      40.346 -15.078   5.849  1.00  0.00     0.134 A 
HETATM    9  C   UNL     1      41.071 -15.066   4.666  1.00  0.00     0.032 A 
HETATM   10  N   UNL     1      40.258 -16.395   6.226  1.00  0.00    -0.262 N 
HETATM   11  H   UNL     1      39.814 -16.781   7.053  1.00  0.00     0.191 HD
HETATM   12  N   UNL     1      40.801 -17.249   5.364  1.00  0.00    -0.178 NA
HETATM   13  C   UNL     1      41.326 -16.466   4.421  1.00  0.00     0.062 A 
HETATM   14  C   UNL     1      42.073 -17.096   3.295  1.00  0.00     0.073 C 
HETATM   15  H   UNL     1      39.517 -14.280   7.572  1.00  0.00     0.170 HD
ENDROOT
BRANCH   1  16
HETATM   16  C   UNL     1      41.120 -14.096   2.393  1.00  0.00    -0.040 A 
HETATM   17  C   UNL     1      42.048 -13.962   1.342  1.00  0.00     0.009 A 
HETATM   18  C   UNL     1      41.659 -14.096   0.007  1.00  0.00     0.007 A 
HETATM   19  C   UNL     1      40.325 -14.350  -0.319  1.00  0.00    -0.059 A 
HETATM   20  C   UNL     1      39.389 -14.467   0.714  1.00  0.00     0.007 A 
HETATM   21  C   UNL     1      39.780 -14.341   2.052  1.00  0.00     0.009 A 
BRANCH  19  22
HETATM   22  C   UNL     1      39.908 -14.518  -1.759  1.00  0.00     0.034 C 
HETATM   23  C   UNL     1      40.832 -15.461  -2.517  1.00  0.00     0.010 C 
ENDBRANCH  19  22
ENDBRANCH   1  16
TORSDOF 2
ENDMDL
MODEL 10
REMARK VINA RESULT:      -7.2      3.397      6.187
REMARK  2 active torsions:
REMARK  status: ('A' for Active; 'I' for Inactive)
REMARK    1  A    between atoms: C_2  and  C_3 
REMARK    2  A    between atoms: C_6  and  C_7 
ROOT
HETATM    1  C   UNL     1      43.997 -16.931   4.065  1.00  0.00     0.119 C 
HETATM    2  S   UNL     1      44.393 -16.741   5.816  1.00  0.00    -0.141 SA
HETATM    3  C   UNL     1      43.164 -17.857   6.548  1.00  0.00     0.136 C 
HETATM    4  C   UNL     1      42.805 -17.346   7.940  1.00  0.00     0.031 C 
HETATM    5  C   UNL     1      43.745 -19.248   6.616  1.00  0.00     0.236 C 
HETATM    6  O   UNL     1      43.917 -19.890   7.643  1.00  0.00    -0.272 OA
HETATM    7  N   UNL     1      44.047 -19.982   5.431  1.00  0.00    -0.311 N 
HETATM    8  C   UNL     1      43.968 -19.579   4.113  1.00  0.00     0.134 A 
HETATM    9  C   UNL     1      43.908 -18.326   3.520  1.00  0.00     0.032 A 
HETATM   10  N   UNL     1      43.990 -20.485   3.082  1.00  0.00    -0.262 N 
HETATM   11  H   UNL     1      44.050 -21.496   3.138  1.00  0.00     0.191 HD
HETATM   12  N   UNL     1      43.882 -19.942   1.873  1.00  0.00    -0.178 NA
HETATM   13  C   UNL     1      43.859 -18.629   2.109  1.00  0.00     0.062 A 
HETATM   14  C   UNL     1      43.792 -17.691   0.953  1.00  0.00     0.073 C 
HETATM   15  H   UNL     1      44.314 -20.941   5.635  1.00  0.00     0.170 HD
ENDROOT
BRANCH   1  16
HETATM   16  C   UNL     1      42.766 -16.138   3.647  1.00  0.00    -0.040 A 
HETATM   17  C   UNL     1      42.957 -14.832   3.154  1.00  0.00     0.009 A 
HETATM   18  C   UNL     1      41.880 -14.050   2.729  1.00  0.00     0.007 A 
HETATM   19  C   UNL     1      40.575 -14.543   2.801  1.00  0.00    -0.059 A 
HETATM   20  C   UNL     1      40.369 -15.832   3.307  1.00  0.00     0.007 A 
HETATM   21  C   UNL     1      41.448 -16.618   3.725  1.00  0.00     0.009 A 
BRANCH  19  22
HETATM   22  C   UNL     1      39.414 -13.710   2.321  1.00  0.00     0.034 C 
HETATM   23  C   UNL     1      38.537 -14.465   1.333  1.00  0.00     0.010 C 
ENDBRANCH  19  22
ENDBRANCH   1  16
TORSDOF 2
ENDMDL
