MODEL 1
REMARK VINA RESULT:      -8.4      0.000      0.000
REMARK  6 active torsions:
REMARK  status: ('A' for Active; 'I' for Inactive)
REMARK    1  A    between atoms: C_2  and  C_3 
REMARK    2  A    between atoms: C_3  and  C_4 
REMARK    3  A    between atoms: C_7  and  C_8 
REMARK    4  A    between atoms: C_8  and  C_9 
REMARK       I    between atoms: C_9  and  N_10 
REMARK    5  A    between atoms: N_10  and  C_11 
REMARK    6  A    between atoms: C_18  and  C_19 
REMARK       I    between atoms: C_19  and  N_20 
ROOT
HETATM    1  C   UNL     1      42.823 -14.450   5.239  1.00  0.00     0.035 A 
HETATM    2  C   UNL     1      43.216 -15.410   4.297  1.00  0.00     0.046 A 
HETATM    3  C   UNL     1      42.237 -16.080   3.531  1.00  0.00     0.030 A 
HETATM    4  C   UNL     1      40.899 -15.768   3.733  1.00  0.00     0.063 A 
HETATM    5  N   UNL     1      40.206 -16.563   2.863  1.00  0.00    -0.277 N 
HETATM    6  H   UNL     1      39.201 -16.604   2.736  1.00  0.00     0.189 HD
HETATM    7  N   UNL     1      40.974 -17.367   2.110  1.00  0.00    -0.168 NA
HETATM    8  C   UNL     1      42.234 -17.079   2.510  1.00  0.00     0.156 A 
HETATM    9  C   UNL     1      40.469 -14.818   4.661  1.00  0.00     0.034 A 
HETATM   10  C   UNL     1      41.459 -14.166   5.406  1.00  0.00     0.032 A 
ENDROOT
BRANCH   1  11
HETATM   11  N   UNL     1      43.727 -13.717   6.039  1.00  0.00    -0.327 N 
HETATM   12  C   UNL     1      44.357 -14.133   7.199  1.00  0.00     0.226 C 
HETATM   13  O   UNL     1      44.200 -15.208   7.770  1.00  0.00    -0.273 OA
HETATM   14  H   UNL     1      43.896 -12.757   5.761  1.00  0.00     0.169 HD
BRANCH  12  15
HETATM   15  C   UNL     1      45.356 -13.117   7.732  1.00  0.00     0.141 C 
BRANCH  15  16
HETATM   16  C   UNL     1      44.847 -12.253   8.862  1.00  0.00    -0.049 A 
HETATM   17  C   UNL     1      45.613 -12.033  10.013  1.00  0.00     0.008 A 
HETATM   18  C   UNL     1      45.153 -11.184  11.023  1.00  0.00     0.007 A 
HETATM   19  C   UNL     1      43.929 -10.516  10.893  1.00  0.00    -0.058 A 
HETATM   20  C   UNL     1      43.166 -10.730   9.739  1.00  0.00     0.007 A 
HETATM   21  C   UNL     1      43.622 -11.586   8.732  1.00  0.00     0.008 A 
BRANCH  19  22
HETATM   22  C   UNL     1      43.446  -9.574  11.969  1.00  0.00     0.042 C 
BRANCH  22  23
HETATM   23  C   UNL     1      42.990 -10.223  13.294  1.00  0.00    -0.019 C 
HETATM   24  C   UNL     1      41.674 -10.990  13.160  1.00  0.00     0.010 C 
HETATM   25  C   UNL     1      42.911  -9.226  14.451  1.00  0.00     0.010 C 
ENDBRANCH  22  23
ENDBRANCH  19  22
ENDBRANCH  15  16
ENDBRANCH  12  15
ENDBRANCH   1  11
BRANCH   8  26
HETATM   26  C   UNL     1      43.394 -17.756   1.912  1.00  0.00     0.270 C 
HETATM   27  N   UNL     1      43.612 -17.436   0.599  1.00  0.00    -0.365 N 
HETATM   28  H   UNL     1      42.985 -16.779   0.150  1.00  0.00     0.159 HD
HETATM   29  H   UNL     1      44.387 -17.851   0.107  1.00  0.00     0.159 HD
HETATM   30  O   UNL     1      44.127 -18.542   2.502  1.00  0.00    -0.266 OA
ENDBRANCH   8  26
TORSDOF 6
ENDMDL
MODEL 2
REMARK VINA RESULT:      -8.3      6.214      8.919
REMARK  6 active torsions:
REMARK  status: ('A' for Active; 'I' for Inactive)
REMARK    1  A    between atoms: C_2  and  C_3 
REMARK    2  A    between atoms: C_3  and  C_4 
REMARK    3  A    between atoms: C_7  and  C_8 
REMARK    4  A    between atoms: C_8  and  C_9 
REMARK       I    between atoms: C_9  and  N_10 
REMARK    5  A    between atoms: N_10  and  C_11 
REMARK    6  A    between atoms: C_18  and  C_19 
REMARK       I    between atoms: C_19  and  N_20 
ROOT
HETATM    1  C   UNL     1      39.632 -14.872   1.152  1.00  0.00     0.035 A 
HETATM    2  C   UNL     1      40.325 -14.783  -0.063  1.00  0.00     0.046 A 
HETATM    3  C   UNL     1      39.712 -14.162  -1.174  1.00  0.00     0.030 A 
HETATM    4  C   UNL     1      38.427 -13.654  -1.033  1.00  0.00     0.063 A 
HETATM    5  N   UNL     1      38.110 -13.126  -2.253  1.00  0.00    -0.277 N 
HETATM    6  H   UNL     1      37.245 -12.669  -2.518  1.00  0.00     0.189 HD
HETATM    7  N   UNL     1      39.075 -13.244  -3.179  1.00  0.00    -0.168 NA
HETATM    8  C   UNL     1      40.074 -13.882  -2.527  1.00  0.00     0.156 A 
HETATM    9  C   UNL     1      37.706 -13.724   0.161  1.00  0.00     0.034 A 
HETATM   10  C   UNL     1      38.337 -14.342   1.248  1.00  0.00     0.032 A 
ENDROOT
BRANCH   1  11
HETATM   11  N   UNL     1      40.167 -15.458   2.320  1.00  0.00    -0.327 N 
HETATM   12  C   UNL     1      41.084 -14.904   3.198  1.00  0.00     0.226 C 
HETATM   13  O   UNL     1      41.636 -13.815   3.086  1.00  0.00    -0.273 OA
HETATM   14  H   UNL     1      39.888 -16.413   2.512  1.00  0.00     0.169 HD
BRANCH  12  15
HETATM   15  C   UNL     1      41.346 -15.779   4.415  1.00  0.00     0.141 C 
BRANCH  15  16
HETATM   16  C   UNL     1      42.313 -16.918   4.185  1.00  0.00    -0.049 A 
HETATM   17  C   UNL     1      42.501 -17.919   5.146  1.00  0.00     0.008 A 
HETATM   18  C   UNL     1      43.354 -18.996   4.894  1.00  0.00     0.007 A 
HETATM   19  C   UNL     1      44.018 -19.111   3.666  1.00  0.00    -0.058 A 
HETATM   20  C   UNL     1      43.825 -18.114   2.703  1.00  0.00     0.007 A 
HETATM   21  C   UNL     1      42.978 -17.032   2.957  1.00  0.00     0.008 A 
BRANCH  19  22
HETATM   22  C   UNL     1      44.914 -20.292   3.381  1.00  0.00     0.042 C 
BRANCH  22  23
HETATM   23  C   UNL     1      44.207 -21.626   3.056  1.00  0.00    -0.019 C 
HETATM   24  C   UNL     1      44.744 -22.800   3.877  1.00  0.00     0.010 C 
HETATM   25  C   UNL     1      44.227 -21.964   1.566  1.00  0.00     0.010 C 
ENDBRANCH  22  23
ENDBRANCH  19  22
ENDBRANCH  15  16
ENDBRANCH  12  15
ENDBRANCH   1  11
BRANCH   8  26
HETATM   26  C   UNL     1      41.340 -14.203  -3.203  1.00  0.00     0.270 C 
HETATM   27  N   UNL     1      42.185 -13.136  -3.342  1.00  0.00    -0.365 N 
HETATM   28  H   UNL     1      41.893 -12.236  -2.981  1.00  0.00     0.159 HD
HETATM   29  H   UNL     1      43.077 -13.262  -3.792  1.00  0.00     0.159 HD
HETATM   30  O   UNL     1      41.649 -15.314  -3.619  1.00  0.00    -0.266 OA
ENDBRANCH   8  26
TORSDOF 6
ENDMDL
MODEL 3
REMARK VINA RESULT:      -8.2      4.953      8.991
REMARK  6 active torsions:
REMARK  status: ('A' for Active; 'I' for Inactive)
REMARK    1  A    between atoms: C_2  and  C_3 
REMARK    2  A    between atoms: C_3  and  C_4 
REMARK    3  A    between atoms: C_7  and  C_8 
REMARK    4  A    between atoms: C_8  and  C_9 
REMARK       I    between atoms: C_9  and  N_10 
REMARK    5  A    between atoms: N_10  and  C_11 
REMARK    6  A    between atoms: C_18  and  C_19 
REMARK       I    between atoms: C_19  and  N_20 
ROOT
HETATM    1  C   UNL     1      39.566 -14.223   2.306  1.00  0.00     0.035 A 
HETATM    2  C   UNL     1      39.774 -13.735   3.603  1.00  0.00     0.046 A 
HETATM    3  C   UNL     1      39.211 -12.498   3.984  1.00  0.00     0.030 A 
HETATM    4  C   UNL     1      38.462 -11.788   3.054  1.00  0.00     0.063 A 
HETATM    5  N   UNL     1      38.058 -10.655   3.703  1.00  0.00    -0.277 N 
HETATM    6  H   UNL     1      37.491  -9.902   3.329  1.00  0.00     0.189 HD
HETATM    7  N   UNL     1      38.477 -10.561   4.974  1.00  0.00    -0.168 NA
HETATM    8  C   UNL     1      39.191 -11.694   5.165  1.00  0.00     0.156 A 
HETATM    9  C   UNL     1      38.233 -12.241   1.754  1.00  0.00     0.034 A 
HETATM   10  C   UNL     1      38.799 -13.473   1.402  1.00  0.00     0.032 A 
ENDROOT
BRANCH   1  11
HETATM   11  N   UNL     1      40.073 -15.455   1.839  1.00  0.00    -0.327 N 
HETATM   12  C   UNL     1      41.296 -15.691   1.233  1.00  0.00     0.226 C 
HETATM   13  O   UNL     1      42.143 -14.851   0.948  1.00  0.00    -0.273 OA
HETATM   14  H   UNL     1      39.450 -16.252   1.908  1.00  0.00     0.169 HD
BRANCH  12  15
HETATM   15  C   UNL     1      41.553 -17.166   0.965  1.00  0.00     0.141 C 
BRANCH  15  16
HETATM   16  C   UNL     1      42.464 -17.846   1.961  1.00  0.00    -0.049 A 
HETATM   17  C   UNL     1      42.410 -17.537   3.327  1.00  0.00     0.008 A 
HETATM   18  C   UNL     1      43.218 -18.217   4.242  1.00  0.00     0.007 A 
HETATM   19  C   UNL     1      44.077 -19.237   3.818  1.00  0.00    -0.058 A 
HETATM   20  C   UNL     1      44.126 -19.551   2.455  1.00  0.00     0.007 A 
HETATM   21  C   UNL     1      43.325 -18.867   1.537  1.00  0.00     0.008 A 
BRANCH  19  22
HETATM   22  C   UNL     1      44.926 -19.994   4.811  1.00  0.00     0.042 C 
BRANCH  22  23
HETATM   23  C   UNL     1      44.315 -21.290   5.387  1.00  0.00    -0.019 C 
HETATM   24  C   UNL     1      43.844 -21.135   6.834  1.00  0.00     0.010 C 
HETATM   25  C   UNL     1      45.243 -22.498   5.254  1.00  0.00     0.010 C 
ENDBRANCH  22  23
ENDBRANCH  19  22
ENDBRANCH  15  16
ENDBRANCH  12  15
ENDBRANCH   1  11
BRANCH   8  26
HETATM   26  C   UNL     1      39.829 -11.983   6.458  1.00  0.00     0.270 C 
HETATM   27  N   UNL     1      39.330 -13.089   7.091  1.00  0.00    -0.365 N 
HETATM   28  H   UNL     1      38.588 -13.612   6.642  1.00  0.00     0.159 HD
HETATM   29  H   UNL     1      39.708 -13.365   7.983  1.00  0.00     0.159 HD
HETATM   30  O   UNL     1      40.729 -11.319   6.958  1.00  0.00    -0.266 OA
ENDBRANCH   8  26
TORSDOF 6
ENDMDL
MODEL 4
REMARK VINA RESULT:      -8.1      6.578     10.018
REMARK  6 active torsions:
REMARK  status: ('A' for Active; 'I' for Inactive)
REMARK    1  A    between atoms: C_2  and  C_3 
REMARK    2  A    between atoms: C_3  and  C_4 
REMARK    3  A    between atoms: C_7  and  C_8 
REMARK    4  A    between atoms: C_8  and  C_9 
REMARK       I    between atoms: C_9  and  N_10 
REMARK    5  A    between atoms: N_10  and  C_11 
REMARK    6  A    between atoms: C_18  and  C_19 
REMARK       I    between atoms: C_19  and  N_20 
ROOT
HETATM    1  C   UNL     1      41.941 -17.557   3.076  1.00  0.00     0.035 A 
HETATM    2  C   UNL     1      42.371 -18.144   4.274  1.00  0.00     0.046 A 
HETATM    3  C   UNL     1      43.418 -19.091   4.252  1.00  0.00     0.030 A 
HETATM    4  C   UNL     1      43.998 -19.420   3.034  1.00  0.00     0.063 A 
HETATM    5  N   UNL     1      44.962 -20.344   3.328  1.00  0.00    -0.277 N 
HETATM    6  H   UNL     1      45.588 -20.806   2.679  1.00  0.00     0.189 HD
HETATM    7  N   UNL     1      45.064 -20.647   4.632  1.00  0.00    -0.168 NA
HETATM    8  C   UNL     1      44.116 -19.879   5.218  1.00  0.00     0.156 A 
HETATM    9  C   UNL     1      43.597 -18.856   1.821  1.00  0.00     0.034 A 
HETATM   10  C   UNL     1      42.559 -17.918   1.870  1.00  0.00     0.032 A 
ENDROOT
BRANCH   1  11
HETATM   11  N   UNL     1      40.915 -16.590   3.000  1.00  0.00    -0.327 N 
HETATM   12  C   UNL     1      41.004 -15.240   3.294  1.00  0.00     0.226 C 
HETATM   13  O   UNL     1      41.989 -14.650   3.727  1.00  0.00    -0.273 OA
HETATM   14  H   UNL     1      39.994 -16.931   2.750  1.00  0.00     0.169 HD
BRANCH  12  15
HETATM   15  C   UNL     1      39.724 -14.477   2.986  1.00  0.00     0.141 C 
BRANCH  15  16
HETATM   16  C   UNL     1      39.385 -14.367   1.518  1.00  0.00    -0.049 A 
HETATM   17  C   UNL     1      38.065 -14.180   1.087  1.00  0.00     0.008 A 
HETATM   18  C   UNL     1      37.776 -14.021  -0.271  1.00  0.00     0.007 A 
HETATM   19  C   UNL     1      38.801 -14.020  -1.226  1.00  0.00    -0.058 A 
HETATM   20  C   UNL     1      40.120 -14.199  -0.794  1.00  0.00     0.007 A 
HETATM   21  C   UNL     1      40.410 -14.366   0.562  1.00  0.00     0.008 A 
BRANCH  19  22
HETATM   22  C   UNL     1      38.492 -13.816  -2.689  1.00  0.00     0.042 C 
BRANCH  22  23
HETATM   23  C   UNL     1      37.759 -14.973  -3.403  1.00  0.00    -0.019 C 
HETATM   24  C   UNL     1      38.710 -15.905  -4.156  1.00  0.00     0.010 C 
HETATM   25  C   UNL     1      36.640 -14.492  -4.326  1.00  0.00     0.010 C 
ENDBRANCH  22  23
ENDBRANCH  19  22
ENDBRANCH  15  16
ENDBRANCH  12  15
ENDBRANCH   1  11
BRANCH   8  26
HETATM   26  C   UNL     1      43.902 -19.913   6.672  1.00  0.00     0.270 C 
HETATM   27  N   UNL     1      43.581 -21.151   7.160  1.00  0.00    -0.365 N 
HETATM   28  H   UNL     1      43.518 -21.927   6.512  1.00  0.00     0.159 HD
HETATM   29  H   UNL     1      43.418 -21.270   8.147  1.00  0.00     0.159 HD
HETATM   30  O   UNL     1      43.993 -18.943   7.416  1.00  0.00    -0.266 OA
ENDBRANCH   8  26
TORSDOF 6
ENDMDL
MODEL 5
REMARK VINA RESULT:      -8.1      2.297      2.579
REMARK  6 active torsions:
REMARK  status: ('A' for Active; 'I' for Inactive)
REMARK    1  A    between atoms: C_2  and  C_3 
REMARK    2  A    between atoms: C_3  and  C_4 
REMARK    3  A    between atoms: C_7  and  C_8 
REMARK    4  A    between atoms: C_8  and  C_9 
REMARK       I    between atoms: C_9  and  N_10 
REMARK    5  A    between atoms: N_10  and  C_11 
REMARK    6  A    between atoms: C_18  and  C_19 
REMARK       I    between atoms: C_19  and  N_20 
ROOT
HETATM    1  C   UNL     1      43.796 -14.661   6.880  1.00  0.00     0.035 A 
HETATM    2  C   UNL     1      43.934 -16.055   6.895  1.00  0.00     0.046 A 
HETATM    3  C   UNL     1      43.190 -16.841   5.988  1.00  0.00     0.030 A 
HETATM    4  C   UNL     1      42.332 -16.207   5.099  1.00  0.00     0.063 A 
HETATM    5  N   UNL     1      41.763 -17.210   4.365  1.00  0.00    -0.277 N 
HETATM    6  H   UNL     1      41.084 -17.116   3.619  1.00  0.00     0.189 HD
HETATM    7  N   UNL     1      42.173 -18.444   4.696  1.00  0.00    -0.168 NA
HETATM    8  C   UNL     1      43.058 -18.234   5.699  1.00  0.00     0.156 A 
HETATM    9  C   UNL     1      42.169 -14.821   5.053  1.00  0.00     0.034 A 
HETATM   10  C   UNL     1      42.921 -14.064   5.961  1.00  0.00     0.032 A 
ENDROOT
BRANCH   1  11
HETATM   11  N   UNL     1      44.510 -13.791   7.734  1.00  0.00    -0.327 N 
HETATM   12  C   UNL     1      45.678 -13.102   7.454  1.00  0.00     0.226 C 
HETATM   13  O   UNL     1      46.332 -13.166   6.418  1.00  0.00    -0.273 OA
HETATM   14  H   UNL     1      44.155 -13.700   8.679  1.00  0.00     0.169 HD
BRANCH  12  15
HETATM   15  C   UNL     1      46.101 -12.166   8.576  1.00  0.00     0.141 C 
BRANCH  15  16
HETATM   16  C   UNL     1      45.030 -11.874   9.601  1.00  0.00    -0.049 A 
HETATM   17  C   UNL     1      45.030 -12.503  10.853  1.00  0.00     0.008 A 
HETATM   18  C   UNL     1      44.067 -12.178  11.812  1.00  0.00     0.007 A 
HETATM   19  C   UNL     1      43.098 -11.201  11.551  1.00  0.00    -0.058 A 
HETATM   20  C   UNL     1      43.103 -10.567  10.303  1.00  0.00     0.007 A 
HETATM   21  C   UNL     1      44.061 -10.897   9.340  1.00  0.00     0.008 A 
BRANCH  19  22
HETATM   22  C   UNL     1      42.078 -10.827  12.599  1.00  0.00     0.042 C 
BRANCH  22  23
HETATM   23  C   UNL     1      42.606 -10.043  13.820  1.00  0.00    -0.019 C 
HETATM   24  C   UNL     1      41.628 -10.045  14.997  1.00  0.00     0.010 C 
HETATM   25  C   UNL     1      43.024  -8.614  13.477  1.00  0.00     0.010 C 
ENDBRANCH  22  23
ENDBRANCH  19  22
ENDBRANCH  15  16
ENDBRANCH  12  15
ENDBRANCH   1  11
BRANCH   8  26
HETATM   26  C   UNL     1      43.751 -19.355   6.349  1.00  0.00     0.270 C 
HETATM   27  N   UNL     1      44.534 -20.093   5.503  1.00  0.00    -0.365 N 
HETATM   28  H   UNL     1      44.581 -19.825   4.527  1.00  0.00     0.159 HD
HETATM   29  H   UNL     1      45.049 -20.881   5.861  1.00  0.00     0.159 HD
HETATM   30  O   UNL     1      43.664 -19.638   7.538  1.00  0.00    -0.266 OA
ENDBRANCH   8  26
TORSDOF 6
ENDMDL
MODEL 6
REMARK VINA RESULT:      -7.9      3.158      9.893
REMARK  6 active torsions:
REMARK  status: ('A' for Active; 'I' for Inactive)
REMARK    1  A    between atoms: C_2  and  C_3 
REMARK    2  A    between atoms: C_3  and  C_4 
REMARK    3  A    between atoms: C_7  and  C_8 
REMARK    4  A    between atoms: C_8  and  C_9 
REMARK       I    between atoms: C_9  and  N_10 
REMARK    5  A    between atoms: N_10  and  C_11 
REMARK    6  A    between atoms: C_18  and  C_19 
REMARK       I    between atoms: C_19  and  N_20 
ROOT
HETATM    1  C   UNL     1      44.169 -13.868   7.188  1.00  0.00     0.035 A 
HETATM    2  C   UNL     1      43.819 -13.033   8.258  1.00  0.00     0.046 A 
HETATM    3  C   UNL     1      44.771 -12.131   8.782  1.00  0.00     0.030 A 
HETATM    4  C   UNL     1      46.041 -12.097   8.221  1.00  0.00     0.063 A 
HETATM    5  N   UNL     1      46.724 -11.146   8.927  1.00  0.00    -0.277 N 
HETATM    6  H   UNL     1      47.684 -10.852   8.791  1.00  0.00     0.189 HD
HETATM    7  N   UNL     1      46.012 -10.555   9.899  1.00  0.00    -0.168 NA
HETATM    8  C   UNL     1      44.800 -11.153   9.823  1.00  0.00     0.156 A 
HETATM    9  C   UNL     1      46.426 -12.912   7.155  1.00  0.00     0.034 A 
HETATM   10  C   UNL     1      45.463 -13.795   6.652  1.00  0.00     0.032 A 
ENDROOT
BRANCH   1  11
HETATM   11  N   UNL     1      43.283 -14.787   6.586  1.00  0.00    -0.327 N 
HETATM   12  C   UNL     1      42.525 -14.604   5.442  1.00  0.00     0.226 C 
HETATM   13  O   UNL     1      42.452 -13.580   4.771  1.00  0.00    -0.273 OA
HETATM   14  H   UNL     1      43.145 -15.664   7.075  1.00  0.00     0.169 HD
BRANCH  12  15
HETATM   15  C   UNL     1      41.769 -15.855   5.021  1.00  0.00     0.141 C 
BRANCH  15  16
HETATM   16  C   UNL     1      42.636 -16.986   4.520  1.00  0.00    -0.049 A 
HETATM   17  C   UNL     1      42.860 -18.132   5.294  1.00  0.00     0.008 A 
HETATM   18  C   UNL     1      43.616 -19.194   4.792  1.00  0.00     0.007 A 
HETATM   19  C   UNL     1      44.145 -19.146   3.496  1.00  0.00    -0.058 A 
HETATM   20  C   UNL     1      43.915 -18.004   2.719  1.00  0.00     0.007 A 
HETATM   21  C   UNL     1      43.166 -16.938   3.223  1.00  0.00     0.008 A 
BRANCH  19  22
HETATM   22  C   UNL     1      44.934 -20.306   2.941  1.00  0.00     0.042 C 
BRANCH  22  23
HETATM   23  C   UNL     1      44.160 -21.627   2.737  1.00  0.00    -0.019 C 
HETATM   24  C   UNL     1      44.702 -22.773   3.593  1.00  0.00     0.010 C 
HETATM   25  C   UNL     1      44.076 -22.050   1.271  1.00  0.00     0.010 C 
ENDBRANCH  22  23
ENDBRANCH  19  22
ENDBRANCH  15  16
ENDBRANCH  12  15
ENDBRANCH   1  11
BRANCH   8  26
HETATM   26  C   UNL     1      43.708 -10.778  10.733  1.00  0.00     0.270 C 
HETATM   27  N   UNL     1      43.278 -11.797  11.539  1.00  0.00    -0.365 N 
HETATM   28  H   UNL     1      43.726 -12.702  11.457  1.00  0.00     0.159 HD
HETATM   29  H   UNL     1      42.534 -11.632  12.196  1.00  0.00     0.159 HD
HETATM   30  O   UNL     1      43.201  -9.664  10.796  1.00  0.00    -0.266 OA
ENDBRANCH   8  26
TORSDOF 6
ENDMDL
MODEL 7
REMARK VINA RESULT:      -7.9      4.255      9.578
REMARK  6 active torsions:
REMARK  status: ('A' for Active; 'I' for Inactive)
REMARK    1  A    between atoms: C_2  and  C_3 
REMARK    2  A    between atoms: C_3  and  C_4 
REMARK    3  A    between atoms: C_7  and  C_8 
REMARK    4  A    between atoms: C_8  and  C_9 
REMARK       I    between atoms: C_9  and  N_10 
REMARK    5  A    between atoms: N_10  and  C_11 
REMARK    6  A    between atoms: C_18  and  C_19 
REMARK       I    between atoms: C_19  and  N_20 
ROOT
HETATM    1  C   UNL     1      39.754 -13.537   5.465  1.00  0.00     0.035 A 
HETATM    2  C   UNL     1      39.752 -12.762   6.633  1.00  0.00     0.046 A 
HETATM    3  C   UNL     1      39.508 -11.373   6.550  1.00  0.00     0.030 A 
HETATM    4  C   UNL     1      39.277 -10.807   5.304  1.00  0.00     0.063 A 
HETATM    5  N   UNL     1      39.079  -9.475   5.541  1.00  0.00    -0.277 N 
HETATM    6  H   UNL     1      38.882  -8.752   4.858  1.00  0.00     0.189 HD
HETATM    7  N   UNL     1      39.158  -9.122   6.833  1.00  0.00    -0.168 NA
HETATM    8  C   UNL     1      39.423 -10.285   7.472  1.00  0.00     0.156 A 
HETATM    9  C   UNL     1      39.271 -11.546   4.119  1.00  0.00     0.034 A 
HETATM   10  C   UNL     1      39.513 -12.921   4.229  1.00  0.00     0.032 A 
ENDROOT
BRANCH   1  11
HETATM   11  N   UNL     1      39.970 -14.932   5.449  1.00  0.00    -0.327 N 
HETATM   12  C   UNL     1      41.171 -15.603   5.612  1.00  0.00     0.226 C 
HETATM   13  O   UNL     1      42.278 -15.094   5.751  1.00  0.00    -0.273 OA
HETATM   14  H   UNL     1      39.163 -15.509   5.244  1.00  0.00     0.169 HD
BRANCH  12  15
HETATM   15  C   UNL     1      41.008 -17.115   5.651  1.00  0.00     0.141 C 
BRANCH  15  16
HETATM   16  C   UNL     1      42.085 -17.892   4.931  1.00  0.00    -0.049 A 
HETATM   17  C   UNL     1      43.001 -18.688   5.630  1.00  0.00     0.008 A 
HETATM   18  C   UNL     1      43.953 -19.446   4.944  1.00  0.00     0.007 A 
HETATM   19  C   UNL     1      43.995 -19.446   3.544  1.00  0.00    -0.058 A 
HETATM   20  C   UNL     1      43.075 -18.656   2.845  1.00  0.00     0.007 A 
HETATM   21  C   UNL     1      42.127 -17.891   3.530  1.00  0.00     0.008 A 
BRANCH  19  22
HETATM   22  C   UNL     1      45.003 -20.290   2.803  1.00  0.00     0.042 C 
BRANCH  22  23
HETATM   23  C   UNL     1      44.560 -21.725   2.440  1.00  0.00    -0.019 C 
HETATM   24  C   UNL     1      43.205 -21.769   1.732  1.00  0.00     0.010 C 
HETATM   25  C   UNL     1      44.567 -22.672   3.640  1.00  0.00     0.010 C 
ENDBRANCH  22  23
ENDBRANCH  19  22
ENDBRANCH  15  16
ENDBRANCH  12  15
ENDBRANCH   1  11
BRANCH   8  26
HETATM   26  C   UNL     1      39.583 -10.331   8.933  1.00  0.00     0.270 C 
HETATM   27  N   UNL     1      38.448 -10.692   9.607  1.00  0.00    -0.365 N 
HETATM   28  H   UNL     1      37.611 -10.897   9.075  1.00  0.00     0.159 HD
HETATM   29  H   UNL     1      38.464 -10.752  10.613  1.00  0.00     0.159 HD
HETATM   30  O   UNL     1      40.622 -10.078   9.532  1.00  0.00    -0.266 OA
ENDBRANCH   8  26
TORSDOF 6
ENDMDL
MODEL 8
REMARK VINA RESULT:      -7.8      2.055      2.646
REMARK  6 active torsions:
REMARK  status: ('A' for Active; 'I' for Inactive)
REMARK    1  A    between atoms: C_2  and  C_3 
REMARK    2  A    between atoms: C_3  and  C_4 
REMARK    3  A    between atoms: C_7  and  C_8 
REMARK    4  A    between atoms: C_8  and  C_9 
REMARK       I    between atoms: C_9  and  N_10 
REMARK    5  A    between atoms: N_10  and  C_11 
REMARK    6  A    between atoms: C_18  and  C_19 
REMARK       I    between atoms: C_19  and  N_20 
ROOT
HETATM    1  C   UNL     1      43.743 -15.061   7.019  1.00  0.00     0.035 A 
HETATM    2  C   UNL     1      42.905 -14.747   5.941  1.00  0.00     0.046 A 
HETATM    3  C   UNL     1      42.285 -15.785   5.212  1.00  0.00     0.030 A 
HETATM    4  C   UNL     1      42.526 -17.101   5.584  1.00  0.00     0.063 A 
HETATM    5  N   UNL     1      41.802 -17.864   4.710  1.00  0.00    -0.277 N 
HETATM    6  H   UNL     1      41.740 -18.875   4.683  1.00  0.00     0.189 HD
HETATM    7  N   UNL     1      41.109 -17.162   3.799  1.00  0.00    -0.168 NA
HETATM    8  C   UNL     1      41.396 -15.873   4.097  1.00  0.00     0.156 A 
HETATM    9  C   UNL     1      43.354 -17.453   6.652  1.00  0.00     0.034 A 
HETATM   10  C   UNL     1      43.954 -16.404   7.361  1.00  0.00     0.032 A 
ENDROOT
BRANCH   1  11
HETATM   11  N   UNL     1      44.392 -14.093   7.817  1.00  0.00    -0.327 N 
HETATM   12  C   UNL     1      45.467 -13.293   7.467  1.00  0.00     0.226 C 
HETATM   13  O   UNL     1      46.083 -13.321   6.407  1.00  0.00    -0.273 OA
HETATM   14  H   UNL     1      44.068 -14.009   8.774  1.00  0.00     0.169 HD
BRANCH  12  15
HETATM   15  C   UNL     1      45.832 -12.281   8.543  1.00  0.00     0.141 C 
BRANCH  15  16
HETATM   16  C   UNL     1      44.750 -12.020   9.566  1.00  0.00    -0.049 A 
HETATM   17  C   UNL     1      44.829 -12.548  10.861  1.00  0.00     0.008 A 
HETATM   18  C   UNL     1      43.851 -12.248  11.812  1.00  0.00     0.007 A 
HETATM   19  C   UNL     1      42.786 -11.394  11.499  1.00  0.00    -0.058 A 
HETATM   20  C   UNL     1      42.711 -10.861  10.207  1.00  0.00     0.007 A 
HETATM   21  C   UNL     1      43.684 -11.166   9.252  1.00  0.00     0.008 A 
BRANCH  19  22
HETATM   22  C   UNL     1      41.747 -11.045  12.536  1.00  0.00     0.042 C 
BRANCH  22  23
HETATM   23  C   UNL     1      42.060  -9.831  13.438  1.00  0.00    -0.019 C 
HETATM   24  C   UNL     1      43.524  -9.394  13.362  1.00  0.00     0.010 C 
HETATM   25  C   UNL     1      41.641 -10.044  14.893  1.00  0.00     0.010 C 
ENDBRANCH  22  23
ENDBRANCH  19  22
ENDBRANCH  15  16
ENDBRANCH  12  15
ENDBRANCH   1  11
BRANCH   8  26
HETATM   26  C   UNL     1      40.819 -14.767   3.320  1.00  0.00     0.270 C 
HETATM   27  N   UNL     1      41.740 -14.037   2.619  1.00  0.00    -0.365 N 
HETATM   28  H   UNL     1      42.716 -14.301   2.679  1.00  0.00     0.159 HD
HETATM   29  H   UNL     1      41.435 -13.259   2.056  1.00  0.00     0.159 HD
HETATM   30  O   UNL     1      39.626 -14.489   3.276  1.00  0.00    -0.266 OA
ENDBRANCH   8  26
TORSDOF 6
ENDMDL
MODEL 9
REMARK VINA RESULT:      -7.7      6.737      9.334
REMARK  6 active torsions:
REMARK  status: ('A' for Active; 'I' for Inactive)
REMARK    1  A    between atoms: C_2  and  C_3 
REMARK    2  A    between atoms: C_3  and  C_4 
REMARK    3  A    between atoms: C_7  and  C_8 
REMARK    4  A    between atoms: C_8  and  C_9 
REMARK       I    between atoms: C_9  and  N_10 
REMARK    5  A    between atoms: N_10  and  C_11 
REMARK    6  A    between atoms: C_18  and  C_19 
REMARK       I    between atoms: C_19  and  N_20 
ROOT
HETATM    1  C   UNL     1      43.039 -17.245   1.584  1.00  0.00     0.035 A 
HETATM    2  C   UNL     1      43.378 -18.603   1.662  1.00  0.00     0.046 A 
HETATM    3  C   UNL     1      43.887 -19.128   2.870  1.00  0.00     0.030 A 
HETATM    4  C   UNL     1      44.043 -18.278   3.957  1.00  0.00     0.063 A 
HETATM    5  N   UNL     1      44.545 -19.059   4.960  1.00  0.00    -0.277 N 
HETATM    6  H   UNL     1      44.783 -18.771   5.902  1.00  0.00     0.189 HD
HETATM    7  N   UNL     1      44.731 -20.345   4.624  1.00  0.00    -0.168 NA
HETATM    8  C   UNL     1      44.327 -20.405   3.334  1.00  0.00     0.156 A 
HETATM    9  C   UNL     1      43.716 -16.921   3.917  1.00  0.00     0.034 A 
HETATM   10  C   UNL     1      43.210 -16.426   2.708  1.00  0.00     0.032 A 
ENDROOT
BRANCH   1  11
HETATM   11  N   UNL     1      42.507 -16.634   0.427  1.00  0.00    -0.327 N 
HETATM   12  C   UNL     1      41.287 -15.992   0.296  1.00  0.00     0.226 C 
HETATM   13  O   UNL     1      40.422 -15.885   1.159  1.00  0.00    -0.273 OA
HETATM   14  H   UNL     1      43.059 -16.718  -0.419  1.00  0.00     0.169 HD
BRANCH  12  15
HETATM   15  C   UNL     1      41.096 -15.350  -1.070  1.00  0.00     0.141 C 
BRANCH  15  16
HETATM   16  C   UNL     1      41.672 -13.960  -1.207  1.00  0.00    -0.049 A 
HETATM   17  C   UNL     1      41.768 -13.098  -0.107  1.00  0.00     0.008 A 
HETATM   18  C   UNL     1      42.357 -11.838  -0.239  1.00  0.00     0.007 A 
HETATM   19  C   UNL     1      42.886 -11.421  -1.467  1.00  0.00    -0.058 A 
HETATM   20  C   UNL     1      42.797 -12.285  -2.565  1.00  0.00     0.007 A 
HETATM   21  C   UNL     1      42.201 -13.542  -2.436  1.00  0.00     0.008 A 
BRANCH  19  22
HETATM   22  C   UNL     1      43.552 -10.073  -1.602  1.00  0.00     0.042 C 
BRANCH  22  23
HETATM   23  C   UNL     1      42.635  -8.892  -1.988  1.00  0.00    -0.019 C 
HETATM   24  C   UNL     1      42.356  -8.821  -3.490  1.00  0.00     0.010 C 
HETATM   25  C   UNL     1      43.148  -7.546  -1.476  1.00  0.00     0.010 C 
ENDBRANCH  22  23
ENDBRANCH  19  22
ENDBRANCH  15  16
ENDBRANCH  12  15
ENDBRANCH   1  11
BRANCH   8  26
HETATM   26  C   UNL     1      44.368 -21.668   2.582  1.00  0.00     0.270 C 
HETATM   27  N   UNL     1      44.668 -22.763   3.346  1.00  0.00    -0.365 N 
HETATM   28  H   UNL     1      44.832 -22.633   4.337  1.00  0.00     0.159 HD
HETATM   29  H   UNL     1      44.717 -23.672   2.916  1.00  0.00     0.159 HD
HETATM   30  O   UNL     1      44.158 -21.774   1.379  1.00  0.00    -0.266 OA
ENDBRANCH   8  26
TORSDOF 6
ENDMDL
MODEL 10
REMARK VINA RESULT:      -7.6      7.023     10.085
REMARK  6 active torsions:
REMARK  status: ('A' for Active; 'I' for Inactive)
REMARK    1  A    between atoms: C_2  and  C_3 
REMARK    2  A    between atoms: C_3  and  C_4 
REMARK    3  A    between atoms: C_7  and  C_8 
REMARK    4  A    between atoms: C_8  and  C_9 
REMARK       I    between atoms: C_9  and  N_10 
REMARK    5  A    between atoms: N_10  and  C_11 
REMARK    6  A    between atoms: C_18  and  C_19 
REMARK       I    between atoms: C_19  and  N_20 
ROOT
HETATM    1  C   UNL     1      40.601 -14.673  -1.317  1.00  0.00     0.035 A 
HETATM    2  C   UNL     1      39.601 -13.700  -1.448  1.00  0.00     0.046 A 
HETATM    3  C   UNL     1      38.702 -13.763  -2.535  1.00  0.00     0.030 A 
HETATM    4  C   UNL     1      38.834 -14.795  -3.455  1.00  0.00     0.063 A 
HETATM    5  N   UNL     1      37.842 -14.593  -4.373  1.00  0.00    -0.277 N 
HETATM    6  H   UNL     1      37.638 -15.157  -5.190  1.00  0.00     0.189 HD
HETATM    7  N   UNL     1      37.073 -13.519  -4.135  1.00  0.00    -0.168 NA
HETATM    8  C   UNL     1      37.591 -12.995  -3.000  1.00  0.00     0.156 A 
HETATM    9  C   UNL     1      39.817 -15.783  -3.357  1.00  0.00     0.034 A 
HETATM   10  C   UNL     1      40.694 -15.699  -2.268  1.00  0.00     0.032 A 
ENDROOT
BRANCH   1  11
HETATM   11  N   UNL     1      41.533 -14.704  -0.256  1.00  0.00    -0.327 N 
HETATM   12  C   UNL     1      41.334 -15.177   1.030  1.00  0.00     0.226 C 
HETATM   13  O   UNL     1      40.285 -15.613   1.493  1.00  0.00    -0.273 OA
HETATM   14  H   UNL     1      42.437 -14.284  -0.441  1.00  0.00     0.169 HD
BRANCH  12  15
HETATM   15  C   UNL     1      42.599 -15.159   1.874  1.00  0.00     0.141 C 
BRANCH  15  16
HETATM   16  C   UNL     1      43.158 -16.520   2.217  1.00  0.00    -0.049 A 
HETATM   17  C   UNL     1      43.596 -17.400   1.219  1.00  0.00     0.008 A 
HETATM   18  C   UNL     1      44.164 -18.631   1.557  1.00  0.00     0.007 A 
HETATM   19  C   UNL     1      44.330 -18.999   2.898  1.00  0.00    -0.058 A 
HETATM   20  C   UNL     1      43.899 -18.117   3.895  1.00  0.00     0.007 A 
HETATM   21  C   UNL     1      43.323 -16.888   3.559  1.00  0.00     0.008 A 
BRANCH  19  22
HETATM   22  C   UNL     1      44.974 -20.315   3.263  1.00  0.00     0.042 C 
BRANCH  22  23
HETATM   23  C   UNL     1      44.145 -21.586   2.975  1.00  0.00    -0.019 C 
HETATM   24  C   UNL     1      44.573 -22.782   3.828  1.00  0.00     0.010 C 
HETATM   25  C   UNL     1      44.129 -21.966   1.494  1.00  0.00     0.010 C 
ENDBRANCH  22  23
ENDBRANCH  19  22
ENDBRANCH  15  16
ENDBRANCH  12  15
ENDBRANCH   1  11
BRANCH   8  26
HETATM   26  C   UNL     1      37.017 -11.787  -2.390  1.00  0.00     0.270 C 
HETATM   27  N   UNL     1      37.170 -10.654  -3.143  1.00  0.00    -0.365 N 
HETATM   28  H   UNL     1      37.647 -10.725  -4.034  1.00  0.00     0.159 HD
HETATM   29  H   UNL     1      36.807  -9.778  -2.804  1.00  0.00     0.159 HD
HETATM   30  O   UNL     1      36.445 -11.754  -1.306  1.00  0.00    -0.266 OA
ENDBRANCH   8  26
TORSDOF 6
ENDMDL
