MODEL 1
REMARK VINA RESULT:      -7.4      0.000      0.000
REMARK  11 active torsions:
REMARK  status: ('A' for Active; 'I' for Inactive)
REMARK    1  A    between atoms: O_1  and  C_2 
REMARK    2  A    between atoms: C_2  and  C_3 
REMARK    3  A    between atoms: C_3  and  O_4 
REMARK    4  A    between atoms: O_4  and  C_5 
REMARK    5  A    between atoms: C_7  and  C_25 
REMARK    6  A    between atoms: C_10  and  N_11 
REMARK       I    between atoms: N_11  and  C_12 
REMARK       I    between atoms: C_12  and  N_14 
REMARK    7  A    between atoms: N_14  and  C_15 
REMARK    8  A    between atoms: N_14  and  C_18 
REMARK    9  A    between atoms: C_15  and  C_16 
REMARK   10  A    between atoms: C_16  and  O_17 
REMARK   11  A    between atoms: C_18  and  C_19 
ROOT
HETATM    1  C   UNL     1      39.712 -13.861   0.028  1.00  0.00     0.096 A 
HETATM    2  C   UNL     1      38.795 -13.642  -1.008  1.00  0.00     0.051 A 
HETATM    3  C   UNL     1      38.941 -14.289  -2.245  1.00  0.00    -0.020 A 
HETATM    4  C   UNL     1      40.039 -15.131  -2.451  1.00  0.00     0.015 A 
HETATM    5  C   UNL     1      40.954 -15.363  -1.423  1.00  0.00     0.033 A 
HETATM    6  C   UNL     1      40.760 -14.779  -0.167  1.00  0.00     0.069 A 
ENDROOT
BRANCH   6   7
HETATM    7  N   UNL     1      41.651 -15.148   0.869  1.00  0.00    -0.306 N 
HETATM    8  C   UNL     1      41.255 -16.047   1.847  1.00  0.00     0.323 C 
HETATM    9  O   UNL     1      40.157 -16.599   1.873  1.00  0.00    -0.247 OA
HETATM   10  N   UNL     1      42.258 -16.372   2.760  1.00  0.00    -0.328 N 
HETATM   11  H   UNL     1      42.610 -15.308   0.578  1.00  0.00     0.171 HD
BRANCH  10  12
HETATM   12  C   UNL     1      43.500 -15.604   2.924  1.00  0.00     0.153 C 
BRANCH  12  13
HETATM   13  C   UNL     1      43.381 -14.525   4.003  1.00  0.00     0.184 C 
BRANCH  13  14
HETATM   14  O   UNL     1      44.041 -13.326   3.592  1.00  0.00    -0.399 OA
HETATM   15  H   UNL     1      43.337 -12.654   3.499  1.00  0.00     0.209 HD
ENDBRANCH  13  14
ENDBRANCH  12  13
ENDBRANCH  10  12
BRANCH  10  16
HETATM   16  C   UNL     1      42.073 -17.562   3.588  1.00  0.00     0.166 C 
BRANCH  16  17
HETATM   17  C   UNL     1      43.019 -18.705   3.304  1.00  0.00    -0.040 A 
HETATM   18  C   UNL     1      43.948 -19.156   4.250  1.00  0.00     0.009 A 
HETATM   19  C   UNL     1      44.758 -20.262   3.981  1.00  0.00     0.001 A 
HETATM   20  C   UNL     1      44.635 -20.942   2.770  1.00  0.00     0.000 A 
HETATM   21  C   UNL     1      43.701 -20.518   1.828  1.00  0.00     0.001 A 
HETATM   22  C   UNL     1      42.896 -19.409   2.094  1.00  0.00     0.009 A 
ENDBRANCH  16  17
ENDBRANCH  10  16
ENDBRANCH   6   7
BRANCH   1  23
HETATM   23  O   UNL     1      39.675 -13.204   1.233  1.00  0.00    -0.347 OA
BRANCH  23  24
HETATM   24  C   UNL     1      40.098 -11.841   1.232  1.00  0.00     0.201 C 
BRANCH  24  25
HETATM   25  C   UNL     1      41.304 -11.708   2.153  1.00  0.00     0.190 C 
BRANCH  25  26
HETATM   26  O   UNL     1      42.481 -12.155   1.490  1.00  0.00    -0.399 OA
HETATM   27  H   UNL     1      42.210 -12.872   0.891  1.00  0.00     0.209 HD
ENDBRANCH  25  26
ENDBRANCH  24  25
ENDBRANCH  23  24
ENDBRANCH   1  23
BRANCH   3  28
HETATM   28  C   UNL     1      37.960 -14.111  -3.299  1.00  0.00     0.010 A 
HETATM   29  C   UNL     1      37.298 -15.060  -4.110  1.00  0.00     0.152 A 
HETATM   30  N   UNL     1      36.457 -14.498  -4.982  1.00  0.00    -0.187 NA
HETATM   31  N   UNL     1      36.573 -13.184  -4.725  1.00  0.00    -0.289 N 
HETATM   32  H   UNL     1      36.015 -12.537  -5.271  1.00  0.00     0.188 HD
HETATM   33  C   UNL     1      37.461 -12.900  -3.728  1.00  0.00     0.123 A 
ENDBRANCH   3  28
TORSDOF 11
ENDMDL
MODEL 2
REMARK VINA RESULT:      -7.4      2.671      3.413
REMARK  11 active torsions:
REMARK  status: ('A' for Active; 'I' for Inactive)
REMARK    1  A    between atoms: O_1  and  C_2 
REMARK    2  A    between atoms: C_2  and  C_3 
REMARK    3  A    between atoms: C_3  and  O_4 
REMARK    4  A    between atoms: O_4  and  C_5 
REMARK    5  A    between atoms: C_7  and  C_25 
REMARK    6  A    between atoms: C_10  and  N_11 
REMARK       I    between atoms: N_11  and  C_12 
REMARK       I    between atoms: C_12  and  N_14 
REMARK    7  A    between atoms: N_14  and  C_15 
REMARK    8  A    between atoms: N_14  and  C_18 
REMARK    9  A    between atoms: C_15  and  C_16 
REMARK   10  A    between atoms: C_16  and  O_17 
REMARK   11  A    between atoms: C_18  and  C_19 
ROOT
HETATM    1  C   UNL     1      39.624 -13.322   3.072  1.00  0.00     0.096 A 
HETATM    2  C   UNL     1      38.833 -12.393   2.385  1.00  0.00     0.051 A 
HETATM    3  C   UNL     1      37.999 -12.799   1.332  1.00  0.00    -0.020 A 
HETATM    4  C   UNL     1      37.989 -14.144   0.947  1.00  0.00     0.015 A 
HETATM    5  C   UNL     1      38.767 -15.080   1.631  1.00  0.00     0.033 A 
HETATM    6  C   UNL     1      39.536 -14.683   2.730  1.00  0.00     0.069 A 
ENDROOT
BRANCH   6   7
HETATM    7  N   UNL     1      40.206 -15.696   3.458  1.00  0.00    -0.306 N 
HETATM    8  C   UNL     1      41.443 -16.160   3.038  1.00  0.00     0.323 C 
HETATM    9  O   UNL     1      42.047 -15.725   2.060  1.00  0.00    -0.247 OA
HETATM   10  N   UNL     1      42.014 -17.104   3.891  1.00  0.00    -0.328 N 
HETATM   11  H   UNL     1      40.163 -15.602   4.468  1.00  0.00     0.171 HD
BRANCH  10  12
HETATM   12  C   UNL     1      41.273 -17.822   4.936  1.00  0.00     0.153 C 
BRANCH  12  13
HETATM   13  C   UNL     1      41.208 -17.039   6.249  1.00  0.00     0.184 C 
BRANCH  13  14
HETATM   14  O   UNL     1      39.985 -16.307   6.340  1.00  0.00    -0.399 OA
HETATM   15  H   UNL     1      40.165 -15.562   6.947  1.00  0.00     0.209 HD
ENDBRANCH  13  14
ENDBRANCH  12  13
ENDBRANCH  10  12
BRANCH  10  16
HETATM   16  C   UNL     1      43.443 -17.378   3.751  1.00  0.00     0.166 C 
BRANCH  16  17
HETATM   17  C   UNL     1      43.798 -18.798   3.373  1.00  0.00    -0.040 A 
HETATM   18  C   UNL     1      44.504 -19.645   4.236  1.00  0.00     0.009 A 
HETATM   19  C   UNL     1      44.752 -20.974   3.884  1.00  0.00     0.001 A 
HETATM   20  C   UNL     1      44.280 -21.477   2.673  1.00  0.00     0.000 A 
HETATM   21  C   UNL     1      43.558 -20.653   1.813  1.00  0.00     0.001 A 
HETATM   22  C   UNL     1      43.315 -19.323   2.162  1.00  0.00     0.009 A 
ENDBRANCH  16  17
ENDBRANCH  10  16
ENDBRANCH   6   7
BRANCH   1  23
HETATM   23  O   UNL     1      40.521 -12.984   4.056  1.00  0.00    -0.347 OA
BRANCH  23  24
HETATM   24  C   UNL     1      41.753 -12.408   3.628  1.00  0.00     0.201 C 
BRANCH  24  25
HETATM   25  C   UNL     1      42.898 -13.176   4.277  1.00  0.00     0.190 C 
BRANCH  25  26
HETATM   26  O   UNL     1      43.784 -13.674   3.281  1.00  0.00    -0.399 OA
HETATM   27  H   UNL     1      44.060 -12.911   2.744  1.00  0.00     0.209 HD
ENDBRANCH  25  26
ENDBRANCH  24  25
ENDBRANCH  23  24
ENDBRANCH   1  23
BRANCH   3  28
HETATM   28  C   UNL     1      37.134 -11.849   0.658  1.00  0.00     0.010 A 
HETATM   29  C   UNL     1      36.807 -11.713  -0.711  1.00  0.00     0.152 A 
HETATM   30  N   UNL     1      35.968 -10.700  -0.942  1.00  0.00    -0.187 NA
HETATM   31  N   UNL     1      35.750 -10.189   0.281  1.00  0.00    -0.289 N 
HETATM   32  H   UNL     1      35.127  -9.393   0.365  1.00  0.00     0.188 HD
HETATM   33  C   UNL     1      36.425 -10.840   1.272  1.00  0.00     0.123 A 
ENDBRANCH   3  28
TORSDOF 11
ENDMDL
MODEL 3
REMARK VINA RESULT:      -7.2      2.192      3.020
REMARK  11 active torsions:
REMARK  status: ('A' for Active; 'I' for Inactive)
REMARK    1  A    between atoms: O_1  and  C_2 
REMARK    2  A    between atoms: C_2  and  C_3 
REMARK    3  A    between atoms: C_3  and  O_4 
REMARK    4  A    between atoms: O_4  and  C_5 
REMARK    5  A    between atoms: C_7  and  C_25 
REMARK    6  A    between atoms: C_10  and  N_11 
REMARK       I    between atoms: N_11  and  C_12 
REMARK       I    between atoms: C_12  and  N_14 
REMARK    7  A    between atoms: N_14  and  C_15 
REMARK    8  A    between atoms: N_14  and  C_18 
REMARK    9  A    between atoms: C_15  and  C_16 
REMARK   10  A    between atoms: C_16  and  O_17 
REMARK   11  A    between atoms: C_18  and  C_19 
ROOT
HETATM    1  C   UNL     1      41.925 -14.154   1.056  1.00  0.00     0.096 A 
HETATM    2  C   UNL     1      41.685 -13.377  -0.085  1.00  0.00     0.051 A 
HETATM    3  C   UNL     1      41.244 -13.969  -1.278  1.00  0.00    -0.020 A 
HETATM    4  C   UNL     1      41.080 -15.358  -1.332  1.00  0.00     0.015 A 
HETATM    5  C   UNL     1      41.307 -16.141  -0.199  1.00  0.00     0.033 A 
HETATM    6  C   UNL     1      41.670 -15.536   1.009  1.00  0.00     0.069 A 
ENDROOT
BRANCH   6   7
HETATM    7  N   UNL     1      41.767 -16.367   2.151  1.00  0.00    -0.306 N 
HETATM    8  C   UNL     1      42.923 -17.091   2.396  1.00  0.00     0.323 C 
HETATM    9  O   UNL     1      43.927 -17.047   1.688  1.00  0.00    -0.247 OA
HETATM   10  N   UNL     1      42.902 -17.807   3.592  1.00  0.00    -0.328 N 
HETATM   11  H   UNL     1      41.383 -15.974   3.005  1.00  0.00     0.171 HD
BRANCH  10  12
HETATM   12  C   UNL     1      41.683 -18.082   4.365  1.00  0.00     0.153 C 
BRANCH  12  13
HETATM   13  C   UNL     1      41.627 -17.284   5.669  1.00  0.00     0.184 C 
BRANCH  13  14
HETATM   14  O   UNL     1      40.294 -16.841   5.932  1.00  0.00    -0.399 OA
HETATM   15  H   UNL     1      39.782 -17.044   5.125  1.00  0.00     0.209 HD
ENDBRANCH  13  14
ENDBRANCH  12  13
ENDBRANCH  10  12
BRANCH  10  16
HETATM   16  C   UNL     1      44.175 -18.295   4.121  1.00  0.00     0.166 C 
BRANCH  16  17
HETATM   17  C   UNL     1      44.401 -19.784   3.999  1.00  0.00    -0.040 A 
HETATM   18  C   UNL     1      44.669 -20.591   5.112  1.00  0.00     0.009 A 
HETATM   19  C   UNL     1      44.802 -21.975   4.973  1.00  0.00     0.001 A 
HETATM   20  C   UNL     1      44.648 -22.570   3.723  1.00  0.00     0.000 A 
HETATM   21  C   UNL     1      44.360 -21.784   2.610  1.00  0.00     0.001 A 
HETATM   22  C   UNL     1      44.234 -20.401   2.747  1.00  0.00     0.009 A 
ENDBRANCH  16  17
ENDBRANCH  10  16
ENDBRANCH   6   7
BRANCH   1  23
HETATM   23  O   UNL     1      42.432 -13.653   2.229  1.00  0.00    -0.347 OA
BRANCH  23  24
HETATM   24  C   UNL     1      41.544 -12.880   3.033  1.00  0.00     0.201 C 
BRANCH  24  25
HETATM   25  C   UNL     1      41.225 -13.668   4.298  1.00  0.00     0.190 C 
BRANCH  25  26
HETATM   26  O   UNL     1      40.098 -14.510   4.082  1.00  0.00    -0.399 OA
HETATM   27  H   UNL     1      40.109 -14.758   3.142  1.00  0.00     0.209 HD
ENDBRANCH  25  26
ENDBRANCH  24  25
ENDBRANCH  23  24
ENDBRANCH   1  23
BRANCH   3  28
HETATM   28  C   UNL     1      40.938 -13.160  -2.442  1.00  0.00     0.010 A 
HETATM   29  C   UNL     1      41.750 -12.275  -3.187  1.00  0.00     0.152 A 
HETATM   30  N   UNL     1      41.095 -11.705  -4.202  1.00  0.00    -0.187 NA
HETATM   31  N   UNL     1      39.863 -12.231  -4.114  1.00  0.00    -0.289 N 
HETATM   32  H   UNL     1      39.169 -11.946  -4.797  1.00  0.00     0.188 HD
HETATM   33  C   UNL     1      39.716 -13.106  -3.077  1.00  0.00     0.123 A 
ENDBRANCH   3  28
TORSDOF 11
ENDMDL
MODEL 4
REMARK VINA RESULT:      -7.1      4.056      5.471
REMARK  11 active torsions:
REMARK  status: ('A' for Active; 'I' for Inactive)
REMARK    1  A    between atoms: O_1  and  C_2 
REMARK    2  A    between atoms: C_2  and  C_3 
REMARK    3  A    between atoms: C_3  and  O_4 
REMARK    4  A    between atoms: O_4  and  C_5 
REMARK    5  A    between atoms: C_7  and  C_25 
REMARK    6  A    between atoms: C_10  and  N_11 
REMARK       I    between atoms: N_11  and  C_12 
REMARK       I    between atoms: C_12  and  N_14 
REMARK    7  A    between atoms: N_14  and  C_15 
REMARK    8  A    between atoms: N_14  and  C_18 
REMARK    9  A    between atoms: C_15  and  C_16 
REMARK   10  A    between atoms: C_16  and  O_17 
REMARK   11  A    between atoms: C_18  and  C_19 
ROOT
HETATM    1  C   UNL     1      41.729 -13.988   5.326  1.00  0.00     0.096 A 
HETATM    2  C   UNL     1      40.990 -12.971   4.707  1.00  0.00     0.051 A 
HETATM    3  C   UNL     1      40.071 -13.270   3.689  1.00  0.00    -0.020 A 
HETATM    4  C   UNL     1      39.925 -14.595   3.267  1.00  0.00     0.015 A 
HETATM    5  C   UNL     1      40.650 -15.617   3.882  1.00  0.00     0.033 A 
HETATM    6  C   UNL     1      41.505 -15.324   4.950  1.00  0.00     0.069 A 
ENDROOT
BRANCH   6   7
HETATM    7  N   UNL     1      42.119 -16.414   5.612  1.00  0.00    -0.306 N 
HETATM    8  C   UNL     1      43.104 -17.156   4.979  1.00  0.00     0.323 C 
HETATM    9  O   UNL     1      43.529 -16.916   3.850  1.00  0.00    -0.247 OA
HETATM   10  N   UNL     1      43.667 -18.151   5.776  1.00  0.00    -0.328 N 
HETATM   11  H   UNL     1      42.340 -16.256   6.591  1.00  0.00     0.171 HD
BRANCH  10  12
HETATM   12  C   UNL     1      43.073 -18.633   7.031  1.00  0.00     0.153 C 
BRANCH  12  13
HETATM   13  C   UNL     1      44.066 -18.609   8.194  1.00  0.00     0.184 C 
BRANCH  13  14
HETATM   14  O   UNL     1      43.699 -17.613   9.151  1.00  0.00    -0.399 OA
HETATM   15  H   UNL     1      42.788 -17.344   8.918  1.00  0.00     0.209 HD
ENDBRANCH  13  14
ENDBRANCH  12  13
ENDBRANCH  10  12
BRANCH  10  16
HETATM   16  C   UNL     1      44.939 -18.733   5.350  1.00  0.00     0.166 C 
BRANCH  16  17
HETATM   17  C   UNL     1      44.836 -20.051   4.618  1.00  0.00    -0.040 A 
HETATM   18  C   UNL     1      44.830 -21.279   5.291  1.00  0.00     0.009 A 
HETATM   19  C   UNL     1      44.662 -22.475   4.588  1.00  0.00     0.001 A 
HETATM   20  C   UNL     1      44.477 -22.455   3.207  1.00  0.00     0.000 A 
HETATM   21  C   UNL     1      44.460 -21.240   2.526  1.00  0.00     0.001 A 
HETATM   22  C   UNL     1      44.635 -20.046   3.227  1.00  0.00     0.009 A 
ENDBRANCH  16  17
ENDBRANCH  10  16
ENDBRANCH   6   7
BRANCH   1  23
HETATM   23  O   UNL     1      42.700 -13.760   6.270  1.00  0.00    -0.347 OA
BRANCH  23  24
HETATM   24  C   UNL     1      44.053 -13.816   5.823  1.00  0.00     0.201 C 
BRANCH  24  25
HETATM   25  C   UNL     1      44.889 -14.509   6.893  1.00  0.00     0.190 C 
BRANCH  25  26
HETATM   26  O   UNL     1      44.041 -15.116   7.863  1.00  0.00    -0.399 OA
HETATM   27  H   UNL     1      43.998 -14.505   8.619  1.00  0.00     0.209 HD
ENDBRANCH  25  26
ENDBRANCH  24  25
ENDBRANCH  23  24
ENDBRANCH   1  23
BRANCH   3  28
HETATM   28  C   UNL     1      39.261 -12.227   3.089  1.00  0.00     0.010 A 
HETATM   29  C   UNL     1      38.448 -11.235   3.684  1.00  0.00     0.152 A 
HETATM   30  N   UNL     1      37.849 -10.451   2.784  1.00  0.00    -0.187 NA
HETATM   31  N   UNL     1      38.284 -10.934   1.609  1.00  0.00    -0.289 N 
HETATM   32  H   UNL     1      37.960 -10.488   0.757  1.00  0.00     0.188 HD
HETATM   33  C   UNL     1      39.129 -11.998   1.736  1.00  0.00     0.123 A 
ENDBRANCH   3  28
TORSDOF 11
ENDMDL
MODEL 5
REMARK VINA RESULT:      -7.0      2.228      8.025
REMARK  11 active torsions:
REMARK  status: ('A' for Active; 'I' for Inactive)
REMARK    1  A    between atoms: O_1  and  C_2 
REMARK    2  A    between atoms: C_2  and  C_3 
REMARK    3  A    between atoms: C_3  and  O_4 
REMARK    4  A    between atoms: O_4  and  C_5 
REMARK    5  A    between atoms: C_7  and  C_25 
REMARK    6  A    between atoms: C_10  and  N_11 
REMARK       I    between atoms: N_11  and  C_12 
REMARK       I    between atoms: C_12  and  N_14 
REMARK    7  A    between atoms: N_14  and  C_15 
REMARK    8  A    between atoms: N_14  and  C_18 
REMARK    9  A    between atoms: C_15  and  C_16 
REMARK   10  A    between atoms: C_16  and  O_17 
REMARK   11  A    between atoms: C_18  and  C_19 
ROOT
HETATM    1  C   UNL     1      42.615 -16.433   3.052  1.00  0.00     0.096 A 
HETATM    2  C   UNL     1      43.019 -17.515   3.846  1.00  0.00     0.051 A 
HETATM    3  C   UNL     1      43.671 -18.618   3.275  1.00  0.00    -0.020 A 
HETATM    4  C   UNL     1      43.885 -18.648   1.893  1.00  0.00     0.015 A 
HETATM    5  C   UNL     1      43.495 -17.571   1.095  1.00  0.00     0.033 A 
HETATM    6  C   UNL     1      42.916 -16.440   1.679  1.00  0.00     0.069 A 
ENDROOT
BRANCH   6   7
HETATM    7  N   UNL     1      42.654 -15.333   0.837  1.00  0.00    -0.306 N 
HETATM    8  C   UNL     1      41.411 -15.182   0.242  1.00  0.00     0.323 C 
HETATM    9  O   UNL     1      40.465 -15.949   0.416  1.00  0.00    -0.247 OA
HETATM   10  N   UNL     1      41.275 -14.010  -0.501  1.00  0.00    -0.328 N 
HETATM   11  H   UNL     1      43.023 -14.444   1.163  1.00  0.00     0.171 HD
BRANCH  10  12
HETATM   12  C   UNL     1      42.404 -13.173  -0.930  1.00  0.00     0.153 C 
BRANCH  12  13
HETATM   13  C   UNL     1      42.121 -11.679  -0.759  1.00  0.00     0.184 C 
BRANCH  13  14
HETATM   14  O   UNL     1      42.981 -11.113   0.232  1.00  0.00    -0.399 OA
HETATM   15  H   UNL     1      43.366 -10.313  -0.175  1.00  0.00     0.209 HD
ENDBRANCH  13  14
ENDBRANCH  12  13
ENDBRANCH  10  12
BRANCH  10  16
HETATM   16  C   UNL     1      39.925 -13.575  -0.855  1.00  0.00     0.166 C 
BRANCH  16  17
HETATM   17  C   UNL     1      39.285 -14.315  -2.006  1.00  0.00    -0.040 A 
HETATM   18  C   UNL     1      37.918 -14.208  -2.294  1.00  0.00     0.009 A 
HETATM   19  C   UNL     1      37.373 -14.849  -3.409  1.00  0.00     0.001 A 
HETATM   20  C   UNL     1      38.191 -15.588  -4.261  1.00  0.00     0.000 A 
HETATM   21  C   UNL     1      39.556 -15.686  -4.001  1.00  0.00     0.001 A 
HETATM   22  C   UNL     1      40.100 -15.051  -2.883  1.00  0.00     0.009 A 
ENDBRANCH  16  17
ENDBRANCH  10  16
ENDBRANCH   6   7
BRANCH   1  23
HETATM   23  O   UNL     1      41.902 -15.360   3.529  1.00  0.00    -0.347 OA
BRANCH  23  24
HETATM   24  C   UNL     1      42.615 -14.425   4.336  1.00  0.00     0.201 C 
BRANCH  24  25
HETATM   25  C   UNL     1      42.382 -13.026   3.779  1.00  0.00     0.190 C 
BRANCH  25  26
HETATM   26  O   UNL     1      42.998 -12.896   2.502  1.00  0.00    -0.399 OA
HETATM   27  H   UNL     1      42.291 -12.678   1.870  1.00  0.00     0.209 HD
ENDBRANCH  25  26
ENDBRANCH  24  25
ENDBRANCH  23  24
ENDBRANCH   1  23
BRANCH   3  28
HETATM   28  C   UNL     1      44.144 -19.712   4.102  1.00  0.00     0.010 A 
HETATM   29  C   UNL     1      44.851 -20.887   3.758  1.00  0.00     0.152 A 
HETATM   30  N   UNL     1      45.106 -21.664   4.815  1.00  0.00    -0.187 NA
HETATM   31  N   UNL     1      44.569 -20.983   5.840  1.00  0.00    -0.289 N 
HETATM   32  H   UNL     1      44.640 -21.381   6.771  1.00  0.00     0.188 HD
HETATM   33  C   UNL     1      43.980 -19.810   5.467  1.00  0.00     0.123 A 
ENDBRANCH   3  28
TORSDOF 11
ENDMDL
MODEL 6
REMARK VINA RESULT:      -7.0      2.640      8.344
REMARK  11 active torsions:
REMARK  status: ('A' for Active; 'I' for Inactive)
REMARK    1  A    between atoms: O_1  and  C_2 
REMARK    2  A    between atoms: C_2  and  C_3 
REMARK    3  A    between atoms: C_3  and  O_4 
REMARK    4  A    between atoms: O_4  and  C_5 
REMARK    5  A    between atoms: C_7  and  C_25 
REMARK    6  A    between atoms: C_10  and  N_11 
REMARK       I    between atoms: N_11  and  C_12 
REMARK       I    between atoms: C_12  and  N_14 
REMARK    7  A    between atoms: N_14  and  C_15 
REMARK    8  A    between atoms: N_14  and  C_18 
REMARK    9  A    between atoms: C_15  and  C_16 
REMARK   10  A    between atoms: C_16  and  O_17 
REMARK   11  A    between atoms: C_18  and  C_19 
ROOT
HETATM    1  C   UNL     1      42.168 -16.651   2.871  1.00  0.00     0.096 A 
HETATM    2  C   UNL     1      42.619 -17.700   3.682  1.00  0.00     0.051 A 
HETATM    3  C   UNL     1      43.583 -18.606   3.214  1.00  0.00    -0.020 A 
HETATM    4  C   UNL     1      44.067 -18.475   1.908  1.00  0.00     0.015 A 
HETATM    5  C   UNL     1      43.631 -17.428   1.095  1.00  0.00     0.033 A 
HETATM    6  C   UNL     1      42.730 -16.482   1.593  1.00  0.00     0.069 A 
ENDROOT
BRANCH   6   7
HETATM    7  N   UNL     1      42.420 -15.376   0.766  1.00  0.00    -0.306 N 
HETATM    8  C   UNL     1      41.472 -15.496  -0.238  1.00  0.00     0.323 C 
HETATM    9  O   UNL     1      40.827 -16.519  -0.460  1.00  0.00    -0.247 OA
HETATM   10  N   UNL     1      41.218 -14.309  -0.925  1.00  0.00    -0.328 N 
HETATM   11  H   UNL     1      42.347 -14.484   1.245  1.00  0.00     0.171 HD
BRANCH  10  12
HETATM   12  C   UNL     1      42.086 -13.125  -0.868  1.00  0.00     0.153 C 
BRANCH  12  13
HETATM   13  C   UNL     1      42.405 -12.568  -2.257  1.00  0.00     0.184 C 
BRANCH  13  14
HETATM   14  O   UNL     1      43.230 -13.478  -2.989  1.00  0.00    -0.399 OA
HETATM   15  H   UNL     1      42.869 -13.492  -3.897  1.00  0.00     0.209 HD
ENDBRANCH  13  14
ENDBRANCH  12  13
ENDBRANCH  10  12
BRANCH  10  16
HETATM   16  C   UNL     1      40.001 -14.230  -1.731  1.00  0.00     0.166 C 
BRANCH  16  17
HETATM   17  C   UNL     1      38.847 -13.490  -1.096  1.00  0.00    -0.040 A 
HETATM   18  C   UNL     1      38.266 -13.909   0.108  1.00  0.00     0.009 A 
HETATM   19  C   UNL     1      37.248 -13.161   0.705  1.00  0.00     0.001 A 
HETATM   20  C   UNL     1      36.814 -11.975   0.117  1.00  0.00     0.000 A 
HETATM   21  C   UNL     1      37.396 -11.534  -1.069  1.00  0.00     0.001 A 
HETATM   22  C   UNL     1      38.409 -12.285  -1.669  1.00  0.00     0.009 A 
ENDBRANCH  16  17
ENDBRANCH  10  16
ENDBRANCH   6   7
BRANCH   1  23
HETATM   23  O   UNL     1      41.172 -15.778   3.234  1.00  0.00    -0.347 OA
BRANCH  23  24
HETATM   24  C   UNL     1      41.470 -14.870   4.293  1.00  0.00     0.201 C 
BRANCH  24  25
HETATM   25  C   UNL     1      40.213 -14.673   5.131  1.00  0.00     0.190 C 
BRANCH  25  26
HETATM   26  O   UNL     1      39.956 -15.834   5.913  1.00  0.00    -0.399 OA
HETATM   27  H   UNL     1      40.114 -16.602   5.336  1.00  0.00     0.209 HD
ENDBRANCH  25  26
ENDBRANCH  24  25
ENDBRANCH  23  24
ENDBRANCH   1  23
BRANCH   3  28
HETATM   28  C   UNL     1      44.096 -19.657   4.072  1.00  0.00     0.010 A 
HETATM   29  C   UNL     1      44.797 -20.843   3.756  1.00  0.00     0.152 A 
HETATM   30  N   UNL     1      45.099 -21.568   4.837  1.00  0.00    -0.187 NA
HETATM   31  N   UNL     1      44.598 -20.842   5.849  1.00  0.00    -0.289 N 
HETATM   32  H   UNL     1      44.709 -21.195   6.794  1.00  0.00     0.188 HD
HETATM   33  C   UNL     1      43.986 -19.691   5.445  1.00  0.00     0.123 A 
ENDBRANCH   3  28
TORSDOF 11
ENDMDL
MODEL 7
REMARK VINA RESULT:      -7.0      4.035      8.556
REMARK  11 active torsions:
REMARK  status: ('A' for Active; 'I' for Inactive)
REMARK    1  A    between atoms: O_1  and  C_2 
REMARK    2  A    between atoms: C_2  and  C_3 
REMARK    3  A    between atoms: C_3  and  O_4 
REMARK    4  A    between atoms: O_4  and  C_5 
REMARK    5  A    between atoms: C_7  and  C_25 
REMARK    6  A    between atoms: C_10  and  N_11 
REMARK       I    between atoms: N_11  and  C_12 
REMARK       I    between atoms: C_12  and  N_14 
REMARK    7  A    between atoms: N_14  and  C_15 
REMARK    8  A    between atoms: N_14  and  C_18 
REMARK    9  A    between atoms: C_15  and  C_16 
REMARK   10  A    between atoms: C_16  and  O_17 
REMARK   11  A    between atoms: C_18  and  C_19 
ROOT
HETATM    1  C   UNL     1      43.561 -17.355   2.944  1.00  0.00     0.096 A 
HETATM    2  C   UNL     1      43.915 -18.704   2.817  1.00  0.00     0.051 A 
HETATM    3  C   UNL     1      44.126 -19.501   3.952  1.00  0.00    -0.020 A 
HETATM    4  C   UNL     1      44.016 -18.925   5.223  1.00  0.00     0.015 A 
HETATM    5  C   UNL     1      43.655 -17.584   5.361  1.00  0.00     0.033 A 
HETATM    6  C   UNL     1      43.368 -16.815   4.229  1.00  0.00     0.069 A 
ENDROOT
BRANCH   6   7
HETATM    7  N   UNL     1      42.889 -15.499   4.437  1.00  0.00    -0.306 N 
HETATM    8  C   UNL     1      41.546 -15.206   4.261  1.00  0.00     0.323 C 
HETATM    9  O   UNL     1      40.693 -16.036   3.954  1.00  0.00    -0.247 OA
HETATM   10  N   UNL     1      41.207 -13.889   4.571  1.00  0.00    -0.328 N 
HETATM   11  H   UNL     1      43.274 -15.023   5.248  1.00  0.00     0.171 HD
BRANCH  10  12
HETATM   12  C   UNL     1      42.185 -12.804   4.727  1.00  0.00     0.153 C 
BRANCH  12  13
HETATM   13  C   UNL     1      42.416 -12.433   6.194  1.00  0.00     0.184 C 
BRANCH  13  14
HETATM   14  O   UNL     1      43.209 -13.427   6.846  1.00  0.00    -0.399 OA
HETATM   15  H   UNL     1      42.702 -13.695   7.637  1.00  0.00     0.209 HD
ENDBRANCH  13  14
ENDBRANCH  12  13
ENDBRANCH  10  12
BRANCH  10  16
HETATM   16  C   UNL     1      39.794 -13.575   4.776  1.00  0.00     0.166 C 
BRANCH  16  17
HETATM   17  C   UNL     1      39.198 -12.592   3.795  1.00  0.00    -0.040 A 
HETATM   18  C   UNL     1      39.035 -12.900   2.438  1.00  0.00     0.009 A 
HETATM   19  C   UNL     1      38.415 -11.995   1.573  1.00  0.00     0.001 A 
HETATM   20  C   UNL     1      37.933 -10.781   2.058  1.00  0.00     0.000 A 
HETATM   21  C   UNL     1      38.069 -10.469   3.409  1.00  0.00     0.001 A 
HETATM   22  C   UNL     1      38.695 -11.370   4.272  1.00  0.00     0.009 A 
ENDBRANCH  16  17
ENDBRANCH  10  16
ENDBRANCH   6   7
BRANCH   1  23
HETATM   23  O   UNL     1      43.417 -16.498   1.881  1.00  0.00    -0.347 OA
BRANCH  23  24
HETATM   24  C   UNL     1      42.824 -17.036   0.701  1.00  0.00     0.201 C 
BRANCH  24  25
HETATM   25  C   UNL     1      41.452 -16.398   0.515  1.00  0.00     0.190 C 
BRANCH  25  26
HETATM   26  O   UNL     1      40.469 -17.124   1.244  1.00  0.00    -0.399 OA
HETATM   27  H   UNL     1      40.286 -16.614   2.052  1.00  0.00     0.209 HD
ENDBRANCH  25  26
ENDBRANCH  24  25
ENDBRANCH  23  24
ENDBRANCH   1  23
BRANCH   3  28
HETATM   28  C   UNL     1      44.434 -20.913   3.824  1.00  0.00     0.010 A 
HETATM   29  C   UNL     1      44.425 -21.757   2.690  1.00  0.00     0.152 A 
HETATM   30  N   UNL     1      44.769 -23.015   2.981  1.00  0.00    -0.187 NA
HETATM   31  N   UNL     1      45.007 -22.976   4.302  1.00  0.00    -0.289 N 
HETATM   32  H   UNL     1      45.294 -23.833   4.763  1.00  0.00     0.188 HD
HETATM   33  C   UNL     1      44.820 -21.742   4.854  1.00  0.00     0.123 A 
ENDBRANCH   3  28
TORSDOF 11
ENDMDL
MODEL 8
REMARK VINA RESULT:      -6.9      3.443      8.573
REMARK  11 active torsions:
REMARK  status: ('A' for Active; 'I' for Inactive)
REMARK    1  A    between atoms: O_1  and  C_2 
REMARK    2  A    between atoms: C_2  and  C_3 
REMARK    3  A    between atoms: C_3  and  O_4 
REMARK    4  A    between atoms: O_4  and  C_5 
REMARK    5  A    between atoms: C_7  and  C_25 
REMARK    6  A    between atoms: C_10  and  N_11 
REMARK       I    between atoms: N_11  and  C_12 
REMARK       I    between atoms: C_12  and  N_14 
REMARK    7  A    between atoms: N_14  and  C_15 
REMARK    8  A    between atoms: N_14  and  C_18 
REMARK    9  A    between atoms: C_15  and  C_16 
REMARK   10  A    between atoms: C_16  and  O_17 
REMARK   11  A    between atoms: C_18  and  C_19 
ROOT
HETATM    1  C   UNL     1      43.339 -17.395   4.416  1.00  0.00     0.096 A 
HETATM    2  C   UNL     1      43.761 -18.727   4.507  1.00  0.00     0.051 A 
HETATM    3  C   UNL     1      43.774 -19.555   3.374  1.00  0.00    -0.020 A 
HETATM    4  C   UNL     1      43.323 -19.048   2.150  1.00  0.00     0.015 A 
HETATM    5  C   UNL     1      42.909 -17.719   2.047  1.00  0.00     0.033 A 
HETATM    6  C   UNL     1      42.973 -16.876   3.161  1.00  0.00     0.069 A 
ENDROOT
BRANCH   6   7
HETATM    7  N   UNL     1      42.656 -15.510   2.966  1.00  0.00    -0.306 N 
HETATM    8  C   UNL     1      41.348 -15.069   3.089  1.00  0.00     0.323 C 
HETATM    9  O   UNL     1      40.402 -15.792   3.397  1.00  0.00    -0.247 OA
HETATM   10  N   UNL     1      41.197 -13.691   2.940  1.00  0.00    -0.328 N 
HETATM   11  H   UNL     1      43.314 -14.851   3.372  1.00  0.00     0.171 HD
BRANCH  10  12
HETATM   12  C   UNL     1      42.221 -12.809   2.364  1.00  0.00     0.153 C 
BRANCH  12  13
HETATM   13  C   UNL     1      41.953 -12.488   0.892  1.00  0.00     0.184 C 
BRANCH  13  14
HETATM   14  O   UNL     1      42.817 -11.443   0.439  1.00  0.00    -0.399 OA
HETATM   15  H   UNL     1      42.251 -10.651   0.348  1.00  0.00     0.209 HD
ENDBRANCH  13  14
ENDBRANCH  12  13
ENDBRANCH  10  12
BRANCH  10  16
HETATM   16  C   UNL     1      39.952 -13.083   3.408  1.00  0.00     0.166 C 
BRANCH  16  17
HETATM   17  C   UNL     1      38.911 -12.833   2.342  1.00  0.00    -0.040 A 
HETATM   18  C   UNL     1      38.462 -13.848   1.487  1.00  0.00     0.009 A 
HETATM   19  C   UNL     1      37.446 -13.599   0.560  1.00  0.00     0.001 A 
HETATM   20  C   UNL     1      36.854 -12.340   0.491  1.00  0.00     0.000 A 
HETATM   21  C   UNL     1      37.275 -11.327   1.349  1.00  0.00     0.001 A 
HETATM   22  C   UNL     1      38.294 -11.572   2.271  1.00  0.00     0.009 A 
ENDBRANCH  16  17
ENDBRANCH  10  16
ENDBRANCH   6   7
BRANCH   1  23
HETATM   23  O   UNL     1      43.225 -16.554   5.495  1.00  0.00    -0.347 OA
BRANCH  23  24
HETATM   24  C   UNL     1      42.407 -17.003   6.574  1.00  0.00     0.201 C 
BRANCH  24  25
HETATM   25  C   UNL     1      43.252 -17.035   7.842  1.00  0.00     0.190 C 
BRANCH  25  26
HETATM   26  O   UNL     1      43.453 -18.379   8.265  1.00  0.00    -0.399 OA
HETATM   27  H   UNL     1      43.379 -18.937   7.471  1.00  0.00     0.209 HD
ENDBRANCH  25  26
ENDBRANCH  24  25
ENDBRANCH  23  24
ENDBRANCH   1  23
BRANCH   3  28
HETATM   28  C   UNL     1      44.267 -20.917   3.452  1.00  0.00     0.010 A 
HETATM   29  C   UNL     1      44.400 -21.907   2.452  1.00  0.00     0.152 A 
HETATM   30  N   UNL     1      44.897 -23.054   2.923  1.00  0.00    -0.187 NA
HETATM   31  N   UNL     1      45.091 -22.797   4.227  1.00  0.00    -0.289 N 
HETATM   32  H   UNL     1      45.475 -23.534   4.809  1.00  0.00     0.188 HD
HETATM   33  C   UNL     1      44.729 -21.534   4.595  1.00  0.00     0.123 A 
ENDBRANCH   3  28
TORSDOF 11
ENDMDL
MODEL 9
REMARK VINA RESULT:      -6.9      3.182      8.456
REMARK  11 active torsions:
REMARK  status: ('A' for Active; 'I' for Inactive)
REMARK    1  A    between atoms: O_1  and  C_2 
REMARK    2  A    between atoms: C_2  and  C_3 
REMARK    3  A    between atoms: C_3  and  O_4 
REMARK    4  A    between atoms: O_4  and  C_5 
REMARK    5  A    between atoms: C_7  and  C_25 
REMARK    6  A    between atoms: C_10  and  N_11 
REMARK       I    between atoms: N_11  and  C_12 
REMARK       I    between atoms: C_12  and  N_14 
REMARK    7  A    between atoms: N_14  and  C_15 
REMARK    8  A    between atoms: N_14  and  C_18 
REMARK    9  A    between atoms: C_15  and  C_16 
REMARK   10  A    between atoms: C_16  and  O_17 
REMARK   11  A    between atoms: C_18  and  C_19 
ROOT
HETATM    1  C   UNL     1      43.065 -17.396   3.771  1.00  0.00     0.096 A 
HETATM    2  C   UNL     1      43.563 -18.621   4.233  1.00  0.00     0.051 A 
HETATM    3  C   UNL     1      43.779 -19.687   3.346  1.00  0.00    -0.020 A 
HETATM    4  C   UNL     1      43.456 -19.529   1.994  1.00  0.00     0.015 A 
HETATM    5  C   UNL     1      42.969 -18.309   1.523  1.00  0.00     0.033 A 
HETATM    6  C   UNL     1      42.830 -17.226   2.396  1.00  0.00     0.069 A 
ENDROOT
BRANCH   6   7
HETATM    7  N   UNL     1      42.448 -15.982   1.837  1.00  0.00    -0.306 N 
HETATM    8  C   UNL     1      41.112 -15.702   1.597  1.00  0.00     0.323 C 
HETATM    9  O   UNL     1      40.187 -16.465   1.869  1.00  0.00    -0.247 OA
HETATM   10  N   UNL     1      40.880 -14.415   1.113  1.00  0.00    -0.328 N 
HETATM   11  H   UNL     1      42.941 -15.174   2.204  1.00  0.00     0.171 HD
BRANCH  10  12
HETATM   12  C   UNL     1      41.926 -13.542   0.564  1.00  0.00     0.153 C 
BRANCH  12  13
HETATM   13  C   UNL     1      41.738 -13.274  -0.930  1.00  0.00     0.184 C 
BRANCH  13  14
HETATM   14  O   UNL     1      41.906 -14.476  -1.684  1.00  0.00    -0.399 OA
HETATM   15  H   UNL     1      42.277 -15.131  -1.060  1.00  0.00     0.209 HD
ENDBRANCH  13  14
ENDBRANCH  12  13
ENDBRANCH  10  12
BRANCH  10  16
HETATM   16  C   UNL     1      39.515 -13.894   1.177  1.00  0.00     0.166 C 
BRANCH  16  17
HETATM   17  C   UNL     1      39.218 -12.993   2.353  1.00  0.00    -0.040 A 
HETATM   18  C   UNL     1      39.729 -13.245   3.632  1.00  0.00     0.009 A 
HETATM   19  C   UNL     1      39.494 -12.352   4.681  1.00  0.00     0.001 A 
HETATM   20  C   UNL     1      38.762 -11.188   4.458  1.00  0.00     0.000 A 
HETATM   21  C   UNL     1      38.265 -10.913   3.186  1.00  0.00     0.001 A 
HETATM   22  C   UNL     1      38.494 -11.807   2.140  1.00  0.00     0.009 A 
ENDBRANCH  16  17
ENDBRANCH  10  16
ENDBRANCH   6   7
BRANCH   1  23
HETATM   23  O   UNL     1      42.755 -16.339   4.592  1.00  0.00    -0.347 OA
BRANCH  23  24
HETATM   24  C   UNL     1      42.164 -16.657   5.850  1.00  0.00     0.201 C 
BRANCH  24  25
HETATM   25  C   UNL     1      40.837 -15.917   5.963  1.00  0.00     0.190 C 
BRANCH  25  26
HETATM   26  O   UNL     1      39.844 -16.771   6.520  1.00  0.00    -0.399 OA
HETATM   27  H   UNL     1      40.315 -17.488   6.978  1.00  0.00     0.209 HD
ENDBRANCH  25  26
ENDBRANCH  24  25
ENDBRANCH  23  24
ENDBRANCH   1  23
BRANCH   3  28
HETATM   28  C   UNL     1      44.350 -20.937   3.811  1.00  0.00     0.010 A 
HETATM   29  C   UNL     1      44.925 -21.280   5.056  1.00  0.00     0.152 A 
HETATM   30  N   UNL     1      45.348 -22.546   5.098  1.00  0.00    -0.187 NA
HETATM   31  N   UNL     1      45.037 -23.020   3.880  1.00  0.00    -0.289 N 
HETATM   32  H   UNL     1      45.264 -23.986   3.669  1.00  0.00     0.188 HD
HETATM   33  C   UNL     1      44.440 -22.097   3.072  1.00  0.00     0.123 A 
ENDBRANCH   3  28
TORSDOF 11
ENDMDL
MODEL 10
REMARK VINA RESULT:      -6.9      3.983      7.133
REMARK  11 active torsions:
REMARK  status: ('A' for Active; 'I' for Inactive)
REMARK    1  A    between atoms: O_1  and  C_2 
REMARK    2  A    between atoms: C_2  and  C_3 
REMARK    3  A    between atoms: C_3  and  O_4 
REMARK    4  A    between atoms: O_4  and  C_5 
REMARK    5  A    between atoms: C_7  and  C_25 
REMARK    6  A    between atoms: C_10  and  N_11 
REMARK       I    between atoms: N_11  and  C_12 
REMARK       I    between atoms: C_12  and  N_14 
REMARK    7  A    between atoms: N_14  and  C_15 
REMARK    8  A    between atoms: N_14  and  C_18 
REMARK    9  A    between atoms: C_15  and  C_16 
REMARK   10  A    between atoms: C_16  and  O_17 
REMARK   11  A    between atoms: C_18  and  C_19 
ROOT
HETATM    1  C   UNL     1      42.017 -12.992   5.463  1.00  0.00     0.096 A 
HETATM    2  C   UNL     1      41.507 -12.186   6.489  1.00  0.00     0.051 A 
HETATM    3  C   UNL     1      40.159 -11.795   6.491  1.00  0.00    -0.020 A 
HETATM    4  C   UNL     1      39.330 -12.188   5.435  1.00  0.00     0.015 A 
HETATM    5  C   UNL     1      39.826 -12.999   4.413  1.00  0.00     0.033 A 
HETATM    6  C   UNL     1      41.149 -13.451   4.456  1.00  0.00     0.069 A 
ENDROOT
BRANCH   6   7
HETATM    7  N   UNL     1      41.559 -14.368   3.458  1.00  0.00    -0.306 N 
HETATM    8  C   UNL     1      41.583 -15.728   3.724  1.00  0.00     0.323 C 
HETATM    9  O   UNL     1      41.235 -16.229   4.792  1.00  0.00    -0.247 OA
HETATM   10  N   UNL     1      41.937 -16.514   2.629  1.00  0.00    -0.328 N 
HETATM   11  H   UNL     1      41.210 -14.174   2.524  1.00  0.00     0.171 HD
BRANCH  10  12
HETATM   12  C   UNL     1      42.568 -15.990   1.410  1.00  0.00     0.153 C 
BRANCH  12  13
HETATM   13  C   UNL     1      41.650 -16.085   0.190  1.00  0.00     0.184 C 
BRANCH  13  14
HETATM   14  O   UNL     1      40.392 -15.460   0.455  1.00  0.00    -0.399 OA
HETATM   15  H   UNL     1      40.328 -15.394   1.428  1.00  0.00     0.209 HD
ENDBRANCH  13  14
ENDBRANCH  12  13
ENDBRANCH  10  12
BRANCH  10  16
HETATM   16  C   UNL     1      41.642 -17.945   2.687  1.00  0.00     0.166 C 
BRANCH  16  17
HETATM   17  C   UNL     1      42.828 -18.843   2.946  1.00  0.00    -0.040 A 
HETATM   18  C   UNL     1      43.535 -18.815   4.155  1.00  0.00     0.009 A 
HETATM   19  C   UNL     1      44.582 -19.709   4.389  1.00  0.00     0.001 A 
HETATM   20  C   UNL     1      44.923 -20.656   3.424  1.00  0.00     0.000 A 
HETATM   21  C   UNL     1      44.216 -20.711   2.226  1.00  0.00     0.001 A 
HETATM   22  C   UNL     1      43.174 -19.813   1.989  1.00  0.00     0.009 A 
ENDBRANCH  16  17
ENDBRANCH  10  16
ENDBRANCH   6   7
BRANCH   1  23
HETATM   23  O   UNL     1      43.340 -13.345   5.355  1.00  0.00    -0.347 OA
BRANCH  23  24
HETATM   24  C   UNL     1      43.801 -14.377   6.224  1.00  0.00     0.201 C 
BRANCH  24  25
HETATM   25  C   UNL     1      44.839 -13.786   7.170  1.00  0.00     0.190 C 
BRANCH  25  26
HETATM   26  O   UNL     1      44.355 -13.809   8.509  1.00  0.00    -0.399 OA
HETATM   27  H   UNL     1      43.488 -13.366   8.502  1.00  0.00     0.209 HD
ENDBRANCH  25  26
ENDBRANCH  24  25
ENDBRANCH  23  24
ENDBRANCH   1  23
BRANCH   3  28
HETATM   28  C   UNL     1      39.614 -11.010   7.583  1.00  0.00     0.010 A 
HETATM   29  C   UNL     1      39.426  -9.615   7.709  1.00  0.00     0.152 A 
HETATM   30  N   UNL     1      38.892  -9.270   8.884  1.00  0.00    -0.187 NA
HETATM   31  N   UNL     1      38.728 -10.447   9.510  1.00  0.00    -0.289 N 
HETATM   32  H   UNL     1      38.325 -10.444  10.441  1.00  0.00     0.188 HD
HETATM   33  C   UNL     1      39.146 -11.519   8.775  1.00  0.00     0.123 A 
ENDBRANCH   3  28
TORSDOF 11
ENDMDL
