MODEL 1
REMARK VINA RESULT:      -8.3      0.000      0.000
REMARK  6 active torsions:
REMARK  status: ('A' for Active; 'I' for Inactive)
REMARK    1  A    between atoms: C_4  and  C_5 
REMARK    2  A    between atoms: C_5  and  N_6 
REMARK       I    between atoms: N_6  and  C_7 
REMARK       I    between atoms: C_7  and  N_8 
REMARK    3  A    between atoms: N_8  and  C_9 
REMARK    4  A    between atoms: C_9  and  C_10 
REMARK    5  A    between atoms: C_12  and  O_13 
REMARK    6  A    between atoms: O_13  and  C_14 
ROOT
HETATM    1  N   UNL     1      43.386 -16.587   5.653  1.00  0.00    -0.333 N 
HETATM    2  C   UNL     1      43.251 -16.401   6.988  1.00  0.00     0.317 C 
HETATM    3  N   UNL     1      44.000 -15.413   7.535  1.00  0.00    -0.339 N 
HETATM    4  O   UNL     1      42.495 -17.056   7.697  1.00  0.00    -0.247 OA
HETATM    5  H   UNL     1      44.246 -16.290   5.215  1.00  0.00     0.165 HD
HETATM    6  H   UNL     1      43.868 -15.324   8.534  1.00  0.00     0.164 HD
ENDROOT
BRANCH   3   7
HETATM    7  C   UNL     1      44.805 -14.414   6.867  1.00  0.00     0.163 C 
BRANCH   7   8
HETATM    8  C   UNL     1      45.123 -13.202   7.705  1.00  0.00    -0.035 A 
HETATM    9  C   UNL     1      44.178 -12.543   8.499  1.00  0.00     0.066 A 
HETATM   10  C   UNL     1      44.567 -11.415   9.205  1.00  0.00     0.164 A 
HETATM   11  N   UNL     1      45.816 -10.908   9.193  1.00  0.00    -0.237 NA
HETATM   12  C   UNL     1      46.719 -11.560   8.436  1.00  0.00     0.120 A 
HETATM   13  C   UNL     1      46.426 -12.691   7.687  1.00  0.00     0.028 A 
BRANCH  10  14
HETATM   14  O   UNL     1      43.591 -10.789   9.957  1.00  0.00    -0.329 OA
BRANCH  14  15
HETATM   15  C   UNL     1      43.969 -10.420  11.301  1.00  0.00     0.130 C 
HETATM   16  C   UNL     1      43.268  -9.171  11.902  1.00  0.00     0.032 C 
HETATM   17  C   UNL     1      43.185  -9.934  13.235  1.00  0.00     0.005 C 
HETATM   18  C   UNL     1      43.270 -11.236  12.420  1.00  0.00     0.032 C 
ENDBRANCH  14  15
ENDBRANCH  10  14
ENDBRANCH   7   8
ENDBRANCH   3   7
BRANCH   1  19
HETATM   19  C   UNL     1      42.642 -17.611   4.942  1.00  0.00     0.139 C 
HETATM   20  C   UNL     1      42.005 -17.046   3.675  1.00  0.00     0.039 C 
BRANCH  19  21
HETATM   21  C   UNL     1      43.573 -18.737   4.609  1.00  0.00     0.075 A 
HETATM   22  O   UNL     1      43.371 -19.393   3.426  1.00  0.00    -0.318 OA
HETATM   23  C   UNL     1      44.329 -20.355   3.332  1.00  0.00     0.049 A 
HETATM   24  C   UNL     1      44.308 -21.193   2.115  1.00  0.00     0.076 C 
HETATM   25  C   UNL     1      45.142 -20.328   4.443  1.00  0.00     0.035 A 
HETATM   26  C   UNL     1      44.658 -19.283   5.266  1.00  0.00     0.037 A 
ENDBRANCH  19  21
ENDBRANCH   1  19
TORSDOF 6
ENDMDL
MODEL 2
REMARK VINA RESULT:      -7.9      4.165      8.158
REMARK  6 active torsions:
REMARK  status: ('A' for Active; 'I' for Inactive)
REMARK    1  A    between atoms: C_4  and  C_5 
REMARK    2  A    between atoms: C_5  and  N_6 
REMARK       I    between atoms: N_6  and  C_7 
REMARK       I    between atoms: C_7  and  N_8 
REMARK    3  A    between atoms: N_8  and  C_9 
REMARK    4  A    between atoms: C_9  and  C_10 
REMARK    5  A    between atoms: C_12  and  O_13 
REMARK    6  A    between atoms: O_13  and  C_14 
ROOT
HETATM    1  N   UNL     1      41.945 -16.852   3.403  1.00  0.00    -0.333 N 
HETATM    2  C   UNL     1      41.343 -17.242   2.253  1.00  0.00     0.317 C 
HETATM    3  N   UNL     1      42.157 -17.727   1.284  1.00  0.00    -0.339 N 
HETATM    4  O   UNL     1      40.132 -17.191   2.063  1.00  0.00    -0.247 OA
HETATM    5  H   UNL     1      42.917 -16.581   3.363  1.00  0.00     0.165 HD
HETATM    6  H   UNL     1      41.658 -17.994   0.445  1.00  0.00     0.164 HD
ENDROOT
BRANCH   3   7
HETATM    7  C   UNL     1      43.565 -18.043   1.363  1.00  0.00     0.163 C 
BRANCH   7   8
HETATM    8  C   UNL     1      43.886 -19.278   2.166  1.00  0.00    -0.035 A 
HETATM    9  C   UNL     1      44.191 -19.253   3.531  1.00  0.00     0.066 A 
HETATM   10  C   UNL     1      44.505 -20.443   4.169  1.00  0.00     0.164 A 
HETATM   11  N   UNL     1      44.524 -21.646   3.561  1.00  0.00    -0.237 NA
HETATM   12  C   UNL     1      44.216 -21.658   2.249  1.00  0.00     0.120 A 
HETATM   13  C   UNL     1      43.896 -20.521   1.520  1.00  0.00     0.028 A 
BRANCH  10  14
HETATM   14  O   UNL     1      44.818 -20.361   5.513  1.00  0.00    -0.329 OA
BRANCH  14  15
HETATM   15  C   UNL     1      44.099 -19.363   6.269  1.00  0.00     0.130 C 
HETATM   16  C   UNL     1      43.764 -19.716   7.744  1.00  0.00     0.032 C 
HETATM   17  C   UNL     1      44.108 -18.262   8.107  1.00  0.00     0.005 C 
HETATM   18  C   UNL     1      44.979 -18.220   6.839  1.00  0.00     0.032 C 
ENDBRANCH  14  15
ENDBRANCH  10  14
ENDBRANCH   7   8
ENDBRANCH   3   7
BRANCH   1  19
HETATM   19  C   UNL     1      41.189 -16.314   4.519  1.00  0.00     0.139 C 
HETATM   20  C   UNL     1      40.952 -17.381   5.585  1.00  0.00     0.039 C 
BRANCH  19  21
HETATM   21  C   UNL     1      41.942 -15.153   5.093  1.00  0.00     0.075 A 
HETATM   22  O   UNL     1      43.110 -15.423   5.752  1.00  0.00    -0.318 OA
HETATM   23  C   UNL     1      43.619 -14.231   6.171  1.00  0.00     0.049 A 
HETATM   24  C   UNL     1      44.898 -14.281   6.908  1.00  0.00     0.076 C 
HETATM   25  C   UNL     1      42.788 -13.200   5.795  1.00  0.00     0.035 A 
HETATM   26  C   UNL     1      41.708 -13.792   5.097  1.00  0.00     0.037 A 
ENDBRANCH  19  21
ENDBRANCH   1  19
TORSDOF 6
ENDMDL
MODEL 3
REMARK VINA RESULT:      -7.9      1.944      9.452
REMARK  6 active torsions:
REMARK  status: ('A' for Active; 'I' for Inactive)
REMARK    1  A    between atoms: C_4  and  C_5 
REMARK    2  A    between atoms: C_5  and  N_6 
REMARK       I    between atoms: N_6  and  C_7 
REMARK       I    between atoms: C_7  and  N_8 
REMARK    3  A    between atoms: N_8  and  C_9 
REMARK    4  A    between atoms: C_9  and  C_10 
REMARK    5  A    between atoms: C_12  and  O_13 
REMARK    6  A    between atoms: O_13  and  C_14 
ROOT
HETATM    1  N   UNL     1      43.583 -12.336   8.256  1.00  0.00    -0.333 N 
HETATM    2  C   UNL     1      44.821 -12.859   8.087  1.00  0.00     0.317 C 
HETATM    3  N   UNL     1      44.884 -14.068   7.477  1.00  0.00    -0.339 N 
HETATM    4  O   UNL     1      45.854 -12.299   8.436  1.00  0.00    -0.247 OA
HETATM    5  H   UNL     1      42.798 -12.970   8.288  1.00  0.00     0.165 HD
HETATM    6  H   UNL     1      45.829 -14.415   7.384  1.00  0.00     0.164 HD
ENDROOT
BRANCH   3   7
HETATM    7  C   UNL     1      43.824 -14.808   6.829  1.00  0.00     0.163 C 
BRANCH   7   8
HETATM    8  C   UNL     1      43.970 -16.307   6.903  1.00  0.00    -0.035 A 
HETATM    9  C   UNL     1      44.495 -17.083   5.863  1.00  0.00     0.066 A 
HETATM   10  C   UNL     1      44.554 -18.459   6.021  1.00  0.00     0.164 A 
HETATM   11  N   UNL     1      44.149 -19.112   7.128  1.00  0.00    -0.237 NA
HETATM   12  C   UNL     1      43.659 -18.352   8.126  1.00  0.00     0.120 A 
HETATM   13  C   UNL     1      43.550 -16.970   8.062  1.00  0.00     0.028 A 
BRANCH  10  14
HETATM   14  O   UNL     1      45.061 -19.182   4.957  1.00  0.00    -0.329 OA
BRANCH  14  15
HETATM   15  C   UNL     1      44.085 -19.763   4.066  1.00  0.00     0.130 C 
HETATM   16  C   UNL     1      43.854 -19.032   2.715  1.00  0.00     0.032 C 
HETATM   17  C   UNL     1      43.772 -20.416   2.049  1.00  0.00     0.005 C 
HETATM   18  C   UNL     1      44.604 -20.958   3.225  1.00  0.00     0.032 C 
ENDBRANCH  14  15
ENDBRANCH  10  14
ENDBRANCH   7   8
ENDBRANCH   3   7
BRANCH   1  19
HETATM   19  C   UNL     1      43.375 -11.049   8.895  1.00  0.00     0.139 C 
HETATM   20  C   UNL     1      42.210 -10.300   8.253  1.00  0.00     0.039 C 
BRANCH  19  21
HETATM   21  C   UNL     1      43.119 -11.274  10.354  1.00  0.00     0.075 A 
HETATM   22  O   UNL     1      41.839 -11.098  10.804  1.00  0.00    -0.318 OA
HETATM   23  C   UNL     1      41.843 -11.364  12.139  1.00  0.00     0.049 A 
HETATM   24  C   UNL     1      40.549 -11.244  12.841  1.00  0.00     0.076 C 
HETATM   25  C   UNL     1      43.111 -11.703  12.553  1.00  0.00     0.035 A 
HETATM   26  C   UNL     1      43.935 -11.649  11.403  1.00  0.00     0.037 A 
ENDBRANCH  19  21
ENDBRANCH   1  19
TORSDOF 6
ENDMDL
MODEL 4
REMARK VINA RESULT:      -7.7      3.542      8.592
REMARK  6 active torsions:
REMARK  status: ('A' for Active; 'I' for Inactive)
REMARK    1  A    between atoms: C_4  and  C_5 
REMARK    2  A    between atoms: C_5  and  N_6 
REMARK       I    between atoms: N_6  and  C_7 
REMARK       I    between atoms: C_7  and  N_8 
REMARK    3  A    between atoms: N_8  and  C_9 
REMARK    4  A    between atoms: C_9  and  C_10 
REMARK    5  A    between atoms: C_12  and  O_13 
REMARK    6  A    between atoms: O_13  and  C_14 
ROOT
HETATM    1  N   UNL     1      44.086 -16.105   6.181  1.00  0.00    -0.333 N 
HETATM    2  C   UNL     1      43.486 -17.126   6.839  1.00  0.00     0.317 C 
HETATM    3  N   UNL     1      43.849 -18.377   6.464  1.00  0.00    -0.339 N 
HETATM    4  O   UNL     1      42.667 -16.973   7.738  1.00  0.00    -0.247 OA
HETATM    5  H   UNL     1      44.446 -16.281   5.254  1.00  0.00     0.165 HD
HETATM    6  H   UNL     1      43.365 -19.100   6.980  1.00  0.00     0.164 HD
ENDROOT
BRANCH   3   7
HETATM    7  C   UNL     1      44.914 -18.779   5.572  1.00  0.00     0.163 C 
BRANCH   7   8
HETATM    8  C   UNL     1      44.447 -19.354   4.258  1.00  0.00    -0.035 A 
HETATM    9  C   UNL     1      43.618 -18.666   3.367  1.00  0.00     0.066 A 
HETATM   10  C   UNL     1      43.219 -19.299   2.200  1.00  0.00     0.164 A 
HETATM   11  N   UNL     1      43.591 -20.547   1.851  1.00  0.00    -0.237 NA
HETATM   12  C   UNL     1      44.400 -21.193   2.712  1.00  0.00     0.120 A 
HETATM   13  C   UNL     1      44.847 -20.649   3.908  1.00  0.00     0.028 A 
BRANCH  10  14
HETATM   14  O   UNL     1      42.383 -18.584   1.362  1.00  0.00    -0.329 OA
BRANCH  14  15
HETATM   15  C   UNL     1      41.985 -17.279   1.833  1.00  0.00     0.130 C 
HETATM   16  C   UNL     1      41.894 -16.153   0.766  1.00  0.00     0.032 C 
HETATM   17  C   UNL     1      40.619 -15.666   1.476  1.00  0.00     0.005 C 
HETATM   18  C   UNL     1      40.456 -17.096   2.022  1.00  0.00     0.032 C 
ENDBRANCH  14  15
ENDBRANCH  10  14
ENDBRANCH   7   8
ENDBRANCH   3   7
BRANCH   1  19
HETATM   19  C   UNL     1      43.787 -14.717   6.484  1.00  0.00     0.139 C 
HETATM   20  C   UNL     1      45.022 -13.994   7.016  1.00  0.00     0.039 C 
BRANCH  19  21
HETATM   21  C   UNL     1      43.281 -14.053   5.241  1.00  0.00     0.075 A 
HETATM   22  O   UNL     1      42.394 -13.022   5.394  1.00  0.00    -0.318 OA
HETATM   23  C   UNL     1      42.085 -12.570   4.147  1.00  0.00     0.049 A 
HETATM   24  C   UNL     1      41.138 -11.439   4.069  1.00  0.00     0.076 C 
HETATM   25  C   UNL     1      42.758 -13.303   3.195  1.00  0.00     0.035 A 
HETATM   26  C   UNL     1      43.531 -14.257   3.899  1.00  0.00     0.037 A 
ENDBRANCH  19  21
ENDBRANCH   1  19
TORSDOF 6
ENDMDL
MODEL 5
REMARK VINA RESULT:      -7.7      2.510      9.190
REMARK  6 active torsions:
REMARK  status: ('A' for Active; 'I' for Inactive)
REMARK    1  A    between atoms: C_4  and  C_5 
REMARK    2  A    between atoms: C_5  and  N_6 
REMARK       I    between atoms: N_6  and  C_7 
REMARK       I    between atoms: C_7  and  N_8 
REMARK    3  A    between atoms: N_8  and  C_9 
REMARK    4  A    between atoms: C_9  and  C_10 
REMARK    5  A    between atoms: C_12  and  O_13 
REMARK    6  A    between atoms: O_13  and  C_14 
ROOT
HETATM    1  N   UNL     1      43.638 -14.412   5.514  1.00  0.00    -0.333 N 
HETATM    2  C   UNL     1      42.539 -13.682   5.206  1.00  0.00     0.317 C 
HETATM    3  N   UNL     1      42.352 -13.405   3.893  1.00  0.00    -0.339 N 
HETATM    4  O   UNL     1      41.726 -13.286   6.034  1.00  0.00    -0.247 OA
HETATM    5  H   UNL     1      44.420 -14.388   4.876  1.00  0.00     0.165 HD
HETATM    6  H   UNL     1      41.524 -12.850   3.720  1.00  0.00     0.164 HD
ENDROOT
BRANCH   3   7
HETATM    7  C   UNL     1      43.072 -13.920   2.750  1.00  0.00     0.163 C 
BRANCH   7   8
HETATM    8  C   UNL     1      42.704 -15.329   2.360  1.00  0.00    -0.035 A 
HETATM    9  C   UNL     1      43.618 -16.388   2.342  1.00  0.00     0.066 A 
HETATM   10  C   UNL     1      43.183 -17.640   1.935  1.00  0.00     0.164 A 
HETATM   11  N   UNL     1      41.918 -17.918   1.562  1.00  0.00    -0.237 NA
HETATM   12  C   UNL     1      41.045 -16.892   1.596  1.00  0.00     0.120 A 
HETATM   13  C   UNL     1      41.384 -15.602   1.981  1.00  0.00     0.028 A 
BRANCH  10  14
HETATM   14  O   UNL     1      44.129 -18.648   1.916  1.00  0.00    -0.329 OA
BRANCH  14  15
HETATM   15  C   UNL     1      43.767 -19.867   2.599  1.00  0.00     0.130 C 
HETATM   16  C   UNL     1      43.694 -21.154   1.733  1.00  0.00     0.032 C 
HETATM   17  C   UNL     1      44.352 -21.906   2.902  1.00  0.00     0.005 C 
HETATM   18  C   UNL     1      44.930 -20.555   3.359  1.00  0.00     0.032 C 
ENDBRANCH  14  15
ENDBRANCH  10  14
ENDBRANCH   7   8
ENDBRANCH   3   7
BRANCH   1  19
HETATM   19  C   UNL     1      43.956 -14.777   6.883  1.00  0.00     0.139 C 
HETATM   20  C   UNL     1      44.560 -16.178   6.950  1.00  0.00     0.039 C 
BRANCH  19  21
HETATM   21  C   UNL     1      44.909 -13.765   7.441  1.00  0.00     0.075 A 
HETATM   22  O   UNL     1      44.614 -13.230   8.665  1.00  0.00    -0.318 OA
HETATM   23  C   UNL     1      45.611 -12.355   8.972  1.00  0.00     0.049 A 
HETATM   24  C   UNL     1      45.503 -11.658  10.270  1.00  0.00     0.076 C 
HETATM   25  C   UNL     1      46.539 -12.316   7.956  1.00  0.00     0.035 A 
HETATM   26  C   UNL     1      46.090 -13.227   6.969  1.00  0.00     0.037 A 
ENDBRANCH  19  21
ENDBRANCH   1  19
TORSDOF 6
ENDMDL
MODEL 6
REMARK VINA RESULT:      -7.6      4.939      8.000
REMARK  6 active torsions:
REMARK  status: ('A' for Active; 'I' for Inactive)
REMARK    1  A    between atoms: C_4  and  C_5 
REMARK    2  A    between atoms: C_5  and  N_6 
REMARK       I    between atoms: N_6  and  C_7 
REMARK       I    between atoms: C_7  and  N_8 
REMARK    3  A    between atoms: N_8  and  C_9 
REMARK    4  A    between atoms: C_9  and  C_10 
REMARK    5  A    between atoms: C_12  and  O_13 
REMARK    6  A    between atoms: O_13  and  C_14 
ROOT
HETATM    1  N   UNL     1      41.549 -15.048   4.201  1.00  0.00    -0.333 N 
HETATM    2  C   UNL     1      41.138 -14.483   5.362  1.00  0.00     0.317 C 
HETATM    3  N   UNL     1      40.672 -15.331   6.311  1.00  0.00    -0.339 N 
HETATM    4  O   UNL     1      41.182 -13.279   5.591  1.00  0.00    -0.247 OA
HETATM    5  H   UNL     1      41.163 -15.944   3.945  1.00  0.00     0.165 HD
HETATM    6  H   UNL     1      40.370 -14.857   7.152  1.00  0.00     0.164 HD
ENDROOT
BRANCH   3   7
HETATM    7  C   UNL     1      40.704 -16.777   6.323  1.00  0.00     0.163 C 
BRANCH   7   8
HETATM    8  C   UNL     1      42.086 -17.372   6.426  1.00  0.00    -0.035 A 
HETATM    9  C   UNL     1      42.767 -17.933   5.340  1.00  0.00     0.066 A 
HETATM   10  C   UNL     1      44.022 -18.485   5.551  1.00  0.00     0.164 A 
HETATM   11  N   UNL     1      44.649 -18.507   6.743  1.00  0.00    -0.237 NA
HETATM   12  C   UNL     1      43.988 -17.951   7.777  1.00  0.00     0.120 A 
HETATM   13  C   UNL     1      42.726 -17.382   7.671  1.00  0.00     0.028 A 
BRANCH  10  14
HETATM   14  O   UNL     1      44.643 -19.044   4.450  1.00  0.00    -0.329 OA
BRANCH  14  15
HETATM   15  C   UNL     1      43.835 -19.939   3.656  1.00  0.00     0.130 C 
HETATM   16  C   UNL     1      43.587 -19.526   2.179  1.00  0.00     0.032 C 
HETATM   17  C   UNL     1      43.770 -21.005   1.798  1.00  0.00     0.005 C 
HETATM   18  C   UNL     1      44.593 -21.167   3.088  1.00  0.00     0.032 C 
ENDBRANCH  14  15
ENDBRANCH  10  14
ENDBRANCH   7   8
ENDBRANCH   3   7
BRANCH   1  19
HETATM   19  C   UNL     1      42.070 -14.253   3.104  1.00  0.00     0.139 C 
HETATM   20  C   UNL     1      43.561 -13.980   3.284  1.00  0.00     0.039 C 
BRANCH  19  21
HETATM   21  C   UNL     1      41.817 -14.983   1.821  1.00  0.00     0.075 A 
HETATM   22  O   UNL     1      41.494 -14.233   0.722  1.00  0.00    -0.318 OA
HETATM   23  C   UNL     1      41.323 -15.096  -0.317  1.00  0.00     0.049 A 
HETATM   24  C   UNL     1      40.973 -14.499  -1.622  1.00  0.00     0.076 C 
HETATM   25  C   UNL     1      41.526 -16.392   0.103  1.00  0.00     0.035 A 
HETATM   26  C   UNL     1      41.848 -16.320   1.479  1.00  0.00     0.037 A 
ENDBRANCH  19  21
ENDBRANCH   1  19
TORSDOF 6
ENDMDL
MODEL 7
REMARK VINA RESULT:      -7.6      4.845      8.297
REMARK  6 active torsions:
REMARK  status: ('A' for Active; 'I' for Inactive)
REMARK    1  A    between atoms: C_4  and  C_5 
REMARK    2  A    between atoms: C_5  and  N_6 
REMARK       I    between atoms: N_6  and  C_7 
REMARK       I    between atoms: C_7  and  N_8 
REMARK    3  A    between atoms: N_8  and  C_9 
REMARK    4  A    between atoms: C_9  and  C_10 
REMARK    5  A    between atoms: C_12  and  O_13 
REMARK    6  A    between atoms: O_13  and  C_14 
ROOT
HETATM    1  N   UNL     1      43.009 -15.791   5.028  1.00  0.00    -0.333 N 
HETATM    2  C   UNL     1      42.192 -15.981   6.092  1.00  0.00     0.317 C 
HETATM    3  N   UNL     1      42.670 -16.775   7.081  1.00  0.00    -0.339 N 
HETATM    4  O   UNL     1      41.082 -15.472   6.202  1.00  0.00    -0.247 OA
HETATM    5  H   UNL     1      43.709 -16.492   4.833  1.00  0.00     0.165 HD
HETATM    6  H   UNL     1      42.017 -16.891   7.845  1.00  0.00     0.164 HD
ENDROOT
BRANCH   3   7
HETATM    7  C   UNL     1      44.000 -17.318   7.240  1.00  0.00     0.163 C 
BRANCH   7   8
HETATM    8  C   UNL     1      44.164 -18.732   6.743  1.00  0.00    -0.035 A 
HETATM    9  C   UNL     1      44.858 -19.063   5.574  1.00  0.00     0.066 A 
HETATM   10  C   UNL     1      44.920 -20.393   5.187  1.00  0.00     0.164 A 
HETATM   11  N   UNL     1      44.364 -21.409   5.877  1.00  0.00    -0.237 NA
HETATM   12  C   UNL     1      43.711 -21.077   7.008  1.00  0.00     0.120 A 
HETATM   13  C   UNL     1      43.585 -19.776   7.474  1.00  0.00     0.028 A 
BRANCH  10  14
HETATM   14  O   UNL     1      45.599 -20.666   4.015  1.00  0.00    -0.329 OA
BRANCH  14  15
HETATM   15  C   UNL     1      44.862 -20.445   2.793  1.00  0.00     0.130 C 
HETATM   16  C   UNL     1      44.548 -21.701   1.934  1.00  0.00     0.032 C 
HETATM   17  C   UNL     1      43.156 -21.099   1.673  1.00  0.00     0.005 C 
HETATM   18  C   UNL     1      43.329 -20.300   2.977  1.00  0.00     0.032 C 
ENDBRANCH  14  15
ENDBRANCH  10  14
ENDBRANCH   7   8
ENDBRANCH   3   7
BRANCH   1  19
HETATM   19  C   UNL     1      42.619 -14.964   3.900  1.00  0.00     0.139 C 
HETATM   20  C   UNL     1      43.487 -13.711   3.814  1.00  0.00     0.039 C 
BRANCH  19  21
HETATM   21  C   UNL     1      42.737 -15.775   2.647  1.00  0.00     0.075 A 
HETATM   22  O   UNL     1      41.828 -15.535   1.653  1.00  0.00    -0.318 OA
HETATM   23  C   UNL     1      42.132 -16.369   0.620  1.00  0.00     0.049 A 
HETATM   24  C   UNL     1      41.275 -16.275  -0.580  1.00  0.00     0.076 C 
HETATM   25  C   UNL     1      43.222 -17.146   0.942  1.00  0.00     0.035 A 
HETATM   26  C   UNL     1      43.615 -16.763   2.246  1.00  0.00     0.037 A 
ENDBRANCH  19  21
ENDBRANCH   1  19
TORSDOF 6
ENDMDL
MODEL 8
REMARK VINA RESULT:      -7.5      4.625      8.214
REMARK  6 active torsions:
REMARK  status: ('A' for Active; 'I' for Inactive)
REMARK    1  A    between atoms: C_4  and  C_5 
REMARK    2  A    between atoms: C_5  and  N_6 
REMARK       I    between atoms: N_6  and  C_7 
REMARK       I    between atoms: C_7  and  N_8 
REMARK    3  A    between atoms: N_8  and  C_9 
REMARK    4  A    between atoms: C_9  and  C_10 
REMARK    5  A    between atoms: C_12  and  O_13 
REMARK    6  A    between atoms: O_13  and  C_14 
ROOT
HETATM    1  N   UNL     1      42.394 -15.530   5.541  1.00  0.00    -0.333 N 
HETATM    2  C   UNL     1      42.089 -14.239   5.265  1.00  0.00     0.317 C 
HETATM    3  N   UNL     1      42.780 -13.662   4.253  1.00  0.00    -0.339 N 
HETATM    4  O   UNL     1      41.232 -13.596   5.862  1.00  0.00    -0.247 OA
HETATM    5  H   UNL     1      43.310 -15.869   5.285  1.00  0.00     0.165 HD
HETATM    6  H   UNL     1      42.520 -12.697   4.096  1.00  0.00     0.164 HD
ENDROOT
BRANCH   3   7
HETATM    7  C   UNL     1      43.686 -14.281   3.310  1.00  0.00     0.163 C 
BRANCH   7   8
HETATM    8  C   UNL     1      43.076 -15.390   2.490  1.00  0.00    -0.035 A 
HETATM    9  C   UNL     1      43.715 -16.610   2.247  1.00  0.00     0.066 A 
HETATM   10  C   UNL     1      43.079 -17.550   1.450  1.00  0.00     0.164 A 
HETATM   11  N   UNL     1      41.863 -17.375   0.896  1.00  0.00    -0.237 NA
HETATM   12  C   UNL     1      41.253 -16.201   1.150  1.00  0.00     0.120 A 
HETATM   13  C   UNL     1      41.809 -15.194   1.927  1.00  0.00     0.028 A 
BRANCH  10  14
HETATM   14  O   UNL     1      43.762 -18.731   1.223  1.00  0.00    -0.329 OA
BRANCH  14  15
HETATM   15  C   UNL     1      43.582 -19.764   2.215  1.00  0.00     0.130 C 
HETATM   16  C   UNL     1      43.483 -21.223   1.690  1.00  0.00     0.032 C 
HETATM   17  C   UNL     1      44.344 -21.650   2.890  1.00  0.00     0.005 C 
HETATM   18  C   UNL     1      44.883 -20.209   2.932  1.00  0.00     0.032 C 
ENDBRANCH  14  15
ENDBRANCH  10  14
ENDBRANCH   7   8
ENDBRANCH   3   7
BRANCH   1  19
HETATM   19  C   UNL     1      41.728 -16.266   6.601  1.00  0.00     0.139 C 
HETATM   20  C   UNL     1      40.447 -16.921   6.092  1.00  0.00     0.039 C 
BRANCH  19  21
HETATM   21  C   UNL     1      42.673 -17.298   7.136  1.00  0.00     0.075 A 
HETATM   22  O   UNL     1      42.797 -18.464   6.431  1.00  0.00    -0.318 OA
HETATM   23  C   UNL     1      43.706 -19.236   7.089  1.00  0.00     0.049 A 
HETATM   24  C   UNL     1      44.007 -20.554   6.495  1.00  0.00     0.076 C 
HETATM   25  C   UNL     1      44.162 -18.581   8.211  1.00  0.00     0.035 A 
HETATM   26  C   UNL     1      43.500 -17.331   8.241  1.00  0.00     0.037 A 
ENDBRANCH  19  21
ENDBRANCH   1  19
TORSDOF 6
ENDMDL
MODEL 9
REMARK VINA RESULT:      -7.5      4.598      7.082
REMARK  6 active torsions:
REMARK  status: ('A' for Active; 'I' for Inactive)
REMARK    1  A    between atoms: C_4  and  C_5 
REMARK    2  A    between atoms: C_5  and  N_6 
REMARK       I    between atoms: N_6  and  C_7 
REMARK       I    between atoms: C_7  and  N_8 
REMARK    3  A    between atoms: N_8  and  C_9 
REMARK    4  A    between atoms: C_9  and  C_10 
REMARK    5  A    between atoms: C_12  and  O_13 
REMARK    6  A    between atoms: O_13  and  C_14 
ROOT
HETATM    1  N   UNL     1      43.140 -17.569   5.645  1.00  0.00    -0.333 N 
HETATM    2  C   UNL     1      43.437 -16.478   6.391  1.00  0.00     0.317 C 
HETATM    3  N   UNL     1      42.416 -15.620   6.633  1.00  0.00    -0.339 N 
HETATM    4  O   UNL     1      44.549 -16.248   6.855  1.00  0.00    -0.247 OA
HETATM    5  H   UNL     1      42.352 -17.515   5.016  1.00  0.00     0.165 HD
HETATM    6  H   UNL     1      42.695 -14.820   7.186  1.00  0.00     0.164 HD
ENDROOT
BRANCH   3   7
HETATM    7  C   UNL     1      41.009 -15.788   6.346  1.00  0.00     0.163 C 
BRANCH   7   8
HETATM    8  C   UNL     1      40.447 -14.792   5.363  1.00  0.00    -0.035 A 
HETATM    9  C   UNL     1      40.339 -15.040   3.991  1.00  0.00     0.066 A 
HETATM   10  C   UNL     1      39.839 -14.042   3.168  1.00  0.00     0.164 A 
HETATM   11  N   UNL     1      39.429 -12.835   3.605  1.00  0.00    -0.237 NA
HETATM   12  C   UNL     1      39.526 -12.614   4.931  1.00  0.00     0.120 A 
HETATM   13  C   UNL     1      40.020 -13.544   5.834  1.00  0.00     0.028 A 
BRANCH  10  14
HETATM   14  O   UNL     1      39.771 -14.330   1.817  1.00  0.00    -0.329 OA
BRANCH  14  15
HETATM   15  C   UNL     1      40.926 -14.988   1.254  1.00  0.00     0.130 C 
HETATM   16  C   UNL     1      40.824 -16.525   1.055  1.00  0.00     0.032 C 
HETATM   17  C   UNL     1      41.554 -16.340  -0.286  1.00  0.00     0.005 C 
HETATM   18  C   UNL     1      41.041 -14.889  -0.290  1.00  0.00     0.032 C 
ENDBRANCH  14  15
ENDBRANCH  10  14
ENDBRANCH   7   8
ENDBRANCH   3   7
BRANCH   1  19
HETATM   19  C   UNL     1      44.141 -18.566   5.312  1.00  0.00     0.139 C 
HETATM   20  C   UNL     1      44.047 -19.771   6.245  1.00  0.00     0.039 C 
BRANCH  19  21
HETATM   21  C   UNL     1      43.946 -18.985   3.887  1.00  0.00     0.075 A 
HETATM   22  O   UNL     1      44.166 -20.300   3.581  1.00  0.00    -0.318 OA
HETATM   23  C   UNL     1      43.919 -20.449   2.250  1.00  0.00     0.049 A 
HETATM   24  C   UNL     1      44.087 -21.808   1.695  1.00  0.00     0.076 C 
HETATM   25  C   UNL     1      43.551 -19.244   1.697  1.00  0.00     0.035 A 
HETATM   26  C   UNL     1      43.565 -18.299   2.751  1.00  0.00     0.037 A 
ENDBRANCH  19  21
ENDBRANCH   1  19
TORSDOF 6
ENDMDL
MODEL 10
REMARK VINA RESULT:      -7.3      3.815      8.459
REMARK  6 active torsions:
REMARK  status: ('A' for Active; 'I' for Inactive)
REMARK    1  A    between atoms: C_4  and  C_5 
REMARK    2  A    between atoms: C_5  and  N_6 
REMARK       I    between atoms: N_6  and  C_7 
REMARK       I    between atoms: C_7  and  N_8 
REMARK    3  A    between atoms: N_8  and  C_9 
REMARK    4  A    between atoms: C_9  and  C_10 
REMARK    5  A    between atoms: C_12  and  O_13 
REMARK    6  A    between atoms: O_13  and  C_14 
ROOT
HETATM    1  N   UNL     1      43.081 -14.765   5.907  1.00  0.00    -0.333 N 
HETATM    2  C   UNL     1      43.908 -14.952   6.964  1.00  0.00     0.317 C 
HETATM    3  N   UNL     1      43.664 -16.042   7.731  1.00  0.00    -0.339 N 
HETATM    4  O   UNL     1      44.846 -14.211   7.238  1.00  0.00    -0.247 OA
HETATM    5  H   UNL     1      42.157 -15.170   5.947  1.00  0.00     0.165 HD
HETATM    6  H   UNL     1      44.303 -16.129   8.510  1.00  0.00     0.164 HD
ENDROOT
BRANCH   3   7
HETATM    7  C   UNL     1      42.745 -17.131   7.486  1.00  0.00     0.163 C 
BRANCH   7   8
HETATM    8  C   UNL     1      43.309 -18.252   6.650  1.00  0.00    -0.035 A 
HETATM    9  C   UNL     1      43.501 -18.162   5.267  1.00  0.00     0.066 A 
HETATM   10  C   UNL     1      43.995 -19.265   4.587  1.00  0.00     0.164 A 
HETATM   11  N   UNL     1      44.322 -20.432   5.175  1.00  0.00    -0.237 NA
HETATM   12  C   UNL     1      44.145 -20.501   6.509  1.00  0.00     0.120 A 
HETATM   13  C   UNL     1      43.650 -19.457   7.277  1.00  0.00     0.028 A 
BRANCH  10  14
HETATM   14  O   UNL     1      44.147 -19.131   3.220  1.00  0.00    -0.329 OA
BRANCH  14  15
HETATM   15  C   UNL     1      43.556 -17.952   2.632  1.00  0.00     0.130 C 
HETATM   16  C   UNL     1      44.231 -17.403   1.345  1.00  0.00     0.032 C 
HETATM   17  C   UNL     1      42.821 -17.132   0.793  1.00  0.00     0.005 C 
HETATM   18  C   UNL     1      42.308 -18.222   1.751  1.00  0.00     0.032 C 
ENDBRANCH  14  15
ENDBRANCH  10  14
ENDBRANCH   7   8
ENDBRANCH   3   7
BRANCH   1  19
HETATM   19  C   UNL     1      43.232 -13.638   5.005  1.00  0.00     0.139 C 
HETATM   20  C   UNL     1      43.540 -14.107   3.586  1.00  0.00     0.039 C 
BRANCH  19  21
HETATM   21  C   UNL     1      41.971 -12.829   5.033  1.00  0.00     0.075 A 
HETATM   22  O   UNL     1      41.143 -12.916   3.947  1.00  0.00    -0.318 OA
HETATM   23  C   UNL     1      40.069 -12.117   4.196  1.00  0.00     0.049 A 
HETATM   24  C   UNL     1      39.029 -12.062   3.149  1.00  0.00     0.076 C 
HETATM   25  C   UNL     1      40.201 -11.513   5.426  1.00  0.00     0.035 A 
HETATM   26  C   UNL     1      41.425 -11.973   5.968  1.00  0.00     0.037 A 
ENDBRANCH  19  21
ENDBRANCH   1  19
TORSDOF 6
ENDMDL
