MODEL 1
REMARK VINA RESULT:      -9.2      0.000      0.000
REMARK  4 active torsions:
REMARK  status: ('A' for Active; 'I' for Inactive)
REMARK    1  A    between atoms: C_5  and  C_6 
REMARK       I    between atoms: C_6  and  N_7 
REMARK    2  A    between atoms: N_7  and  C_8 
REMARK    3  A    between atoms: C_12  and  C_13 
REMARK    4  A    between atoms: C_13  and  C_14 
ROOT
HETATM    1  C   UNL     1      41.372 -17.072   1.055  1.00  0.00     0.747 A 
HETATM    2  N   UNL     1      40.411 -16.438   1.734  1.00  0.00     0.020 NA
HETATM    3  N   UNL     1      40.149 -15.396   0.927  1.00  0.00    -0.248 N 
HETATM    4  H   UNL     1      39.461 -14.707   1.207  1.00  0.00     0.191 HD
HETATM    5  C   UNL     1      40.937 -15.424  -0.186  1.00  0.00     0.144 A 
HETATM    6  N   UNL     1      41.699 -16.494  -0.132  1.00  0.00    -0.046 NA
ENDROOT
BRANCH   1   7
HETATM    7  N   UNL     1      41.981 -18.180   1.570  1.00  0.00    -0.150 N 
HETATM    8  C   UNL     1      43.337 -18.348   1.685  1.00  0.00     0.271 C 
HETATM    9  O   UNL     1      44.215 -17.576   1.317  1.00  0.00    -0.267 OA
HETATM   10  H   UNL     1      41.335 -18.846   1.961  1.00  0.00     0.188 HD
BRANCH   8  11
HETATM   11  C   UNL     1      43.753 -19.576   2.408  1.00  0.00     0.045 A 
HETATM   12  C   UNL     1      44.064 -19.589   3.789  1.00  0.00     0.008 A 
HETATM   13  C   UNL     1      44.494 -20.795   4.355  1.00  0.00     0.043 A 
HETATM   14  C   UNL     1      44.028 -18.637   4.855  1.00  0.00     0.032 A 
HETATM   15  C   UNL     1      44.610 -21.982   3.621  1.00  0.00     0.030 A 
HETATM   16  N   UNL     1      44.750 -20.560   5.688  1.00  0.00    -0.365 N 
HETATM   17  C   UNL     1      44.265 -21.953   2.268  1.00  0.00     0.003 A 
HETATM   18  C   UNL     1      43.841 -20.770   1.670  1.00  0.00     0.018 A 
HETATM   19  H   UNL     1      45.078 -21.259   6.340  1.00  0.00     0.165 HD
HETATM   20  C   UNL     1      44.468 -19.259   6.001  1.00  0.00     0.089 A 
ENDBRANCH   8  11
ENDBRANCH   1   7
BRANCH   5  21
HETATM   21  C   UNL     1      40.945 -14.355  -1.221  1.00  0.00     0.119 C 
BRANCH  21  22
HETATM   22  C   UNL     1      39.854 -14.521  -2.256  1.00  0.00    -0.045 A 
HETATM   23  C   UNL     1      39.912 -15.547  -3.215  1.00  0.00     0.050 A 
HETATM   24  C   UNL     1      38.891 -15.697  -4.151  1.00  0.00     0.119 A 
HETATM   25  F   UNL     1      38.974 -16.669  -5.069  1.00  0.00    -0.206 F 
HETATM   26  C   UNL     1      37.788 -14.856  -4.149  1.00  0.00     0.084 A 
HETATM   27  C   UNL     1      37.715 -13.859  -3.189  1.00  0.00     0.119 A 
HETATM   28  F   UNL     1      36.652 -13.045  -3.164  1.00  0.00    -0.206 F 
HETATM   29  C   UNL     1      38.728 -13.684  -2.245  1.00  0.00     0.050 A 
ENDBRANCH  21  22
ENDBRANCH   5  21
TORSDOF 4
ENDMDL
MODEL 2
REMARK VINA RESULT:      -9.1      0.757      1.868
REMARK  4 active torsions:
REMARK  status: ('A' for Active; 'I' for Inactive)
REMARK    1  A    between atoms: C_5  and  C_6 
REMARK       I    between atoms: C_6  and  N_7 
REMARK    2  A    between atoms: N_7  and  C_8 
REMARK    3  A    between atoms: C_12  and  C_13 
REMARK    4  A    between atoms: C_13  and  C_14 
ROOT
HETATM    1  C   UNL     1      41.460 -16.869   1.288  1.00  0.00     0.747 A 
HETATM    2  N   UNL     1      40.273 -16.398   1.684  1.00  0.00     0.020 NA
HETATM    3  N   UNL     1      40.017 -15.477   0.739  1.00  0.00    -0.248 N 
HETATM    4  H   UNL     1      39.172 -14.922   0.799  1.00  0.00     0.191 HD
HETATM    5  C   UNL     1      41.027 -15.414  -0.175  1.00  0.00     0.144 A 
HETATM    6  N   UNL     1      41.936 -16.308   0.144  1.00  0.00    -0.046 NA
ENDROOT
BRANCH   1   7
HETATM    7  N   UNL     1      42.126 -17.803   2.028  1.00  0.00    -0.150 N 
HETATM    8  C   UNL     1      43.462 -17.754   2.336  1.00  0.00     0.271 C 
HETATM    9  O   UNL     1      44.277 -16.913   1.975  1.00  0.00    -0.267 OA
HETATM   10  H   UNL     1      41.522 -18.504   2.425  1.00  0.00     0.188 HD
BRANCH   8  11
HETATM   11  C   UNL     1      43.924 -18.809   3.272  1.00  0.00     0.045 A 
HETATM   12  C   UNL     1      44.097 -20.160   2.885  1.00  0.00     0.008 A 
HETATM   13  C   UNL     1      44.488 -21.079   3.866  1.00  0.00     0.043 A 
HETATM   14  C   UNL     1      44.003 -20.894   1.663  1.00  0.00     0.032 A 
HETATM   15  C   UNL     1      44.730 -20.717   5.197  1.00  0.00     0.030 A 
HETATM   16  N   UNL     1      44.575 -22.315   3.265  1.00  0.00    -0.365 N 
HETATM   17  C   UNL     1      44.585 -19.372   5.547  1.00  0.00     0.003 A 
HETATM   18  C   UNL     1      44.191 -18.432   4.601  1.00  0.00     0.018 A 
HETATM   19  H   UNL     1      44.836 -23.167   3.742  1.00  0.00     0.165 HD
HETATM   20  C   UNL     1      44.287 -22.213   1.932  1.00  0.00     0.089 A 
ENDBRANCH   8  11
ENDBRANCH   1   7
BRANCH   5  21
HETATM   21  C   UNL     1      41.076 -14.427  -1.288  1.00  0.00     0.119 C 
BRANCH  21  22
HETATM   22  C   UNL     1      39.950 -14.599  -2.285  1.00  0.00    -0.045 A 
HETATM   23  C   UNL     1      39.984 -15.620  -3.250  1.00  0.00     0.050 A 
HETATM   24  C   UNL     1      38.931 -15.774  -4.150  1.00  0.00     0.119 A 
HETATM   25  F   UNL     1      38.991 -16.741  -5.075  1.00  0.00    -0.206 F 
HETATM   26  C   UNL     1      37.821 -14.944  -4.105  1.00  0.00     0.084 A 
HETATM   27  C   UNL     1      37.773 -13.951  -3.138  1.00  0.00     0.119 A 
HETATM   28  F   UNL     1      36.704 -13.148  -3.071  1.00  0.00    -0.206 F 
HETATM   29  C   UNL     1      38.818 -13.772  -2.230  1.00  0.00     0.050 A 
ENDBRANCH  21  22
ENDBRANCH   5  21
TORSDOF 4
ENDMDL
MODEL 3
REMARK VINA RESULT:      -9.1      0.772      2.472
REMARK  4 active torsions:
REMARK  status: ('A' for Active; 'I' for Inactive)
REMARK    1  A    between atoms: C_5  and  C_6 
REMARK       I    between atoms: C_6  and  N_7 
REMARK    2  A    between atoms: N_7  and  C_8 
REMARK    3  A    between atoms: C_12  and  C_13 
REMARK    4  A    between atoms: C_13  and  C_14 
ROOT
HETATM    1  C   UNL     1      41.429 -16.795   1.304  1.00  0.00     0.747 A 
HETATM    2  N   UNL     1      40.264 -16.300   1.734  1.00  0.00     0.020 NA
HETATM    3  N   UNL     1      39.990 -15.387   0.786  1.00  0.00    -0.248 N 
HETATM    4  H   UNL     1      39.155 -14.818   0.868  1.00  0.00     0.191 HD
HETATM    5  C   UNL     1      40.968 -15.352  -0.163  1.00  0.00     0.144 A 
HETATM    6  N   UNL     1      41.874 -16.256   0.136  1.00  0.00    -0.046 NA
ENDROOT
BRANCH   1   7
HETATM    7  N   UNL     1      42.106 -17.730   2.032  1.00  0.00    -0.150 N 
HETATM    8  C   UNL     1      43.421 -17.631   2.407  1.00  0.00     0.271 C 
HETATM    9  O   UNL     1      44.209 -16.736   2.126  1.00  0.00    -0.267 OA
HETATM   10  H   UNL     1      41.520 -18.478   2.367  1.00  0.00     0.188 HD
BRANCH   8  11
HETATM   11  C   UNL     1      43.891 -18.706   3.316  1.00  0.00     0.045 A 
HETATM   12  C   UNL     1      44.057 -20.049   2.900  1.00  0.00     0.008 A 
HETATM   13  C   UNL     1      44.456 -20.990   3.857  1.00  0.00     0.043 A 
HETATM   14  C   UNL     1      43.947 -20.758   1.663  1.00  0.00     0.032 A 
HETATM   15  C   UNL     1      44.714 -20.656   5.193  1.00  0.00     0.030 A 
HETATM   16  N   UNL     1      44.534 -22.213   3.229  1.00  0.00    -0.365 N 
HETATM   17  C   UNL     1      44.577 -19.318   5.572  1.00  0.00     0.003 A 
HETATM   18  C   UNL     1      44.174 -18.357   4.650  1.00  0.00     0.018 A 
HETATM   19  H   UNL     1      44.798 -23.075   3.686  1.00  0.00     0.165 HD
HETATM   20  C   UNL     1      44.231 -22.083   1.902  1.00  0.00     0.089 A 
ENDBRANCH   8  11
ENDBRANCH   1   7
BRANCH   5  21
HETATM   21  C   UNL     1      40.994 -14.379  -1.289  1.00  0.00     0.119 C 
BRANCH  21  22
HETATM   22  C   UNL     1      39.861 -14.579  -2.273  1.00  0.00    -0.045 A 
HETATM   23  C   UNL     1      38.739 -13.733  -2.271  1.00  0.00     0.050 A 
HETATM   24  C   UNL     1      37.712 -13.920  -3.194  1.00  0.00     0.119 A 
HETATM   25  F   UNL     1      36.643 -13.115  -3.163  1.00  0.00    -0.206 F 
HETATM   26  C   UNL     1      37.779 -14.927  -4.145  1.00  0.00     0.084 A 
HETATM   27  C   UNL     1      38.895 -15.749  -4.166  1.00  0.00     0.119 A 
HETATM   28  F   UNL     1      38.983 -16.719  -5.085  1.00  0.00    -0.206 F 
HETATM   29  C   UNL     1      39.933 -15.586  -3.248  1.00  0.00     0.050 A 
ENDBRANCH  21  22
ENDBRANCH   5  21
TORSDOF 4
ENDMDL
MODEL 4
REMARK VINA RESULT:      -9.1      3.671      9.053
REMARK  4 active torsions:
REMARK  status: ('A' for Active; 'I' for Inactive)
REMARK    1  A    between atoms: C_5  and  C_6 
REMARK       I    between atoms: C_6  and  N_7 
REMARK    2  A    between atoms: N_7  and  C_8 
REMARK    3  A    between atoms: C_12  and  C_13 
REMARK    4  A    between atoms: C_13  and  C_14 
ROOT
HETATM    1  C   UNL     1      41.491 -16.870   1.848  1.00  0.00     0.747 A 
HETATM    2  N   UNL     1      40.781 -17.215   2.927  1.00  0.00     0.020 NA
HETATM    3  N   UNL     1      41.738 -17.693   3.740  1.00  0.00    -0.248 N 
HETATM    4  H   UNL     1      41.482 -18.065   4.647  1.00  0.00     0.191 HD
HETATM    5  C   UNL     1      42.965 -17.630   3.149  1.00  0.00     0.144 A 
HETATM    6  N   UNL     1      42.829 -17.086   1.960  1.00  0.00    -0.046 NA
ENDROOT
BRANCH   1   7
HETATM    7  N   UNL     1      40.876 -16.387   0.729  1.00  0.00    -0.150 N 
HETATM    8  C   UNL     1      41.140 -15.170   0.152  1.00  0.00     0.271 C 
HETATM    9  O   UNL     1      41.917 -14.311   0.551  1.00  0.00    -0.267 OA
HETATM   10  H   UNL     1      40.263 -17.054   0.289  1.00  0.00     0.188 HD
BRANCH   8  11
HETATM   11  C   UNL     1      40.447 -14.931  -1.139  1.00  0.00     0.045 A 
HETATM   12  C   UNL     1      39.375 -14.017  -1.279  1.00  0.00     0.008 A 
HETATM   13  C   UNL     1      38.762 -13.910  -2.533  1.00  0.00     0.043 A 
HETATM   14  C   UNL     1      38.713 -13.077  -0.429  1.00  0.00     0.032 A 
HETATM   15  C   UNL     1      39.174 -14.651  -3.649  1.00  0.00     0.030 A 
HETATM   16  N   UNL     1      37.749 -12.984  -2.423  1.00  0.00    -0.365 N 
HETATM   17  C   UNL     1      40.256 -15.521  -3.494  1.00  0.00     0.003 A 
HETATM   18  C   UNL     1      40.885 -15.659  -2.261  1.00  0.00     0.018 A 
HETATM   19  H   UNL     1      37.138 -12.711  -3.180  1.00  0.00     0.165 HD
HETATM   20  C   UNL     1      37.714 -12.472  -1.156  1.00  0.00     0.089 A 
ENDBRANCH   8  11
ENDBRANCH   1   7
BRANCH   5  21
HETATM   21  C   UNL     1      44.208 -18.170   3.764  1.00  0.00     0.119 C 
BRANCH  21  22
HETATM   22  C   UNL     1      44.347 -19.669   3.604  1.00  0.00    -0.045 A 
HETATM   23  C   UNL     1      44.730 -20.482   4.685  1.00  0.00     0.050 A 
HETATM   24  C   UNL     1      44.839 -21.862   4.526  1.00  0.00     0.119 A 
HETATM   25  F   UNL     1      45.223 -22.617   5.563  1.00  0.00    -0.206 F 
HETATM   26  C   UNL     1      44.554 -22.468   3.312  1.00  0.00     0.084 A 
HETATM   27  C   UNL     1      44.152 -21.672   2.250  1.00  0.00     0.119 A 
HETATM   28  F   UNL     1      43.862 -22.240   1.073  1.00  0.00    -0.206 F 
HETATM   29  C   UNL     1      44.043 -20.287   2.382  1.00  0.00     0.050 A 
ENDBRANCH  21  22
ENDBRANCH   5  21
TORSDOF 4
ENDMDL
MODEL 5
REMARK VINA RESULT:      -9.0      3.781      9.237
REMARK  4 active torsions:
REMARK  status: ('A' for Active; 'I' for Inactive)
REMARK    1  A    between atoms: C_5  and  C_6 
REMARK       I    between atoms: C_6  and  N_7 
REMARK    2  A    between atoms: N_7  and  C_8 
REMARK    3  A    between atoms: C_12  and  C_13 
REMARK    4  A    between atoms: C_13  and  C_14 
ROOT
HETATM    1  C   UNL     1      42.042 -16.516   0.902  1.00  0.00     0.747 A 
HETATM    2  N   UNL     1      41.131 -17.401   1.317  1.00  0.00     0.020 NA
HETATM    3  N   UNL     1      41.789 -18.026   2.309  1.00  0.00    -0.248 N 
HETATM    4  H   UNL     1      41.341 -18.789   2.803  1.00  0.00     0.191 HD
HETATM    5  C   UNL     1      43.046 -17.520   2.462  1.00  0.00     0.144 A 
HETATM    6  N   UNL     1      43.212 -16.545   1.596  1.00  0.00    -0.046 NA
ENDROOT
BRANCH   1   7
HETATM    7  N   UNL     1      41.795 -15.702  -0.165  1.00  0.00    -0.150 N 
HETATM    8  C   UNL     1      41.447 -14.378  -0.077  1.00  0.00     0.271 C 
HETATM    9  O   UNL     1      41.260 -13.725   0.943  1.00  0.00    -0.267 OA
HETATM   10  H   UNL     1      41.987 -16.136  -1.053  1.00  0.00     0.188 HD
BRANCH   8  11
HETATM   11  C   UNL     1      41.370 -13.668  -1.378  1.00  0.00     0.045 A 
HETATM   12  C   UNL     1      40.193 -13.625  -2.164  1.00  0.00     0.008 A 
HETATM   13  C   UNL     1      40.251 -12.969  -3.399  1.00  0.00     0.043 A 
HETATM   14  C   UNL     1      38.846 -14.080  -2.015  1.00  0.00     0.032 A 
HETATM   15  C   UNL     1      41.410 -12.343  -3.876  1.00  0.00     0.030 A 
HETATM   16  N   UNL     1      39.007 -13.071  -3.981  1.00  0.00    -0.365 N 
HETATM   17  C   UNL     1      42.549 -12.369  -3.068  1.00  0.00     0.003 A 
HETATM   18  C   UNL     1      42.531 -13.019  -1.838  1.00  0.00     0.018 A 
HETATM   19  H   UNL     1      38.764 -12.686  -4.884  1.00  0.00     0.165 HD
HETATM   20  C   UNL     1      38.150 -13.738  -3.151  1.00  0.00     0.089 A 
ENDBRANCH   8  11
ENDBRANCH   1   7
BRANCH   5  21
HETATM   21  C   UNL     1      44.048 -18.067   3.416  1.00  0.00     0.119 C 
BRANCH  21  22
HETATM   22  C   UNL     1      44.194 -19.571   3.327  1.00  0.00    -0.045 A 
HETATM   23  C   UNL     1      43.973 -20.252   2.117  1.00  0.00     0.050 A 
HETATM   24  C   UNL     1      44.128 -21.635   2.048  1.00  0.00     0.119 A 
HETATM   25  F   UNL     1      43.895 -22.267   0.891  1.00  0.00    -0.206 F 
HETATM   26  C   UNL     1      44.521 -22.369   3.157  1.00  0.00     0.084 A 
HETATM   27  C   UNL     1      44.763 -21.697   4.346  1.00  0.00     0.119 A 
HETATM   28  F   UNL     1      45.155 -22.388   5.425  1.00  0.00    -0.206 F 
HETATM   29  C   UNL     1      44.608 -20.314   4.443  1.00  0.00     0.050 A 
ENDBRANCH  21  22
ENDBRANCH   5  21
TORSDOF 4
ENDMDL
MODEL 6
REMARK VINA RESULT:      -8.9      3.923      9.045
REMARK  4 active torsions:
REMARK  status: ('A' for Active; 'I' for Inactive)
REMARK    1  A    between atoms: C_5  and  C_6 
REMARK       I    between atoms: C_6  and  N_7 
REMARK    2  A    between atoms: N_7  and  C_8 
REMARK    3  A    between atoms: C_12  and  C_13 
REMARK    4  A    between atoms: C_13  and  C_14 
ROOT
HETATM    1  C   UNL     1      41.357 -16.932   3.445  1.00  0.00     0.747 A 
HETATM    2  N   UNL     1      40.849 -17.415   4.584  1.00  0.00     0.020 NA
HETATM    3  N   UNL     1      41.930 -17.985   5.143  1.00  0.00    -0.248 N 
HETATM    4  H   UNL     1      41.837 -18.470   6.028  1.00  0.00     0.191 HD
HETATM    5  C   UNL     1      43.031 -17.839   4.351  1.00  0.00     0.144 A 
HETATM    6  N   UNL     1      42.690 -17.151   3.284  1.00  0.00    -0.046 NA
ENDROOT
BRANCH   1   7
HETATM    7  N   UNL     1      40.557 -16.317   2.526  1.00  0.00    -0.150 N 
HETATM    8  C   UNL     1      40.467 -14.960   2.347  1.00  0.00     0.271 C 
HETATM    9  O   UNL     1      41.037 -14.087   2.990  1.00  0.00    -0.267 OA
HETATM   10  H   UNL     1      40.095 -16.960   1.903  1.00  0.00     0.188 HD
BRANCH   8  11
HETATM   11  C   UNL     1      39.638 -14.539   1.190  1.00  0.00     0.045 A 
HETATM   12  C   UNL     1      40.175 -14.309  -0.100  1.00  0.00     0.008 A 
HETATM   13  C   UNL     1      39.307 -13.865  -1.104  1.00  0.00     0.043 A 
HETATM   14  C   UNL     1      41.459 -14.446  -0.712  1.00  0.00     0.032 A 
HETATM   15  C   UNL     1      37.938 -13.658  -0.891  1.00  0.00     0.030 A 
HETATM   16  N   UNL     1      40.050 -13.698  -2.251  1.00  0.00    -0.365 N 
HETATM   17  C   UNL     1      37.425 -13.924   0.381  1.00  0.00     0.003 A 
HETATM   18  C   UNL     1      38.259 -14.359   1.406  1.00  0.00     0.018 A 
HETATM   19  H   UNL     1      39.676 -13.380  -3.135  1.00  0.00     0.165 HD
HETATM   20  C   UNL     1      41.352 -14.049  -2.025  1.00  0.00     0.089 A 
ENDBRANCH   8  11
ENDBRANCH   1   7
BRANCH   5  21
HETATM   21  C   UNL     1      44.356 -18.443   4.657  1.00  0.00     0.119 C 
BRANCH  21  22
HETATM   22  C   UNL     1      44.477 -19.878   4.192  1.00  0.00    -0.045 A 
HETATM   23  C   UNL     1      44.834 -20.903   5.085  1.00  0.00     0.050 A 
HETATM   24  C   UNL     1      44.926 -22.222   4.645  1.00  0.00     0.119 A 
HETATM   25  F   UNL     1      45.285 -23.181   5.507  1.00  0.00    -0.206 F 
HETATM   26  C   UNL     1      44.649 -22.559   3.328  1.00  0.00     0.084 A 
HETATM   27  C   UNL     1      44.273 -21.554   2.450  1.00  0.00     0.119 A 
HETATM   28  F   UNL     1      43.990 -21.862   1.178  1.00  0.00    -0.206 F 
HETATM   29  C   UNL     1      44.181 -20.225   2.866  1.00  0.00     0.050 A 
ENDBRANCH  21  22
ENDBRANCH   5  21
TORSDOF 4
ENDMDL
MODEL 7
REMARK VINA RESULT:      -8.9      3.965      9.108
REMARK  4 active torsions:
REMARK  status: ('A' for Active; 'I' for Inactive)
REMARK    1  A    between atoms: C_5  and  C_6 
REMARK       I    between atoms: C_6  and  N_7 
REMARK    2  A    between atoms: N_7  and  C_8 
REMARK    3  A    between atoms: C_12  and  C_13 
REMARK    4  A    between atoms: C_13  and  C_14 
ROOT
HETATM    1  C   UNL     1      42.279 -16.589   1.442  1.00  0.00     0.747 A 
HETATM    2  N   UNL     1      41.242 -17.169   2.055  1.00  0.00     0.020 NA
HETATM    3  N   UNL     1      41.847 -17.793   3.080  1.00  0.00    -0.248 N 
HETATM    4  H   UNL     1      41.295 -18.355   3.718  1.00  0.00     0.191 HD
HETATM    5  C   UNL     1      43.194 -17.585   3.060  1.00  0.00     0.144 A 
HETATM    6  N   UNL     1      43.481 -16.802   2.043  1.00  0.00    -0.046 NA
ENDROOT
BRANCH   1   7
HETATM    7  N   UNL     1      42.107 -15.889   0.283  1.00  0.00    -0.150 N 
HETATM    8  C   UNL     1      41.369 -14.739   0.163  1.00  0.00     0.271 C 
HETATM    9  O   UNL     1      40.718 -14.179   1.038  1.00  0.00    -0.267 OA
HETATM   10  H   UNL     1      42.660 -16.239  -0.482  1.00  0.00     0.188 HD
BRANCH   8  11
HETATM   11  C   UNL     1      41.449 -14.084  -1.166  1.00  0.00     0.045 A 
HETATM   12  C   UNL     1      42.002 -12.795  -1.358  1.00  0.00     0.008 A 
HETATM   13  C   UNL     1      41.978 -12.255  -2.649  1.00  0.00     0.043 A 
HETATM   14  C   UNL     1      42.655 -11.829  -0.531  1.00  0.00     0.032 A 
HETATM   15  C   UNL     1      41.452 -12.940  -3.752  1.00  0.00     0.030 A 
HETATM   16  N   UNL     1      42.548 -11.003  -2.585  1.00  0.00    -0.365 N 
HETATM   17  C   UNL     1      40.943 -14.224  -3.544  1.00  0.00     0.003 A 
HETATM   18  C   UNL     1      40.943 -14.790  -2.274  1.00  0.00     0.018 A 
HETATM   19  H   UNL     1      42.659 -10.384  -3.376  1.00  0.00     0.165 HD
HETATM   20  C   UNL     1      42.963 -10.737  -1.310  1.00  0.00     0.089 A 
ENDBRANCH   8  11
ENDBRANCH   1   7
BRANCH   5  21
HETATM   21  C   UNL     1      44.145 -18.222   4.011  1.00  0.00     0.119 C 
BRANCH  21  22
HETATM   22  C   UNL     1      44.328 -19.705   3.764  1.00  0.00    -0.045 A 
HETATM   23  C   UNL     1      44.727 -20.569   4.798  1.00  0.00     0.050 A 
HETATM   24  C   UNL     1      44.876 -21.934   4.559  1.00  0.00     0.119 A 
HETATM   25  F   UNL     1      45.274 -22.738   5.552  1.00  0.00    -0.206 F 
HETATM   26  C   UNL     1      44.616 -22.475   3.308  1.00  0.00     0.084 A 
HETATM   27  C   UNL     1      44.199 -21.628   2.292  1.00  0.00     0.119 A 
HETATM   28  F   UNL     1      43.933 -22.134   1.081  1.00  0.00    -0.206 F 
HETATM   29  C   UNL     1      44.050 -20.257   2.505  1.00  0.00     0.050 A 
ENDBRANCH  21  22
ENDBRANCH   5  21
TORSDOF 4
ENDMDL
MODEL 8
REMARK VINA RESULT:      -8.7      1.971      2.950
REMARK  4 active torsions:
REMARK  status: ('A' for Active; 'I' for Inactive)
REMARK    1  A    between atoms: C_5  and  C_6 
REMARK       I    between atoms: C_6  and  N_7 
REMARK    2  A    between atoms: N_7  and  C_8 
REMARK    3  A    between atoms: C_12  and  C_13 
REMARK    4  A    between atoms: C_13  and  C_14 
ROOT
HETATM    1  C   UNL     1      40.890 -16.043   2.811  1.00  0.00     0.747 A 
HETATM    2  N   UNL     1      40.619 -15.012   3.618  1.00  0.00     0.020 NA
HETATM    3  N   UNL     1      39.898 -14.216   2.810  1.00  0.00    -0.248 N 
HETATM    4  H   UNL     1      39.570 -13.321   3.154  1.00  0.00     0.191 HD
HETATM    5  C   UNL     1      39.759 -14.767   1.571  1.00  0.00     0.144 A 
HETATM    6  N   UNL     1      40.359 -15.936   1.563  1.00  0.00    -0.046 NA
ENDROOT
BRANCH   1   7
HETATM    7  N   UNL     1      41.679 -17.074   3.231  1.00  0.00    -0.150 N 
HETATM    8  C   UNL     1      42.968 -17.296   2.816  1.00  0.00     0.271 C 
HETATM    9  O   UNL     1      43.603 -16.654   1.988  1.00  0.00    -0.267 OA
HETATM   10  H   UNL     1      41.263 -17.622   3.966  1.00  0.00     0.188 HD
BRANCH   8  11
HETATM   11  C   UNL     1      43.667 -18.398   3.523  1.00  0.00     0.045 A 
HETATM   12  C   UNL     1      43.836 -19.687   2.963  1.00  0.00     0.008 A 
HETATM   13  C   UNL     1      44.467 -20.665   3.742  1.00  0.00     0.043 A 
HETATM   14  C   UNL     1      43.540 -20.305   1.708  1.00  0.00     0.032 A 
HETATM   15  C   UNL     1      44.951 -20.415   5.033  1.00  0.00     0.030 A 
HETATM   16  N   UNL     1      44.502 -21.825   3.002  1.00  0.00    -0.365 N 
HETATM   17  C   UNL     1      44.803 -19.126   5.550  1.00  0.00     0.003 A 
HETATM   18  C   UNL     1      44.173 -18.132   4.809  1.00  0.00     0.018 A 
HETATM   19  H   UNL     1      44.902 -22.697   3.323  1.00  0.00     0.165 HD
HETATM   20  C   UNL     1      43.947 -21.618   1.770  1.00  0.00     0.089 A 
ENDBRANCH   8  11
ENDBRANCH   1   7
BRANCH   5  21
HETATM   21  C   UNL     1      39.091 -14.081   0.431  1.00  0.00     0.119 C 
BRANCH  21  22
HETATM   22  C   UNL     1      39.921 -14.089  -0.836  1.00  0.00    -0.045 A 
HETATM   23  C   UNL     1      39.432 -14.666  -2.020  1.00  0.00     0.050 A 
HETATM   24  C   UNL     1      40.201 -14.651  -3.182  1.00  0.00     0.119 A 
HETATM   25  F   UNL     1      39.726 -15.222  -4.296  1.00  0.00    -0.206 F 
HETATM   26  C   UNL     1      41.452 -14.052  -3.206  1.00  0.00     0.084 A 
HETATM   27  C   UNL     1      41.927 -13.460  -2.045  1.00  0.00     0.119 A 
HETATM   28  F   UNL     1      43.128 -12.867  -2.051  1.00  0.00    -0.206 F 
HETATM   29  C   UNL     1      41.179 -13.469  -0.867  1.00  0.00     0.050 A 
ENDBRANCH  21  22
ENDBRANCH   5  21
TORSDOF 4
ENDMDL
MODEL 9
REMARK VINA RESULT:      -8.7      4.431      9.371
REMARK  4 active torsions:
REMARK  status: ('A' for Active; 'I' for Inactive)
REMARK    1  A    between atoms: C_5  and  C_6 
REMARK       I    between atoms: C_6  and  N_7 
REMARK    2  A    between atoms: N_7  and  C_8 
REMARK    3  A    between atoms: C_12  and  C_13 
REMARK    4  A    between atoms: C_13  and  C_14 
ROOT
HETATM    1  C   UNL     1      41.401 -15.346   4.644  1.00  0.00     0.747 A 
HETATM    2  N   UNL     1      40.718 -15.538   5.777  1.00  0.00     0.020 NA
HETATM    3  N   UNL     1      41.667 -16.041   6.585  1.00  0.00    -0.248 N 
HETATM    4  H   UNL     1      41.424 -16.317   7.530  1.00  0.00     0.191 HD
HETATM    5  C   UNL     1      42.864 -16.140   5.939  1.00  0.00     0.144 A 
HETATM    6  N   UNL     1      42.718 -15.679   4.717  1.00  0.00    -0.046 NA
ENDROOT
BRANCH   1   7
HETATM    7  N   UNL     1      40.778 -14.895   3.517  1.00  0.00    -0.150 N 
HETATM    8  C   UNL     1      40.511 -15.658   2.409  1.00  0.00     0.271 C 
HETATM    9  O   UNL     1      40.815 -16.830   2.223  1.00  0.00    -0.267 OA
HETATM   10  H   UNL     1      40.430 -13.953   3.602  1.00  0.00     0.188 HD
BRANCH   8  11
HETATM   11  C   UNL     1      39.697 -14.980   1.369  1.00  0.00     0.045 A 
HETATM   12  C   UNL     1      40.234 -14.541   0.135  1.00  0.00     0.008 A 
HETATM   13  C   UNL     1      39.383 -13.867  -0.750  1.00  0.00     0.043 A 
HETATM   14  C   UNL     1      41.502 -14.630  -0.519  1.00  0.00     0.032 A 
HETATM   15  C   UNL     1      38.031 -13.629  -0.474  1.00  0.00     0.030 A 
HETATM   16  N   UNL     1      40.124 -13.528  -1.860  1.00  0.00    -0.365 N 
HETATM   17  C   UNL     1      37.515 -14.102   0.735  1.00  0.00     0.003 A 
HETATM   18  C   UNL     1      38.333 -14.768   1.643  1.00  0.00     0.018 A 
HETATM   19  H   UNL     1      39.760 -13.029  -2.660  1.00  0.00     0.165 HD
HETATM   20  C   UNL     1      41.405 -13.987  -1.731  1.00  0.00     0.089 A 
ENDBRANCH   8  11
ENDBRANCH   1   7
BRANCH   5  21
HETATM   21  C   UNL     1      44.082 -16.745   6.542  1.00  0.00     0.119 C 
BRANCH  21  22
HETATM   22  C   UNL     1      44.184 -18.237   6.305  1.00  0.00    -0.045 A 
HETATM   23  C   UNL     1      43.685 -19.157   7.243  1.00  0.00     0.050 A 
HETATM   24  C   UNL     1      43.772 -20.527   7.002  1.00  0.00     0.119 A 
HETATM   25  F   UNL     1      43.308 -21.388   7.917  1.00  0.00    -0.206 F 
HETATM   26  C   UNL     1      44.331 -21.015   5.830  1.00  0.00     0.084 A 
HETATM   27  C   UNL     1      44.801 -20.109   4.891  1.00  0.00     0.119 A 
HETATM   28  F   UNL     1      45.333 -20.561   3.748  1.00  0.00    -0.206 F 
HETATM   29  C   UNL     1      44.732 -18.733   5.113  1.00  0.00     0.050 A 
ENDBRANCH  21  22
ENDBRANCH   5  21
TORSDOF 4
ENDMDL
MODEL 10
REMARK VINA RESULT:      -8.7      2.124      3.298
REMARK  4 active torsions:
REMARK  status: ('A' for Active; 'I' for Inactive)
REMARK    1  A    between atoms: C_5  and  C_6 
REMARK       I    between atoms: C_6  and  N_7 
REMARK    2  A    between atoms: N_7  and  C_8 
REMARK    3  A    between atoms: C_12  and  C_13 
REMARK    4  A    between atoms: C_13  and  C_14 
ROOT
HETATM    1  C   UNL     1      40.993 -16.220   2.927  1.00  0.00     0.747 A 
HETATM    2  N   UNL     1      40.767 -15.195   3.754  1.00  0.00     0.020 NA
HETATM    3  N   UNL     1      40.038 -14.374   2.979  1.00  0.00    -0.248 N 
HETATM    4  H   UNL     1      39.740 -13.477   3.343  1.00  0.00     0.191 HD
HETATM    5  C   UNL     1      39.849 -14.907   1.738  1.00  0.00     0.144 A 
HETATM    6  N   UNL     1      40.425 -16.088   1.698  1.00  0.00    -0.046 NA
ENDROOT
BRANCH   1   7
HETATM    7  N   UNL     1      41.773 -17.273   3.310  1.00  0.00    -0.150 N 
HETATM    8  C   UNL     1      43.069 -17.476   2.909  1.00  0.00     0.271 C 
HETATM    9  O   UNL     1      43.720 -16.794   2.125  1.00  0.00    -0.267 OA
HETATM   10  H   UNL     1      41.343 -17.856   4.009  1.00  0.00     0.188 HD
BRANCH   8  11
HETATM   11  C   UNL     1      43.755 -18.612   3.573  1.00  0.00     0.045 A 
HETATM   12  C   UNL     1      43.898 -19.884   2.969  1.00  0.00     0.008 A 
HETATM   13  C   UNL     1      44.518 -20.898   3.710  1.00  0.00     0.043 A 
HETATM   14  C   UNL     1      43.583 -20.455   1.696  1.00  0.00     0.032 A 
HETATM   15  C   UNL     1      45.015 -20.700   5.005  1.00  0.00     0.030 A 
HETATM   16  N   UNL     1      44.528 -22.033   2.932  1.00  0.00    -0.365 N 
HETATM   17  C   UNL     1      44.892 -19.427   5.566  1.00  0.00     0.003 A 
HETATM   18  C   UNL     1      44.274 -18.398   4.863  1.00  0.00     0.018 A 
HETATM   19  H   UNL     1      44.916 -22.922   3.220  1.00  0.00     0.165 HD
HETATM   20  C   UNL     1      43.968 -21.775   1.711  1.00  0.00     0.089 A 
ENDBRANCH   8  11
ENDBRANCH   1   7
BRANCH   5  21
HETATM   21  C   UNL     1      39.161 -14.195   0.627  1.00  0.00     0.119 C 
BRANCH  21  22
HETATM   22  C   UNL     1      40.091 -13.823  -0.508  1.00  0.00    -0.045 A 
HETATM   23  C   UNL     1      41.225 -13.022  -0.284  1.00  0.00     0.050 A 
HETATM   24  C   UNL     1      42.080 -12.702  -1.337  1.00  0.00     0.119 A 
HETATM   25  F   UNL     1      43.144 -11.923  -1.108  1.00  0.00    -0.206 F 
HETATM   26  C   UNL     1      41.848 -13.178  -2.619  1.00  0.00     0.084 A 
HETATM   27  C   UNL     1      40.743 -13.987  -2.838  1.00  0.00     0.119 A 
HETATM   28  F   UNL     1      40.510 -14.465  -4.067  1.00  0.00    -0.206 F 
HETATM   29  C   UNL     1      39.868 -14.316  -1.802  1.00  0.00     0.050 A 
ENDBRANCH  21  22
ENDBRANCH   5  21
TORSDOF 4
ENDMDL
