MODEL 1
REMARK VINA RESULT:      -9.1      0.000      0.000
REMARK  9 active torsions:
REMARK  status: ('A' for Active; 'I' for Inactive)
REMARK    1  A    between atoms: O_2  and  C_3 
REMARK    2  A    between atoms: C_6  and  C_7 
REMARK    3  A    between atoms: C_13  and  C_14 
REMARK       I    between atoms: C_14  and  N_15 
REMARK    4  A    between atoms: N_15  and  N_16 
REMARK    5  A    between atoms: N_16  and  C_17 
REMARK    6  A    between atoms: C_17  and  N_18 
REMARK    7  A    between atoms: N_18  and  C_19 
REMARK    8  A    between atoms: C_19  and  C_20 
REMARK    9  A    between atoms: C_27  and  C_28 
ROOT
HETATM    1  C   UNL     1      42.834 -17.526   2.574  1.00  0.00     0.118 C 
HETATM    2  N   UNL     1      43.192 -16.624   3.659  1.00  0.00    -0.365 N 
HETATM    3  C   UNL     1      43.010 -15.287   3.534  1.00  0.00     0.138 A 
HETATM    4  N   UNL     1      42.747 -14.733   2.308  1.00  0.00    -0.240 N 
HETATM    5  N   UNL     1      42.654 -13.397   2.325  1.00  0.00    -0.181 NA
HETATM    6  C   UNL     1      42.836 -13.096   3.615  1.00  0.00     0.160 A 
HETATM    7  C   UNL     1      43.047 -14.238   4.433  1.00  0.00     0.098 A 
HETATM    8  C   UNL     1      42.625 -15.488   1.073  1.00  0.00     0.221 C 
HETATM    9  C   UNL     1      43.261 -16.883   1.239  1.00  0.00     0.066 C 
HETATM   10  H   UNL     1      43.352 -17.046   4.577  1.00  0.00     0.161 HD
ENDROOT
BRANCH   7  11
HETATM   11  C   UNL     1      43.309 -14.328   5.858  1.00  0.00     0.275 C 
HETATM   12  N   UNL     1      42.905 -13.279   6.667  1.00  0.00    -0.263 N 
HETATM   13  H   UNL     1      43.106 -13.415   7.653  1.00  0.00     0.190 HD
HETATM   14  O   UNL     1      43.859 -15.302   6.371  1.00  0.00    -0.266 OA
BRANCH  12  15
HETATM   15  N   UNL     1      41.736 -12.541   6.398  1.00  0.00    -0.274 N 
HETATM   16  H   UNL     1      41.200 -12.824   5.584  1.00  0.00     0.189 HD
BRANCH  15  17
HETATM   17  C   UNL     1      41.510 -11.318   6.976  1.00  0.00     0.186 C 
HETATM   18  S   UNL     1      41.163  -9.904   6.156  1.00  0.00    -0.040 SA
BRANCH  17  19
HETATM   19  N   UNL     1      41.609 -11.262   8.332  1.00  0.00    -0.360 N 
HETATM   20  H   UNL     1      41.198 -12.051   8.818  1.00  0.00     0.162 HD
BRANCH  19  21
HETATM   21  C   UNL     1      42.204 -10.236   9.170  1.00  0.00     0.187 C 
BRANCH  21  22
HETATM   22  C   UNL     1      43.546 -10.671   9.620  1.00  0.00     0.070 A 
HETATM   23  O   UNL     1      44.286 -11.390   8.727  1.00  0.00    -0.325 OA
HETATM   24  C   UNL     1      45.466 -11.678   9.332  1.00  0.00     0.142 A 
HETATM   25  C   UNL     1      45.491 -11.168  10.607  1.00  0.00     0.027 A 
HETATM   26  C   UNL     1      44.248 -10.519  10.799  1.00  0.00     0.036 A 
ENDBRANCH  21  22
ENDBRANCH  19  21
ENDBRANCH  17  19
ENDBRANCH  15  17
ENDBRANCH  12  15
ENDBRANCH   7  11
BRANCH   1  27
HETATM   27  C   UNL     1      43.423 -18.901   2.823  1.00  0.00    -0.035 A 
HETATM   28  C   UNL     1      44.099 -19.147   4.027  1.00  0.00     0.012 A 
HETATM   29  C   UNL     1      44.628 -20.410   4.307  1.00  0.00     0.037 A 
HETATM   30  C   UNL     1      44.492 -21.453   3.393  1.00  0.00     0.068 A 
HETATM   31  C   UNL     1      43.864 -21.211   2.173  1.00  0.00     0.037 A 
HETATM   32  C   UNL     1      43.343 -19.942   1.886  1.00  0.00     0.012 A 
BRANCH  30  33
HETATM   33  O   UNL     1      45.027 -22.645   3.797  1.00  0.00    -0.356 OA
HETATM   34  C   UNL     1      45.393 -22.738   5.168  1.00  0.00     0.210 C 
ENDBRANCH  30  33
ENDBRANCH   1  27
BRANCH   8  35
HETATM   35  C   UNL     1      41.171 -15.567   0.666  1.00  0.00     0.409 C 
HETATM   36  F   UNL     1      40.325 -15.618   1.720  1.00  0.00    -0.169 F 
HETATM   37  F   UNL     1      40.782 -14.537  -0.116  1.00  0.00    -0.169 F 
HETATM   38  F   UNL     1      40.953 -16.697  -0.058  1.00  0.00    -0.169 F 
ENDBRANCH   8  35
TORSDOF 9
ENDMDL
MODEL 2
REMARK VINA RESULT:      -8.8      3.979      7.586
REMARK  9 active torsions:
REMARK  status: ('A' for Active; 'I' for Inactive)
REMARK    1  A    between atoms: O_2  and  C_3 
REMARK    2  A    between atoms: C_6  and  C_7 
REMARK    3  A    between atoms: C_13  and  C_14 
REMARK       I    between atoms: C_14  and  N_15 
REMARK    4  A    between atoms: N_15  and  N_16 
REMARK    5  A    between atoms: N_16  and  C_17 
REMARK    6  A    between atoms: C_17  and  N_18 
REMARK    7  A    between atoms: N_18  and  C_19 
REMARK    8  A    between atoms: C_19  and  C_20 
REMARK    9  A    between atoms: C_27  and  C_28 
ROOT
HETATM    1  C   UNL     1      43.058 -16.598   4.022  1.00  0.00     0.118 C 
HETATM    2  N   UNL     1      41.838 -16.183   3.345  1.00  0.00    -0.365 N 
HETATM    3  C   UNL     1      41.142 -15.104   3.777  1.00  0.00     0.138 A 
HETATM    4  N   UNL     1      41.409 -14.549   5.003  1.00  0.00    -0.240 N 
HETATM    5  N   UNL     1      40.602 -13.529   5.324  1.00  0.00    -0.181 NA
HETATM    6  C   UNL     1      39.814 -13.416   4.250  1.00  0.00     0.160 A 
HETATM    7  C   UNL     1      40.111 -14.362   3.234  1.00  0.00     0.098 A 
HETATM    8  C   UNL     1      42.431 -15.028   5.918  1.00  0.00     0.221 C 
HETATM    9  C   UNL     1      42.846 -16.466   5.544  1.00  0.00     0.066 C 
HETATM   10  H   UNL     1      41.668 -16.577   2.417  1.00  0.00     0.161 HD
ENDROOT
BRANCH   7  11
HETATM   11  C   UNL     1      39.471 -14.580   1.948  1.00  0.00     0.275 C 
HETATM   12  N   UNL     1      39.913 -13.843   0.863  1.00  0.00    -0.263 N 
HETATM   13  H   UNL     1      39.432 -14.058  -0.006  1.00  0.00     0.190 HD
HETATM   14  O   UNL     1      38.570 -15.403   1.788  1.00  0.00    -0.266 OA
BRANCH  12  15
HETATM   15  N   UNL     1      41.263 -13.471   0.716  1.00  0.00    -0.274 N 
HETATM   16  H   UNL     1      41.744 -13.171   1.557  1.00  0.00     0.189 HD
BRANCH  15  17
HETATM   17  C   UNL     1      41.802 -13.199  -0.515  1.00  0.00     0.186 C 
HETATM   18  S   UNL     1      42.496 -11.749  -0.974  1.00  0.00    -0.040 SA
BRANCH  17  19
HETATM   19  N   UNL     1      41.734 -14.195  -1.440  1.00  0.00    -0.360 N 
HETATM   20  H   UNL     1      41.855 -15.129  -1.064  1.00  0.00     0.162 HD
BRANCH  19  21
HETATM   21  C   UNL     1      41.525 -14.106  -2.874  1.00  0.00     0.187 C 
BRANCH  21  22
HETATM   22  C   UNL     1      40.174 -14.606  -3.217  1.00  0.00     0.070 A 
HETATM   23  O   UNL     1      40.115 -15.661  -4.081  1.00  0.00    -0.325 OA
HETATM   24  C   UNL     1      38.802 -15.959  -4.253  1.00  0.00     0.142 A 
HETATM   25  C   UNL     1      38.014 -15.101  -3.525  1.00  0.00     0.027 A 
HETATM   26  C   UNL     1      38.898 -14.221  -2.857  1.00  0.00     0.036 A 
ENDBRANCH  21  22
ENDBRANCH  19  21
ENDBRANCH  17  19
ENDBRANCH  15  17
ENDBRANCH  12  15
ENDBRANCH   7  11
BRANCH   1  27
HETATM   27  C   UNL     1      43.461 -17.987   3.566  1.00  0.00    -0.035 A 
HETATM   28  C   UNL     1      44.258 -18.778   4.408  1.00  0.00     0.012 A 
HETATM   29  C   UNL     1      44.625 -20.074   4.038  1.00  0.00     0.037 A 
HETATM   30  C   UNL     1      44.202 -20.611   2.823  1.00  0.00     0.068 A 
HETATM   31  C   UNL     1      43.450 -19.820   1.956  1.00  0.00     0.037 A 
HETATM   32  C   UNL     1      43.091 -18.516   2.321  1.00  0.00     0.012 A 
BRANCH  30  33
HETATM   33  O   UNL     1      44.603 -21.897   2.591  1.00  0.00    -0.356 OA
HETATM   34  C   UNL     1      44.650 -22.755   3.724  1.00  0.00     0.210 C 
ENDBRANCH  30  33
ENDBRANCH   1  27
BRANCH   8  35
HETATM   35  C   UNL     1      43.605 -14.075   5.914  1.00  0.00     0.409 C 
HETATM   36  F   UNL     1      43.857 -13.544   4.695  1.00  0.00    -0.169 F 
HETATM   37  F   UNL     1      43.458 -13.049   6.780  1.00  0.00    -0.169 F 
HETATM   38  F   UNL     1      44.735 -14.730   6.289  1.00  0.00    -0.169 F 
ENDBRANCH   8  35
TORSDOF 9
ENDMDL
MODEL 3
REMARK VINA RESULT:      -8.7      3.923      7.515
REMARK  9 active torsions:
REMARK  status: ('A' for Active; 'I' for Inactive)
REMARK    1  A    between atoms: O_2  and  C_3 
REMARK    2  A    between atoms: C_6  and  C_7 
REMARK    3  A    between atoms: C_13  and  C_14 
REMARK       I    between atoms: C_14  and  N_15 
REMARK    4  A    between atoms: N_15  and  N_16 
REMARK    5  A    between atoms: N_16  and  C_17 
REMARK    6  A    between atoms: C_17  and  N_18 
REMARK    7  A    between atoms: N_18  and  C_19 
REMARK    8  A    between atoms: C_19  and  C_20 
REMARK    9  A    between atoms: C_27  and  C_28 
ROOT
HETATM    1  C   UNL     1      43.540 -16.486   3.835  1.00  0.00     0.118 C 
HETATM    2  N   UNL     1      42.878 -15.740   2.776  1.00  0.00    -0.365 N 
HETATM    3  C   UNL     1      42.362 -14.510   3.016  1.00  0.00     0.138 A 
HETATM    4  N   UNL     1      42.208 -14.060   4.303  1.00  0.00    -0.240 N 
HETATM    5  N   UNL     1      41.627 -12.857   4.391  1.00  0.00    -0.181 NA
HETATM    6  C   UNL     1      41.433 -12.519   3.112  1.00  0.00     0.160 A 
HETATM    7  C   UNL     1      41.888 -13.505   2.196  1.00  0.00     0.098 A 
HETATM    8  C   UNL     1      42.580 -14.814   5.488  1.00  0.00     0.221 C 
HETATM    9  C   UNL     1      42.737 -16.308   5.139  1.00  0.00     0.066 C 
HETATM   10  H   UNL     1      43.029 -16.065   1.817  1.00  0.00     0.161 HD
ENDROOT
BRANCH   7  11
HETATM   11  C   UNL     1      41.830 -13.526   0.745  1.00  0.00     0.275 C 
HETATM   12  N   UNL     1      40.920 -14.375   0.138  1.00  0.00    -0.263 N 
HETATM   13  H   UNL     1      40.924 -14.327  -0.877  1.00  0.00     0.190 HD
HETATM   14  O   UNL     1      42.543 -12.810   0.043  1.00  0.00    -0.266 OA
BRANCH  12  15
HETATM   15  N   UNL     1      39.666 -14.655   0.713  1.00  0.00    -0.274 N 
HETATM   16  H   UNL     1      39.525 -15.600   1.053  1.00  0.00     0.189 HD
BRANCH  15  17
HETATM   17  C   UNL     1      38.589 -13.827   0.525  1.00  0.00     0.186 C 
HETATM   18  S   UNL     1      38.135 -12.578   1.538  1.00  0.00    -0.040 SA
BRANCH  17  19
HETATM   19  N   UNL     1      37.820 -14.074  -0.570  1.00  0.00    -0.360 N 
HETATM   20  H   UNL     1      37.052 -14.717  -0.409  1.00  0.00     0.162 HD
BRANCH  19  21
HETATM   21  C   UNL     1      37.951 -13.561  -1.922  1.00  0.00     0.187 C 
BRANCH  21  22
HETATM   22  C   UNL     1      38.482 -14.619  -2.811  1.00  0.00     0.070 A 
HETATM   23  O   UNL     1      39.756 -15.041  -2.565  1.00  0.00    -0.325 OA
HETATM   24  C   UNL     1      40.038 -16.004  -3.478  1.00  0.00     0.142 A 
HETATM   25  C   UNL     1      38.969 -16.198  -4.320  1.00  0.00     0.027 A 
HETATM   26  C   UNL     1      37.962 -15.300  -3.894  1.00  0.00     0.036 A 
ENDBRANCH  21  22
ENDBRANCH  19  21
ENDBRANCH  17  19
ENDBRANCH  15  17
ENDBRANCH  12  15
ENDBRANCH   7  11
BRANCH   1  27
HETATM   27  C   UNL     1      43.735 -17.930   3.413  1.00  0.00    -0.035 A 
HETATM   28  C   UNL     1      44.302 -18.836   4.322  1.00  0.00     0.012 A 
HETATM   29  C   UNL     1      44.469 -20.182   3.982  1.00  0.00     0.037 A 
HETATM   30  C   UNL     1      44.071 -20.652   2.732  1.00  0.00     0.068 A 
HETATM   31  C   UNL     1      43.550 -19.753   1.803  1.00  0.00     0.037 A 
HETATM   32  C   UNL     1      43.392 -18.402   2.138  1.00  0.00     0.012 A 
BRANCH  30  33
HETATM   33  O   UNL     1      44.261 -21.991   2.533  1.00  0.00    -0.356 OA
HETATM   34  C   UNL     1      44.639 -22.749   3.676  1.00  0.00     0.210 C 
ENDBRANCH  30  33
ENDBRANCH   1  27
BRANCH   8  35
HETATM   35  C   UNL     1      43.840 -14.231   6.086  1.00  0.00     0.409 C 
HETATM   36  F   UNL     1      44.550 -15.127   6.810  1.00  0.00    -0.169 F 
HETATM   37  F   UNL     1      44.673 -13.706   5.162  1.00  0.00    -0.169 F 
HETATM   38  F   UNL     1      43.524 -13.216   6.933  1.00  0.00    -0.169 F 
ENDBRANCH   8  35
TORSDOF 9
ENDMDL
MODEL 4
REMARK VINA RESULT:      -8.6      3.790      6.772
REMARK  9 active torsions:
REMARK  status: ('A' for Active; 'I' for Inactive)
REMARK    1  A    between atoms: O_2  and  C_3 
REMARK    2  A    between atoms: C_6  and  C_7 
REMARK    3  A    between atoms: C_13  and  C_14 
REMARK       I    between atoms: C_14  and  N_15 
REMARK    4  A    between atoms: N_15  and  N_16 
REMARK    5  A    between atoms: N_16  and  C_17 
REMARK    6  A    between atoms: C_17  and  N_18 
REMARK    7  A    between atoms: N_18  and  C_19 
REMARK    8  A    between atoms: C_19  and  C_20 
REMARK    9  A    between atoms: C_27  and  C_28 
ROOT
HETATM    1  C   UNL     1      43.268 -16.631   4.210  1.00  0.00     0.118 C 
HETATM    2  N   UNL     1      42.061 -16.129   3.572  1.00  0.00    -0.365 N 
HETATM    3  C   UNL     1      41.415 -15.047   4.070  1.00  0.00     0.138 A 
HETATM    4  N   UNL     1      41.718 -14.571   5.320  1.00  0.00    -0.240 N 
HETATM    5  N   UNL     1      40.959 -13.538   5.706  1.00  0.00    -0.181 NA
HETATM    6  C   UNL     1      40.164 -13.333   4.650  1.00  0.00     0.160 A 
HETATM    7  C   UNL     1      40.411 -14.234   3.580  1.00  0.00     0.098 A 
HETATM    8  C   UNL     1      42.729 -15.142   6.195  1.00  0.00     0.221 C 
HETATM    9  C   UNL     1      43.078 -16.573   5.738  1.00  0.00     0.066 C 
HETATM   10  H   UNL     1      41.864 -16.465   2.626  1.00  0.00     0.161 HD
ENDROOT
BRANCH   7  11
HETATM   11  C   UNL     1      39.749 -14.355   2.293  1.00  0.00     0.275 C 
HETATM   12  N   UNL     1      39.859 -13.305   1.398  1.00  0.00    -0.263 N 
HETATM   13  H   UNL     1      39.385 -13.464   0.514  1.00  0.00     0.190 HD
HETATM   14  O   UNL     1      39.113 -15.357   1.967  1.00  0.00    -0.266 OA
BRANCH  12  15
HETATM   15  N   UNL     1      41.026 -12.521   1.312  1.00  0.00    -0.274 N 
HETATM   16  H   UNL     1      41.727 -12.672   2.029  1.00  0.00     0.189 HD
BRANCH  15  17
HETATM   17  C   UNL     1      41.077 -11.394   0.531  1.00  0.00     0.186 C 
HETATM   18  S   UNL     1      40.916  -9.824   1.078  1.00  0.00    -0.040 SA
BRANCH  17  19
HETATM   19  N   UNL     1      41.245 -11.591  -0.805  1.00  0.00    -0.360 N 
HETATM   20  H   UNL     1      40.532 -11.167  -1.387  1.00  0.00     0.162 HD
BRANCH  19  21
HETATM   21  C   UNL     1      42.284 -12.327  -1.503  1.00  0.00     0.187 C 
BRANCH  21  22
HETATM   22  C   UNL     1      41.759 -13.638  -1.949  1.00  0.00     0.070 A 
HETATM   23  O   UNL     1      41.427 -14.527  -0.968  1.00  0.00    -0.325 OA
HETATM   24  C   UNL     1      40.968 -15.645  -1.586  1.00  0.00     0.142 A 
HETATM   25  C   UNL     1      41.014 -15.494  -2.951  1.00  0.00     0.027 A 
HETATM   26  C   UNL     1      41.530 -14.199  -3.189  1.00  0.00     0.036 A 
ENDBRANCH  21  22
ENDBRANCH  19  21
ENDBRANCH  17  19
ENDBRANCH  15  17
ENDBRANCH  12  15
ENDBRANCH   7  11
BRANCH   1  27
HETATM   27  C   UNL     1      43.608 -18.008   3.674  1.00  0.00    -0.035 A 
HETATM   28  C   UNL     1      44.328 -18.898   4.486  1.00  0.00     0.012 A 
HETATM   29  C   UNL     1      44.633 -20.187   4.041  1.00  0.00     0.037 A 
HETATM   30  C   UNL     1      44.224 -20.617   2.780  1.00  0.00     0.068 A 
HETATM   31  C   UNL     1      43.549 -19.728   1.945  1.00  0.00     0.037 A 
HETATM   32  C   UNL     1      43.252 -18.432   2.385  1.00  0.00     0.012 A 
BRANCH  30  33
HETATM   33  O   UNL     1      44.559 -21.907   2.474  1.00  0.00    -0.356 OA
HETATM   34  C   UNL     1      44.668 -22.805   3.572  1.00  0.00     0.210 C 
ENDBRANCH  30  33
ENDBRANCH   1  27
BRANCH   8  35
HETATM   35  C   UNL     1      43.942 -14.239   6.228  1.00  0.00     0.409 C 
HETATM   36  F   UNL     1      45.066 -14.873   6.632  1.00  0.00    -0.169 F 
HETATM   37  F   UNL     1      44.207 -13.664   5.035  1.00  0.00    -0.169 F 
HETATM   38  F   UNL     1      43.738 -13.221   7.104  1.00  0.00    -0.169 F 
ENDBRANCH   8  35
TORSDOF 9
ENDMDL
MODEL 5
REMARK VINA RESULT:      -8.6      3.423      6.884
REMARK  9 active torsions:
REMARK  status: ('A' for Active; 'I' for Inactive)
REMARK    1  A    between atoms: O_2  and  C_3 
REMARK    2  A    between atoms: C_6  and  C_7 
REMARK    3  A    between atoms: C_13  and  C_14 
REMARK       I    between atoms: C_14  and  N_15 
REMARK    4  A    between atoms: N_15  and  N_16 
REMARK    5  A    between atoms: N_16  and  C_17 
REMARK    6  A    between atoms: C_17  and  N_18 
REMARK    7  A    between atoms: N_18  and  C_19 
REMARK    8  A    between atoms: C_19  and  C_20 
REMARK    9  A    between atoms: C_27  and  C_28 
ROOT
HETATM    1  C   UNL     1      41.799 -15.556   1.021  1.00  0.00     0.118 C 
HETATM    2  N   UNL     1      41.252 -15.183   2.316  1.00  0.00    -0.365 N 
HETATM    3  C   UNL     1      41.312 -16.039   3.364  1.00  0.00     0.138 A 
HETATM    4  N   UNL     1      41.636 -17.358   3.167  1.00  0.00    -0.240 N 
HETATM    5  N   UNL     1      41.595 -18.099   4.282  1.00  0.00    -0.181 NA
HETATM    6  C   UNL     1      41.262 -17.212   5.225  1.00  0.00     0.160 A 
HETATM    7  C   UNL     1      41.087 -15.896   4.720  1.00  0.00     0.098 A 
HETATM    8  C   UNL     1      41.949 -17.943   1.875  1.00  0.00     0.221 C 
HETATM    9  C   UNL     1      41.441 -17.029   0.741  1.00  0.00     0.066 C 
HETATM   10  H   UNL     1      41.047 -14.191   2.464  1.00  0.00     0.161 HD
ENDROOT
BRANCH   7  11
HETATM   11  C   UNL     1      40.699 -14.677   5.409  1.00  0.00     0.275 C 
HETATM   12  N   UNL     1      41.657 -14.016   6.159  1.00  0.00    -0.263 N 
HETATM   13  H   UNL     1      41.321 -13.165   6.600  1.00  0.00     0.190 HD
HETATM   14  O   UNL     1      39.564 -14.208   5.337  1.00  0.00    -0.266 OA
BRANCH  12  15
HETATM   15  N   UNL     1      43.012 -13.990   5.778  1.00  0.00    -0.274 N 
HETATM   16  H   UNL     1      43.202 -13.899   4.786  1.00  0.00     0.189 HD
BRANCH  15  17
HETATM   17  C   UNL     1      44.005 -14.402   6.631  1.00  0.00     0.186 C 
HETATM   18  S   UNL     1      44.825 -13.425   7.711  1.00  0.00    -0.040 SA
BRANCH  17  19
HETATM   19  N   UNL     1      44.359 -15.714   6.559  1.00  0.00    -0.360 N 
HETATM   20  H   UNL     1      44.904 -15.959   5.741  1.00  0.00     0.162 HD
BRANCH  19  21
HETATM   21  C   UNL     1      44.057 -16.800   7.475  1.00  0.00     0.187 C 
BRANCH  21  22
HETATM   22  C   UNL     1      44.208 -18.099   6.780  1.00  0.00     0.070 A 
HETATM   23  O   UNL     1      43.541 -19.160   7.320  1.00  0.00    -0.325 OA
HETATM   24  C   UNL     1      43.808 -20.236   6.536  1.00  0.00     0.142 A 
HETATM   25  C   UNL     1      44.650 -19.885   5.508  1.00  0.00     0.027 A 
HETATM   26  C   UNL     1      44.914 -18.505   5.666  1.00  0.00     0.036 A 
ENDBRANCH  21  22
ENDBRANCH  19  21
ENDBRANCH  17  19
ENDBRANCH  15  17
ENDBRANCH  12  15
ENDBRANCH   7  11
BRANCH   1  27
HETATM   27  C   UNL     1      41.328 -14.585  -0.044  1.00  0.00    -0.035 A 
HETATM   28  C   UNL     1      41.022 -15.071  -1.325  1.00  0.00     0.012 A 
HETATM   29  C   UNL     1      40.556 -14.214  -2.325  1.00  0.00     0.037 A 
HETATM   30  C   UNL     1      40.379 -12.856  -2.068  1.00  0.00     0.068 A 
HETATM   31  C   UNL     1      40.723 -12.351  -0.815  1.00  0.00     0.037 A 
HETATM   32  C   UNL     1      41.202 -13.207   0.185  1.00  0.00     0.012 A 
BRANCH  30  33
HETATM   33  O   UNL     1      39.890 -12.130  -3.119  1.00  0.00    -0.356 OA
HETATM   34  C   UNL     1      38.493 -11.865  -3.103  1.00  0.00     0.210 C 
ENDBRANCH  30  33
ENDBRANCH   1  27
BRANCH   8  35
HETATM   35  C   UNL     1      43.437 -18.199   1.780  1.00  0.00     0.409 C 
HETATM   36  F   UNL     1      44.169 -17.390   2.578  1.00  0.00    -0.169 F 
HETATM   37  F   UNL     1      43.775 -19.473   2.074  1.00  0.00    -0.169 F 
HETATM   38  F   UNL     1      43.865 -17.977   0.509  1.00  0.00    -0.169 F 
ENDBRANCH   8  35
TORSDOF 9
ENDMDL
MODEL 6
REMARK VINA RESULT:      -8.6      3.395      5.826
REMARK  9 active torsions:
REMARK  status: ('A' for Active; 'I' for Inactive)
REMARK    1  A    between atoms: O_2  and  C_3 
REMARK    2  A    between atoms: C_6  and  C_7 
REMARK    3  A    between atoms: C_13  and  C_14 
REMARK       I    between atoms: C_14  and  N_15 
REMARK    4  A    between atoms: N_15  and  N_16 
REMARK    5  A    between atoms: N_16  and  C_17 
REMARK    6  A    between atoms: C_17  and  N_18 
REMARK    7  A    between atoms: N_18  and  C_19 
REMARK    8  A    between atoms: C_19  and  C_20 
REMARK    9  A    between atoms: C_27  and  C_28 
ROOT
HETATM    1  C   UNL     1      41.505 -16.038   1.137  1.00  0.00     0.118 C 
HETATM    2  N   UNL     1      41.022 -15.629   2.448  1.00  0.00    -0.365 N 
HETATM    3  C   UNL     1      41.329 -16.350   3.553  1.00  0.00     0.138 A 
HETATM    4  N   UNL     1      41.860 -17.609   3.436  1.00  0.00    -0.240 N 
HETATM    5  N   UNL     1      42.053 -18.228   4.607  1.00  0.00    -0.181 NA
HETATM    6  C   UNL     1      41.657 -17.316   5.502  1.00  0.00     0.160 A 
HETATM    7  C   UNL     1      41.208 -16.107   4.907  1.00  0.00     0.098 A 
HETATM    8  C   UNL     1      42.150 -18.265   2.172  1.00  0.00     0.221 C 
HETATM    9  C   UNL     1      41.387 -17.571   1.026  1.00  0.00     0.066 C 
HETATM   10  H   UNL     1      40.660 -14.675   2.531  1.00  0.00     0.161 HD
ENDROOT
BRANCH   7  11
HETATM   11  C   UNL     1      40.678 -14.905   5.527  1.00  0.00     0.275 C 
HETATM   12  N   UNL     1      41.521 -14.152   6.326  1.00  0.00    -0.263 N 
HETATM   13  H   UNL     1      41.089 -13.319   6.713  1.00  0.00     0.190 HD
HETATM   14  O   UNL     1      39.519 -14.527   5.355  1.00  0.00    -0.266 OA
BRANCH  12  15
HETATM   15  N   UNL     1      42.896 -14.031   6.047  1.00  0.00    -0.274 N 
HETATM   16  H   UNL     1      43.144 -13.754   5.103  1.00  0.00     0.189 HD
BRANCH  15  17
HETATM   17  C   UNL     1      43.846 -14.575   6.873  1.00  0.00     0.186 C 
HETATM   18  S   UNL     1      44.661 -16.010   6.605  1.00  0.00    -0.040 SA
BRANCH  17  19
HETATM   19  N   UNL     1      44.117 -13.892   8.018  1.00  0.00    -0.360 N 
HETATM   20  H   UNL     1      43.491 -14.096   8.789  1.00  0.00     0.162 HD
BRANCH  19  21
HETATM   21  C   UNL     1      45.157 -12.913   8.282  1.00  0.00     0.187 C 
BRANCH  21  22
HETATM   22  C   UNL     1      44.848 -12.176   9.528  1.00  0.00     0.070 A 
HETATM   23  O   UNL     1      44.315 -12.904  10.552  1.00  0.00    -0.325 OA
HETATM   24  C   UNL     1      44.117 -12.048  11.586  1.00  0.00     0.142 A 
HETATM   25  C   UNL     1      44.500 -10.775  11.238  1.00  0.00     0.027 A 
HETATM   26  C   UNL     1      44.969 -10.853   9.905  1.00  0.00     0.036 A 
ENDBRANCH  21  22
ENDBRANCH  19  21
ENDBRANCH  17  19
ENDBRANCH  15  17
ENDBRANCH  12  15
ENDBRANCH   7  11
BRANCH   1  27
HETATM   27  C   UNL     1      40.773 -15.274   0.050  1.00  0.00    -0.035 A 
HETATM   28  C   UNL     1      41.127 -15.488  -1.291  1.00  0.00     0.012 A 
HETATM   29  C   UNL     1      40.457 -14.827  -2.323  1.00  0.00     0.037 A 
HETATM   30  C   UNL     1      39.416 -13.943  -2.041  1.00  0.00     0.068 A 
HETATM   31  C   UNL     1      39.085 -13.686  -0.712  1.00  0.00     0.037 A 
HETATM   32  C   UNL     1      39.765 -14.339   0.325  1.00  0.00     0.012 A 
BRANCH  30  33
HETATM   33  O   UNL     1      38.822 -13.384  -3.139  1.00  0.00    -0.356 OA
HETATM   34  C   UNL     1      38.956 -11.975  -3.276  1.00  0.00     0.210 C 
ENDBRANCH  30  33
ENDBRANCH   1  27
BRANCH   8  35
HETATM   35  C   UNL     1      43.644 -18.279   1.938  1.00  0.00     0.409 C 
HETATM   36  F   UNL     1      44.243 -19.407   2.384  1.00  0.00    -0.169 F 
HETATM   37  F   UNL     1      43.979 -18.130   0.638  1.00  0.00    -0.169 F 
HETATM   38  F   UNL     1      44.227 -17.246   2.602  1.00  0.00    -0.169 F 
ENDBRANCH   8  35
TORSDOF 9
ENDMDL
MODEL 7
REMARK VINA RESULT:      -8.5      2.501      3.105
REMARK  9 active torsions:
REMARK  status: ('A' for Active; 'I' for Inactive)
REMARK    1  A    between atoms: O_2  and  C_3 
REMARK    2  A    between atoms: C_6  and  C_7 
REMARK    3  A    between atoms: C_13  and  C_14 
REMARK       I    between atoms: C_14  and  N_15 
REMARK    4  A    between atoms: N_15  and  N_16 
REMARK    5  A    between atoms: N_16  and  C_17 
REMARK    6  A    between atoms: C_17  and  N_18 
REMARK    7  A    between atoms: N_18  and  C_19 
REMARK    8  A    between atoms: C_19  and  C_20 
REMARK    9  A    between atoms: C_27  and  C_28 
ROOT
HETATM    1  C   UNL     1      42.288 -16.464   3.823  1.00  0.00     0.118 C 
HETATM    2  N   UNL     1      43.107 -15.821   4.839  1.00  0.00    -0.365 N 
HETATM    3  C   UNL     1      42.881 -14.533   5.194  1.00  0.00     0.138 A 
HETATM    4  N   UNL     1      42.073 -13.732   4.428  1.00  0.00    -0.240 N 
HETATM    5  N   UNL     1      41.992 -12.468   4.864  1.00  0.00    -0.181 NA
HETATM    6  C   UNL     1      42.754 -12.475   5.962  1.00  0.00     0.160 A 
HETATM    7  C   UNL     1      43.328 -13.745   6.238  1.00  0.00     0.098 A 
HETATM    8  C   UNL     1      41.392 -14.166   3.220  1.00  0.00     0.221 C 
HETATM    9  C   UNL     1      42.039 -15.458   2.682  1.00  0.00     0.066 C 
HETATM   10  H   UNL     1      43.679 -16.432   5.427  1.00  0.00     0.161 HD
ENDROOT
BRANCH   7  11
HETATM   11  C   UNL     1      44.226 -14.150   7.305  1.00  0.00     0.275 C 
HETATM   12  N   UNL     1      44.569 -13.212   8.264  1.00  0.00    -0.263 N 
HETATM   13  H   UNL     1      45.187 -13.568   8.987  1.00  0.00     0.190 HD
HETATM   14  O   UNL     1      44.676 -15.292   7.395  1.00  0.00    -0.266 OA
BRANCH  12  15
HETATM   15  N   UNL     1      43.664 -12.222   8.692  1.00  0.00    -0.274 N 
HETATM   16  H   UNL     1      43.041 -11.843   7.988  1.00  0.00     0.189 HD
BRANCH  15  17
HETATM   17  C   UNL     1      43.833 -11.564   9.884  1.00  0.00     0.186 C 
HETATM   18  S   UNL     1      45.191 -10.698  10.332  1.00  0.00    -0.040 SA
BRANCH  17  19
HETATM   19  N   UNL     1      42.811 -11.656  10.777  1.00  0.00    -0.360 N 
HETATM   20  H   UNL     1      42.706 -12.569  11.205  1.00  0.00     0.162 HD
BRANCH  19  21
HETATM   21  C   UNL     1      41.853 -10.645  11.187  1.00  0.00     0.187 C 
BRANCH  21  22
HETATM   22  C   UNL     1      42.138 -10.217  12.576  1.00  0.00     0.070 A 
HETATM   23  O   UNL     1      41.246 -10.614  13.531  1.00  0.00    -0.325 OA
HETATM   24  C   UNL     1      41.693 -10.126  14.716  1.00  0.00     0.142 A 
HETATM   25  C   UNL     1      42.851  -9.409  14.536  1.00  0.00     0.027 A 
HETATM   26  C   UNL     1      43.139  -9.461  13.152  1.00  0.00     0.036 A 
ENDBRANCH  21  22
ENDBRANCH  19  21
ENDBRANCH  17  19
ENDBRANCH  15  17
ENDBRANCH  12  15
ENDBRANCH   7  11
BRANCH   1  27
HETATM   27  C   UNL     1      42.931 -17.764   3.380  1.00  0.00    -0.035 A 
HETATM   28  C   UNL     1      43.776 -18.446   4.269  1.00  0.00     0.012 A 
HETATM   29  C   UNL     1      44.363 -19.662   3.910  1.00  0.00     0.037 A 
HETATM   30  C   UNL     1      44.117 -20.226   2.659  1.00  0.00     0.068 A 
HETATM   31  C   UNL     1      43.318 -19.537   1.749  1.00  0.00     0.037 A 
HETATM   32  C   UNL     1      42.738 -18.312   2.103  1.00  0.00     0.012 A 
BRANCH  30  33
HETATM   33  O   UNL     1      44.727 -21.430   2.441  1.00  0.00    -0.356 OA
HETATM   34  C   UNL     1      44.219 -22.206   1.363  1.00  0.00     0.210 C 
ENDBRANCH  30  33
ENDBRANCH   1  27
BRANCH   8  35
HETATM   35  C   UNL     1      39.916 -14.339   3.502  1.00  0.00     0.409 C 
HETATM   36  F   UNL     1      39.658 -14.718   4.775  1.00  0.00    -0.169 F 
HETATM   37  F   UNL     1      39.195 -13.224   3.257  1.00  0.00    -0.169 F 
HETATM   38  F   UNL     1      39.402 -15.308   2.700  1.00  0.00    -0.169 F 
ENDBRANCH   8  35
TORSDOF 9
ENDMDL
MODEL 8
REMARK VINA RESULT:      -8.4      2.044      2.344
REMARK  9 active torsions:
REMARK  status: ('A' for Active; 'I' for Inactive)
REMARK    1  A    between atoms: O_2  and  C_3 
REMARK    2  A    between atoms: C_6  and  C_7 
REMARK    3  A    between atoms: C_13  and  C_14 
REMARK       I    between atoms: C_14  and  N_15 
REMARK    4  A    between atoms: N_15  and  N_16 
REMARK    5  A    between atoms: N_16  and  C_17 
REMARK    6  A    between atoms: C_17  and  N_18 
REMARK    7  A    between atoms: N_18  and  C_19 
REMARK    8  A    between atoms: C_19  and  C_20 
REMARK    9  A    between atoms: C_27  and  C_28 
ROOT
HETATM    1  C   UNL     1      42.294 -17.107   2.353  1.00  0.00     0.118 C 
HETATM    2  N   UNL     1      41.916 -16.276   3.486  1.00  0.00    -0.365 N 
HETATM    3  C   UNL     1      41.462 -15.014   3.296  1.00  0.00     0.138 A 
HETATM    4  N   UNL     1      41.602 -14.401   2.077  1.00  0.00    -0.240 N 
HETATM    5  N   UNL     1      41.166 -13.135   2.053  1.00  0.00    -0.181 NA
HETATM    6  C   UNL     1      40.706 -12.948   3.294  1.00  0.00     0.160 A 
HETATM    7  C   UNL     1      40.844 -14.094   4.121  1.00  0.00     0.098 A 
HETATM    8  C   UNL     1      42.211 -15.019   0.911  1.00  0.00     0.221 C 
HETATM    9  C   UNL     1      43.057 -16.236   1.336  1.00  0.00     0.066 C 
HETATM   10  H   UNL     1      41.780 -16.750   4.383  1.00  0.00     0.161 HD
ENDROOT
BRANCH   7  11
HETATM   11  C   UNL     1      40.498 -14.281   5.520  1.00  0.00     0.275 C 
HETATM   12  N   UNL     1      41.494 -14.687   6.392  1.00  0.00    -0.263 N 
HETATM   13  H   UNL     1      41.185 -14.783   7.356  1.00  0.00     0.190 HD
HETATM   14  O   UNL     1      39.365 -14.077   5.955  1.00  0.00    -0.266 OA
BRANCH  12  15
HETATM   15  N   UNL     1      42.831 -14.276   6.237  1.00  0.00    -0.274 N 
HETATM   16  H   UNL     1      43.047 -13.742   5.403  1.00  0.00     0.189 HD
BRANCH  15  17
HETATM   17  C   UNL     1      43.844 -14.839   6.971  1.00  0.00     0.186 C 
HETATM   18  S   UNL     1      44.479 -16.368   6.740  1.00  0.00    -0.040 SA
BRANCH  17  19
HETATM   19  N   UNL     1      44.345 -14.087   7.988  1.00  0.00    -0.360 N 
HETATM   20  H   UNL     1      44.080 -14.400   8.915  1.00  0.00     0.162 HD
BRANCH  19  21
HETATM   21  C   UNL     1      45.186 -12.904   7.931  1.00  0.00     0.187 C 
BRANCH  21  22
HETATM   22  C   UNL     1      44.835 -11.984   9.037  1.00  0.00     0.070 A 
HETATM   23  O   UNL     1      43.653 -11.311   8.918  1.00  0.00    -0.325 OA
HETATM   24  C   UNL     1      43.525 -10.538  10.026  1.00  0.00     0.142 A 
HETATM   25  C   UNL     1      44.615 -10.691  10.849  1.00  0.00     0.027 A 
HETATM   26  C   UNL     1      45.466 -11.623  10.210  1.00  0.00     0.036 A 
ENDBRANCH  21  22
ENDBRANCH  19  21
ENDBRANCH  17  19
ENDBRANCH  15  17
ENDBRANCH  12  15
ENDBRANCH   7  11
BRANCH   1  27
HETATM   27  C   UNL     1      43.060 -18.325   2.832  1.00  0.00    -0.035 A 
HETATM   28  C   UNL     1      43.557 -18.347   4.143  1.00  0.00     0.012 A 
HETATM   29  C   UNL     1      44.242 -19.464   4.632  1.00  0.00     0.037 A 
HETATM   30  C   UNL     1      44.440 -20.582   3.824  1.00  0.00     0.068 A 
HETATM   31  C   UNL     1      43.993 -20.556   2.505  1.00  0.00     0.037 A 
HETATM   32  C   UNL     1      43.317 -19.433   2.010  1.00  0.00     0.012 A 
BRANCH  30  33
HETATM   33  O   UNL     1      45.098 -21.618   4.428  1.00  0.00    -0.356 OA
HETATM   34  C   UNL     1      44.711 -22.927   4.027  1.00  0.00     0.210 C 
ENDBRANCH  30  33
ENDBRANCH   1  27
BRANCH   8  35
HETATM   35  C   UNL     1      41.137 -15.389  -0.087  1.00  0.00     0.409 C 
HETATM   36  F   UNL     1      39.920 -15.559   0.479  1.00  0.00    -0.169 F 
HETATM   37  F   UNL     1      41.000 -14.484  -1.080  1.00  0.00    -0.169 F 
HETATM   38  F   UNL     1      41.449 -16.568  -0.688  1.00  0.00    -0.169 F 
ENDBRANCH   8  35
TORSDOF 9
ENDMDL
MODEL 9
REMARK VINA RESULT:      -8.3      2.328      4.161
REMARK  9 active torsions:
REMARK  status: ('A' for Active; 'I' for Inactive)
REMARK    1  A    between atoms: O_2  and  C_3 
REMARK    2  A    between atoms: C_6  and  C_7 
REMARK    3  A    between atoms: C_13  and  C_14 
REMARK       I    between atoms: C_14  and  N_15 
REMARK    4  A    between atoms: N_15  and  N_16 
REMARK    5  A    between atoms: N_16  and  C_17 
REMARK    6  A    between atoms: C_17  and  N_18 
REMARK    7  A    between atoms: N_18  and  C_19 
REMARK    8  A    between atoms: C_19  and  C_20 
REMARK    9  A    between atoms: C_27  and  C_28 
ROOT
HETATM    1  C   UNL     1      42.768 -17.457   2.434  1.00  0.00     0.118 C 
HETATM    2  N   UNL     1      43.063 -16.533   3.519  1.00  0.00    -0.365 N 
HETATM    3  C   UNL     1      42.873 -15.201   3.363  1.00  0.00     0.138 A 
HETATM    4  N   UNL     1      42.664 -14.670   2.116  1.00  0.00    -0.240 N 
HETATM    5  N   UNL     1      42.556 -13.335   2.105  1.00  0.00    -0.181 NA
HETATM    6  C   UNL     1      42.672 -13.011   3.397  1.00  0.00     0.160 A 
HETATM    7  C   UNL     1      42.854 -14.137   4.244  1.00  0.00     0.098 A 
HETATM    8  C   UNL     1      42.611 -15.447   0.889  1.00  0.00     0.221 C 
HETATM    9  C   UNL     1      43.253 -16.832   1.110  1.00  0.00     0.066 C 
HETATM   10  H   UNL     1      43.182 -16.938   4.451  1.00  0.00     0.161 HD
ENDROOT
BRANCH   7  11
HETATM   11  C   UNL     1      43.048 -14.200   5.682  1.00  0.00     0.275 C 
HETATM   12  N   UNL     1      42.214 -13.445   6.489  1.00  0.00    -0.263 N 
HETATM   13  H   UNL     1      42.395 -13.549   7.483  1.00  0.00     0.190 HD
HETATM   14  O   UNL     1      43.908 -14.907   6.204  1.00  0.00    -0.266 OA
BRANCH  12  15
HETATM   15  N   UNL     1      40.866 -13.213   6.154  1.00  0.00    -0.274 N 
HETATM   16  H   UNL     1      40.404 -13.934   5.611  1.00  0.00     0.189 HD
BRANCH  15  17
HETATM   17  C   UNL     1      40.308 -11.963   6.250  1.00  0.00     0.186 C 
HETATM   18  S   UNL     1      39.923 -11.178   7.674  1.00  0.00    -0.040 SA
BRANCH  17  19
HETATM   19  N   UNL     1      40.023 -11.336   5.077  1.00  0.00    -0.360 N 
HETATM   20  H   UNL     1      40.834 -11.109   4.512  1.00  0.00     0.162 HD
BRANCH  19  21
HETATM   21  C   UNL     1      38.736 -10.938   4.535  1.00  0.00     0.187 C 
BRANCH  21  22
HETATM   22  C   UNL     1      38.521 -11.589   3.223  1.00  0.00     0.070 A 
HETATM   23  O   UNL     1      37.613 -11.000   2.391  1.00  0.00    -0.325 OA
HETATM   24  C   UNL     1      37.575 -11.744   1.256  1.00  0.00     0.142 A 
HETATM   25  C   UNL     1      38.433 -12.812   1.352  1.00  0.00     0.027 A 
HETATM   26  C   UNL     1      39.044 -12.718   2.624  1.00  0.00     0.036 A 
ENDBRANCH  21  22
ENDBRANCH  19  21
ENDBRANCH  17  19
ENDBRANCH  15  17
ENDBRANCH  12  15
ENDBRANCH   7  11
BRANCH   1  27
HETATM   27  C   UNL     1      43.358 -18.821   2.734  1.00  0.00    -0.035 A 
HETATM   28  C   UNL     1      43.996 -19.033   3.966  1.00  0.00     0.012 A 
HETATM   29  C   UNL     1      44.526 -20.284   4.292  1.00  0.00     0.037 A 
HETATM   30  C   UNL     1      44.427 -21.350   3.400  1.00  0.00     0.068 A 
HETATM   31  C   UNL     1      43.839 -21.141   2.154  1.00  0.00     0.037 A 
HETATM   32  C   UNL     1      43.317 -19.884   1.821  1.00  0.00     0.012 A 
BRANCH  30  33
HETATM   33  O   UNL     1      44.958 -22.528   3.849  1.00  0.00    -0.356 OA
HETATM   34  C   UNL     1      45.170 -22.627   5.252  1.00  0.00     0.210 C 
ENDBRANCH  30  33
ENDBRANCH   1  27
BRANCH   8  35
HETATM   35  C   UNL     1      41.179 -15.549   0.413  1.00  0.00     0.409 C 
HETATM   36  F   UNL     1      40.958 -16.621  -0.381  1.00  0.00    -0.169 F 
HETATM   37  F   UNL     1      40.287 -15.603   1.425  1.00  0.00    -0.169 F 
HETATM   38  F   UNL     1      40.856 -14.452  -0.321  1.00  0.00    -0.169 F 
ENDBRANCH   8  35
TORSDOF 9
ENDMDL
MODEL 10
REMARK VINA RESULT:      -8.3      1.346      1.769
REMARK  9 active torsions:
REMARK  status: ('A' for Active; 'I' for Inactive)
REMARK    1  A    between atoms: O_2  and  C_3 
REMARK    2  A    between atoms: C_6  and  C_7 
REMARK    3  A    between atoms: C_13  and  C_14 
REMARK       I    between atoms: C_14  and  N_15 
REMARK    4  A    between atoms: N_15  and  N_16 
REMARK    5  A    between atoms: N_16  and  C_17 
REMARK    6  A    between atoms: C_17  and  N_18 
REMARK    7  A    between atoms: N_18  and  C_19 
REMARK    8  A    between atoms: C_19  and  C_20 
REMARK    9  A    between atoms: C_27  and  C_28 
ROOT
HETATM    1  C   UNL     1      42.755 -17.260   2.711  1.00  0.00     0.118 C 
HETATM    2  N   UNL     1      43.032 -16.261   3.732  1.00  0.00    -0.365 N 
HETATM    3  C   UNL     1      42.737 -14.956   3.518  1.00  0.00     0.138 A 
HETATM    4  N   UNL     1      42.430 -14.509   2.258  1.00  0.00    -0.240 N 
HETATM    5  N   UNL     1      42.223 -13.188   2.186  1.00  0.00    -0.181 NA
HETATM    6  C   UNL     1      42.376 -12.787   3.452  1.00  0.00     0.160 A 
HETATM    7  C   UNL     1      42.681 -13.849   4.344  1.00  0.00     0.098 A 
HETATM    8  C   UNL     1      42.377 -15.353   1.077  1.00  0.00     0.221 C 
HETATM    9  C   UNL     1      43.129 -16.675   1.335  1.00  0.00     0.066 C 
HETATM   10  H   UNL     1      43.226 -16.605   4.676  1.00  0.00     0.161 HD
ENDROOT
BRANCH   7  11
HETATM   11  C   UNL     1      42.947 -13.821   5.772  1.00  0.00     0.275 C 
HETATM   12  N   UNL     1      42.120 -13.055   6.577  1.00  0.00    -0.263 N 
HETATM   13  H   UNL     1      42.354 -13.094   7.565  1.00  0.00     0.190 HD
HETATM   14  O   UNL     1      43.863 -14.460   6.288  1.00  0.00    -0.266 OA
BRANCH  12  15
HETATM   15  N   UNL     1      40.748 -12.900   6.299  1.00  0.00    -0.274 N 
HETATM   16  H   UNL     1      40.384 -13.424   5.510  1.00  0.00     0.189 HD
BRANCH  15  17
HETATM   17  C   UNL     1      40.023 -11.863   6.827  1.00  0.00     0.186 C 
HETATM   18  S   UNL     1      39.618 -10.453   6.025  1.00  0.00    -0.040 SA
BRANCH  17  19
HETATM   19  N   UNL     1      39.630 -11.996   8.122  1.00  0.00    -0.360 N 
HETATM   20  H   UNL     1      39.530 -12.954   8.437  1.00  0.00     0.162 HD
BRANCH  19  21
HETATM   21  C   UNL     1      39.327 -10.968   9.102  1.00  0.00     0.187 C 
BRANCH  21  22
HETATM   22  C   UNL     1      40.343 -10.985  10.180  1.00  0.00     0.070 A 
HETATM   23  O   UNL     1      41.643 -10.832   9.795  1.00  0.00    -0.325 OA
HETATM   24  C   UNL     1      42.397 -10.872  10.923  1.00  0.00     0.142 A 
HETATM   25  C   UNL     1      41.603 -11.064  12.027  1.00  0.00     0.027 A 
HETATM   26  C   UNL     1      40.273 -11.143  11.550  1.00  0.00     0.036 A 
ENDBRANCH  21  22
ENDBRANCH  19  21
ENDBRANCH  17  19
ENDBRANCH  15  17
ENDBRANCH  12  15
ENDBRANCH   7  11
BRANCH   1  27
HETATM   27  C   UNL     1      43.459 -18.560   3.049  1.00  0.00    -0.035 A 
HETATM   28  C   UNL     1      44.053 -18.707   4.311  1.00  0.00     0.012 A 
HETATM   29  C   UNL     1      44.684 -19.901   4.672  1.00  0.00     0.037 A 
HETATM   30  C   UNL     1      44.732 -20.973   3.784  1.00  0.00     0.068 A 
HETATM   31  C   UNL     1      44.187 -20.825   2.509  1.00  0.00     0.037 A 
HETATM   32  C   UNL     1      43.565 -19.625   2.142  1.00  0.00     0.012 A 
BRANCH  30  33
HETATM   33  O   UNL     1      45.351 -22.093   4.266  1.00  0.00    -0.356 OA
HETATM   34  C   UNL     1      44.899 -22.567   5.529  1.00  0.00     0.210 C 
ENDBRANCH  30  33
ENDBRANCH   1  27
BRANCH   8  35
HETATM   35  C   UNL     1      40.935 -15.583   0.681  1.00  0.00     0.409 C 
HETATM   36  F   UNL     1      40.448 -14.623  -0.137  1.00  0.00    -0.169 F 
HETATM   37  F   UNL     1      40.736 -16.773   0.074  1.00  0.00    -0.169 F 
HETATM   38  F   UNL     1      40.145 -15.584   1.787  1.00  0.00    -0.169 F 
ENDBRANCH   8  35
TORSDOF 9
ENDMDL
