MODEL 1
REMARK VINA RESULT:      -9.1      0.000      0.000
REMARK  9 active torsions:
REMARK  status: ('A' for Active; 'I' for Inactive)
REMARK    1  A    between atoms: C_2  and  C_3 
REMARK    2  A    between atoms: C_4  and  O_5 
REMARK    3  A    between atoms: C_6  and  C_7 
REMARK    4  A    between atoms: C_12  and  C_13 
REMARK    5  A    between atoms: C_13  and  C_14 
REMARK    6  A    between atoms: C_14  and  N_15 
REMARK    7  A    between atoms: N_20  and  C_21 
REMARK    8  A    between atoms: C_21  and  C_22 
REMARK    9  A    between atoms: C_22  and  N_23 
ROOT
HETATM    1  N   UNL     1      39.395 -13.701   3.429  1.00  0.00    -0.174 N 
HETATM    2  C   UNL     1      38.912 -14.319   2.290  1.00  0.00     0.681 A 
HETATM    3  N   UNL     1      39.008 -15.629   2.050  1.00  0.00    -0.234 N 
HETATM    4  H   UNL     1      38.541 -16.123   1.308  1.00  0.00     0.174 HD
HETATM    5  H   UNL     1      39.703 -16.163   2.584  1.00  0.00     0.174 HD
HETATM    6  N   UNL     1      38.276 -13.429   1.409  1.00  0.00    -0.180 N 
HETATM    7  C   UNL     1      38.331 -12.166   2.090  1.00  0.00     0.079 A 
HETATM    8  C   UNL     1      39.043 -12.328   3.289  1.00  0.00     0.079 A 
HETATM    9  C   UNL     1      37.778 -10.950   1.748  1.00  0.00     0.032 A 
HETATM   10  C   UNL     1      38.003  -9.871   2.612  1.00  0.00     0.002 A 
HETATM   11  C   UNL     1      38.742 -10.031   3.797  1.00  0.00     0.002 A 
HETATM   12  C   UNL     1      39.262 -11.277   4.154  1.00  0.00     0.032 A 
ENDROOT
BRANCH   1  13
HETATM   13  C   UNL     1      39.919 -14.306   4.667  1.00  0.00     0.231 C 
BRANCH  13  14
HETATM   14  C   UNL     1      41.423 -14.363   4.780  1.00  0.00     0.178 C 
HETATM   15  O   UNL     1      42.085 -13.333   4.924  1.00  0.00    -0.290 OA
BRANCH  14  16
HETATM   16  C   UNL     1      42.085 -15.698   4.662  1.00  0.00     0.013 A 
HETATM   17  C   UNL     1      42.164 -16.365   3.434  1.00  0.00     0.026 A 
HETATM   18  C   UNL     1      42.797 -17.617   3.300  1.00  0.00    -0.016 A 
HETATM   19  C   UNL     1      43.391 -18.146   4.469  1.00  0.00     0.079 A 
HETATM   20  C   UNL     1      43.309 -17.526   5.742  1.00  0.00    -0.016 A 
HETATM   21  C   UNL     1      42.653 -16.278   5.798  1.00  0.00     0.026 A 
BRANCH  18  22
HETATM   22  C   UNL     1      42.861 -18.267   1.890  1.00  0.00    -0.021 C 
HETATM   23  C   UNL     1      43.024 -19.804   1.860  1.00  0.00     0.019 C 
HETATM   24  C   UNL     1      41.558 -17.985   1.091  1.00  0.00     0.019 C 
HETATM   25  C   UNL     1      44.051 -17.651   1.127  1.00  0.00     0.019 C 
ENDBRANCH  18  22
BRANCH  19  26
HETATM   26  O   UNL     1      44.165 -19.262   4.355  1.00  0.00    -0.360 OA
HETATM   27  H   UNL     1      44.366 -19.559   5.260  1.00  0.00     0.217 HD
ENDBRANCH  19  26
BRANCH  20  28
HETATM   28  C   UNL     1      43.963 -18.116   7.021  1.00  0.00    -0.021 C 
HETATM   29  C   UNL     1      45.491 -17.948   6.905  1.00  0.00     0.019 C 
HETATM   30  C   UNL     1      43.636 -19.612   7.254  1.00  0.00     0.019 C 
HETATM   31  C   UNL     1      43.503 -17.395   8.315  1.00  0.00     0.019 C 
ENDBRANCH  20  28
ENDBRANCH  14  16
ENDBRANCH  13  14
ENDBRANCH   1  13
BRANCH   6  32
HETATM   32  C   UNL     1      37.461 -13.755   0.229  1.00  0.00     0.175 C 
BRANCH  32  33
HETATM   33  C   UNL     1      38.060 -13.409  -1.156  1.00  0.00     0.256 C 
BRANCH  33  34
HETATM   34  N   UNL     1      38.692 -14.579  -1.886  1.00  0.00    -0.066 N 
HETATM   35  H   UNL     1      38.389 -15.463  -1.456  1.00  0.00     0.280 HD
HETATM   36  C   UNL     1      38.164 -14.624  -3.343  1.00  0.00     0.261 C 
HETATM   37  C   UNL     1      38.805 -15.787  -4.101  1.00  0.00     0.195 C 
HETATM   38  O   UNL     1      40.230 -15.672  -4.080  1.00  0.00    -0.388 OA
HETATM   39  C   UNL     1      40.747 -15.727  -2.750  1.00  0.00     0.195 C 
HETATM   40  C   UNL     1      40.219 -14.557  -1.911  1.00  0.00     0.261 C 
ENDBRANCH  33  34
ENDBRANCH  32  33
ENDBRANCH   6  32
TORSDOF 9
ENDMDL
MODEL 2
REMARK VINA RESULT:      -8.8      0.251      3.071
REMARK  9 active torsions:
REMARK  status: ('A' for Active; 'I' for Inactive)
REMARK    1  A    between atoms: C_2  and  C_3 
REMARK    2  A    between atoms: C_4  and  O_5 
REMARK    3  A    between atoms: C_6  and  C_7 
REMARK    4  A    between atoms: C_12  and  C_13 
REMARK    5  A    between atoms: C_13  and  C_14 
REMARK    6  A    between atoms: C_14  and  N_15 
REMARK    7  A    between atoms: N_20  and  C_21 
REMARK    8  A    between atoms: C_21  and  C_22 
REMARK    9  A    between atoms: C_22  and  N_23 
ROOT
HETATM    1  N   UNL     1      39.409 -13.600   3.534  1.00  0.00    -0.174 N 
HETATM    2  C   UNL     1      38.960 -14.267   2.408  1.00  0.00     0.681 A 
HETATM    3  N   UNL     1      39.099 -15.580   2.210  1.00  0.00    -0.234 N 
HETATM    4  H   UNL     1      38.657 -16.111   1.478  1.00  0.00     0.174 HD
HETATM    5  H   UNL     1      39.803 -16.076   2.769  1.00  0.00     0.174 HD
HETATM    6  N   UNL     1      38.309 -13.424   1.492  1.00  0.00    -0.180 N 
HETATM    7  C   UNL     1      38.317 -12.140   2.135  1.00  0.00     0.079 A 
HETATM    8  C   UNL     1      39.017 -12.243   3.347  1.00  0.00     0.079 A 
HETATM    9  C   UNL     1      37.733 -10.952   1.749  1.00  0.00     0.032 A 
HETATM   10  C   UNL     1      37.913  -9.842   2.582  1.00  0.00     0.002 A 
HETATM   11  C   UNL     1      38.640  -9.943   3.781  1.00  0.00     0.002 A 
HETATM   12  C   UNL     1      39.193 -11.160   4.183  1.00  0.00     0.032 A 
ENDROOT
BRANCH   1  13
HETATM   13  C   UNL     1      39.934 -14.151   4.796  1.00  0.00     0.231 C 
BRANCH  13  14
HETATM   14  C   UNL     1      41.437 -14.144   4.937  1.00  0.00     0.178 C 
HETATM   15  O   UNL     1      42.046 -13.094   5.147  1.00  0.00    -0.290 OA
BRANCH  14  16
HETATM   16  C   UNL     1      42.163 -15.440   4.763  1.00  0.00     0.013 A 
HETATM   17  C   UNL     1      42.721 -16.112   5.856  1.00  0.00     0.026 A 
HETATM   18  C   UNL     1      43.397 -17.341   5.714  1.00  0.00    -0.016 A 
HETATM   19  C   UNL     1      43.442 -17.884   4.410  1.00  0.00     0.079 A 
HETATM   20  C   UNL     1      42.921 -17.225   3.267  1.00  0.00    -0.016 A 
HETATM   21  C   UNL     1      42.266 -15.996   3.486  1.00  0.00     0.026 A 
BRANCH  18  22
HETATM   22  C   UNL     1      43.958 -18.028   6.990  1.00  0.00    -0.021 C 
HETATM   23  C   UNL     1      43.585 -19.517   7.177  1.00  0.00     0.019 C 
HETATM   24  C   UNL     1      45.512 -17.999   6.997  1.00  0.00     0.019 C 
HETATM   25  C   UNL     1      43.444 -17.255   8.221  1.00  0.00     0.019 C 
ENDBRANCH  18  22
BRANCH  19  26
HETATM   26  O   UNL     1      43.924 -19.148   4.249  1.00  0.00    -0.360 OA
HETATM   27  H   UNL     1      43.182 -19.756   4.413  1.00  0.00     0.217 HD
ENDBRANCH  19  26
BRANCH  20  28
HETATM   28  C   UNL     1      42.977 -17.829   1.836  1.00  0.00    -0.021 C 
HETATM   29  C   UNL     1      44.352 -17.496   1.224  1.00  0.00     0.019 C 
HETATM   30  C   UNL     1      41.865 -17.304   0.895  1.00  0.00     0.019 C 
HETATM   31  C   UNL     1      42.816 -19.372   1.832  1.00  0.00     0.019 C 
ENDBRANCH  20  28
ENDBRANCH  14  16
ENDBRANCH  13  14
ENDBRANCH   1  13
BRANCH   6  32
HETATM   32  C   UNL     1      37.521 -13.810   0.313  1.00  0.00     0.175 C 
BRANCH  32  33
HETATM   33  C   UNL     1      38.101 -13.438  -1.073  1.00  0.00     0.256 C 
BRANCH  33  34
HETATM   34  N   UNL     1      38.719 -14.594  -1.836  1.00  0.00    -0.066 N 
HETATM   35  H   UNL     1      38.420 -15.486  -1.419  1.00  0.00     0.280 HD
HETATM   36  C   UNL     1      38.171 -14.607  -3.285  1.00  0.00     0.261 C 
HETATM   37  C   UNL     1      38.797 -15.756  -4.077  1.00  0.00     0.195 C 
HETATM   38  O   UNL     1      40.223 -15.646  -4.073  1.00  0.00    -0.388 OA
HETATM   39  C   UNL     1      40.759 -15.730  -2.753  1.00  0.00     0.195 C 
HETATM   40  C   UNL     1      40.246 -14.576  -1.882  1.00  0.00     0.261 C 
ENDBRANCH  33  34
ENDBRANCH  32  33
ENDBRANCH   6  32
TORSDOF 9
ENDMDL
MODEL 3
REMARK VINA RESULT:      -8.8      4.367      8.205
REMARK  9 active torsions:
REMARK  status: ('A' for Active; 'I' for Inactive)
REMARK    1  A    between atoms: C_2  and  C_3 
REMARK    2  A    between atoms: C_4  and  O_5 
REMARK    3  A    between atoms: C_6  and  C_7 
REMARK    4  A    between atoms: C_12  and  C_13 
REMARK    5  A    between atoms: C_13  and  C_14 
REMARK    6  A    between atoms: C_14  and  N_15 
REMARK    7  A    between atoms: N_20  and  C_21 
REMARK    8  A    between atoms: C_21  and  C_22 
REMARK    9  A    between atoms: C_22  and  N_23 
ROOT
HETATM    1  N   UNL     1      41.893 -12.456   5.794  1.00  0.00    -0.174 N 
HETATM    2  C   UNL     1      41.273 -11.436   6.493  1.00  0.00     0.681 A 
HETATM    3  N   UNL     1      40.099 -10.900   6.151  1.00  0.00    -0.234 N 
HETATM    4  H   UNL     1      39.559 -10.266   6.717  1.00  0.00     0.174 HD
HETATM    5  H   UNL     1      39.769 -11.044   5.190  1.00  0.00     0.174 HD
HETATM    6  N   UNL     1      41.993 -11.030   7.629  1.00  0.00    -0.180 N 
HETATM    7  C   UNL     1      43.127 -11.911   7.655  1.00  0.00     0.079 A 
HETATM    8  C   UNL     1      43.083 -12.741   6.524  1.00  0.00     0.079 A 
HETATM    9  C   UNL     1      44.124 -12.044   8.599  1.00  0.00     0.032 A 
HETATM   10  C   UNL     1      45.121 -12.997   8.356  1.00  0.00     0.002 A 
HETATM   11  C   UNL     1      45.089 -13.805   7.206  1.00  0.00     0.002 A 
HETATM   12  C   UNL     1      44.052 -13.691   6.278  1.00  0.00     0.032 A 
ENDROOT
BRANCH   1  13
HETATM   13  C   UNL     1      41.368 -13.287   4.697  1.00  0.00     0.231 C 
BRANCH  13  14
HETATM   14  C   UNL     1      40.798 -14.624   5.106  1.00  0.00     0.178 C 
HETATM   15  O   UNL     1      39.687 -14.702   5.635  1.00  0.00    -0.290 OA
BRANCH  14  16
HETATM   16  C   UNL     1      41.642 -15.840   4.894  1.00  0.00     0.013 A 
HETATM   17  C   UNL     1      41.783 -16.416   3.627  1.00  0.00     0.026 A 
HETATM   18  C   UNL     1      42.586 -17.554   3.406  1.00  0.00    -0.016 A 
HETATM   19  C   UNL     1      43.280 -18.058   4.529  1.00  0.00     0.079 A 
HETATM   20  C   UNL     1      43.144 -17.530   5.838  1.00  0.00    -0.016 A 
HETATM   21  C   UNL     1      42.317 -16.397   5.983  1.00  0.00     0.026 A 
BRANCH  18  22
HETATM   22  C   UNL     1      42.704 -18.105   1.958  1.00  0.00    -0.021 C 
HETATM   23  C   UNL     1      42.864 -19.637   1.827  1.00  0.00     0.019 C 
HETATM   24  C   UNL     1      41.437 -17.761   1.128  1.00  0.00     0.019 C 
HETATM   25  C   UNL     1      43.927 -17.444   1.288  1.00  0.00     0.019 C 
ENDBRANCH  18  22
BRANCH  19  26
HETATM   26  O   UNL     1      44.203 -19.041   4.334  1.00  0.00    -0.360 OA
HETATM   27  H   UNL     1      44.518 -19.311   5.214  1.00  0.00     0.217 HD
ENDBRANCH  19  26
BRANCH  20  28
HETATM   28  C   UNL     1      43.910 -18.093   7.068  1.00  0.00    -0.021 C 
HETATM   29  C   UNL     1      43.445 -17.325   8.321  1.00  0.00     0.019 C 
HETATM   30  C   UNL     1      45.450 -17.977   6.948  1.00  0.00     0.019 C 
HETATM   31  C   UNL     1      43.636 -19.601   7.305  1.00  0.00     0.019 C 
ENDBRANCH  20  28
ENDBRANCH  14  16
ENDBRANCH  13  14
ENDBRANCH   1  13
BRANCH   6  32
HETATM   32  C   UNL     1      41.543 -10.146   8.714  1.00  0.00     0.175 C 
BRANCH  32  33
HETATM   33  C   UNL     1      40.758 -10.802   9.875  1.00  0.00     0.256 C 
BRANCH  33  34
HETATM   34  N   UNL     1      41.516 -10.892  11.186  1.00  0.00    -0.066 N 
HETATM   35  H   UNL     1      41.955 -11.819  11.272  1.00  0.00     0.280 HD
HETATM   36  C   UNL     1      42.687  -9.877  11.175  1.00  0.00     0.261 C 
HETATM   37  C   UNL     1      43.453  -9.940  12.497  1.00  0.00     0.195 C 
HETATM   38  O   UNL     1      42.574  -9.689  13.596  1.00  0.00    -0.388 OA
HETATM   39  C   UNL     1      41.541 -10.671  13.684  1.00  0.00     0.195 C 
HETATM   40  C   UNL     1      40.660 -10.651  12.428  1.00  0.00     0.261 C 
ENDBRANCH  33  34
ENDBRANCH  32  33
ENDBRANCH   6  32
TORSDOF 9
ENDMDL
MODEL 4
REMARK VINA RESULT:      -8.7      2.088      3.194
REMARK  9 active torsions:
REMARK  status: ('A' for Active; 'I' for Inactive)
REMARK    1  A    between atoms: C_2  and  C_3 
REMARK    2  A    between atoms: C_4  and  O_5 
REMARK    3  A    between atoms: C_6  and  C_7 
REMARK    4  A    between atoms: C_12  and  C_13 
REMARK    5  A    between atoms: C_13  and  C_14 
REMARK    6  A    between atoms: C_14  and  N_15 
REMARK    7  A    between atoms: N_20  and  C_21 
REMARK    8  A    between atoms: C_21  and  C_22 
REMARK    9  A    between atoms: C_22  and  N_23 
ROOT
HETATM    1  N   UNL     1      40.123 -15.242   1.983  1.00  0.00    -0.174 N 
HETATM    2  C   UNL     1      39.824 -14.452   0.887  1.00  0.00     0.681 A 
HETATM    3  N   UNL     1      39.823 -14.891  -0.375  1.00  0.00    -0.234 N 
HETATM    4  H   UNL     1      39.470 -14.384  -1.169  1.00  0.00     0.174 HD
HETATM    5  H   UNL     1      40.327 -15.762  -0.578  1.00  0.00     0.174 HD
HETATM    6  N   UNL     1      39.491 -13.132   1.234  1.00  0.00    -0.180 N 
HETATM    7  C   UNL     1      39.542 -13.127   2.669  1.00  0.00     0.079 A 
HETATM    8  C   UNL     1      39.963 -14.390   3.113  1.00  0.00     0.079 A 
HETATM    9  C   UNL     1      39.211 -12.130   3.563  1.00  0.00     0.032 A 
HETATM   10  C   UNL     1      39.367 -12.406   4.926  1.00  0.00     0.002 A 
HETATM   11  C   UNL     1      39.818 -13.663   5.366  1.00  0.00     0.002 A 
HETATM   12  C   UNL     1      40.110 -14.679   4.454  1.00  0.00     0.032 A 
ENDROOT
BRANCH   1  13
HETATM   13  C   UNL     1      40.304 -16.702   2.058  1.00  0.00     0.231 C 
BRANCH  13  14
HETATM   14  C   UNL     1      41.642 -17.219   1.586  1.00  0.00     0.178 C 
HETATM   15  O   UNL     1      42.017 -17.033   0.427  1.00  0.00    -0.290 OA
BRANCH  14  16
HETATM   16  C   UNL     1      42.471 -18.003   2.552  1.00  0.00     0.013 A 
HETATM   17  C   UNL     1      43.006 -19.249   2.207  1.00  0.00     0.026 A 
HETATM   18  C   UNL     1      43.801 -19.996   3.100  1.00  0.00    -0.016 A 
HETATM   19  C   UNL     1      44.070 -19.397   4.351  1.00  0.00     0.079 A 
HETATM   20  C   UNL     1      43.525 -18.153   4.759  1.00  0.00    -0.016 A 
HETATM   21  C   UNL     1      42.732 -17.467   3.815  1.00  0.00     0.026 A 
BRANCH  18  22
HETATM   22  C   UNL     1      44.375 -21.357   2.617  1.00  0.00    -0.021 C 
HETATM   23  C   UNL     1      44.482 -22.466   3.690  1.00  0.00     0.019 C 
HETATM   24  C   UNL     1      43.488 -21.967   1.496  1.00  0.00     0.019 C 
HETATM   25  C   UNL     1      45.788 -21.112   2.050  1.00  0.00     0.019 C 
ENDBRANCH  18  22
BRANCH  19  26
HETATM   26  O   UNL     1      44.976 -19.994   5.176  1.00  0.00    -0.360 OA
HETATM   27  H   UNL     1      45.424 -20.681   4.652  1.00  0.00     0.217 HD
ENDBRANCH  19  26
BRANCH  20  28
HETATM   28  C   UNL     1      43.825 -17.502   6.138  1.00  0.00    -0.021 C 
HETATM   29  C   UNL     1      43.514 -15.995   6.040  1.00  0.00     0.019 C 
HETATM   30  C   UNL     1      45.289 -17.686   6.608  1.00  0.00     0.019 C 
HETATM   31  C   UNL     1      42.956 -18.093   7.280  1.00  0.00     0.019 C 
ENDBRANCH  20  28
ENDBRANCH  14  16
ENDBRANCH  13  14
ENDBRANCH   1  13
BRANCH   6  32
HETATM   32  C   UNL     1      38.912 -12.092   0.371  1.00  0.00     0.175 C 
BRANCH  32  33
HETATM   33  C   UNL     1      39.866 -10.979  -0.124  1.00  0.00     0.256 C 
BRANCH  33  34
HETATM   34  N   UNL     1      40.579 -11.285  -1.427  1.00  0.00    -0.066 N 
HETATM   35  H   UNL     1      40.881 -10.408  -1.874  1.00  0.00     0.280 HD
HETATM   36  C   UNL     1      41.882 -12.070  -1.130  1.00  0.00     0.261 C 
HETATM   37  C   UNL     1      42.607 -12.405  -2.434  1.00  0.00     0.195 C 
HETATM   38  O   UNL     1      41.751 -13.150  -3.304  1.00  0.00    -0.388 OA
HETATM   39  C   UNL     1      40.588 -12.406  -3.671  1.00  0.00     0.195 C 
HETATM   40  C   UNL     1      39.743 -12.072  -2.435  1.00  0.00     0.261 C 
ENDBRANCH  33  34
ENDBRANCH  32  33
ENDBRANCH   6  32
TORSDOF 9
ENDMDL
MODEL 5
REMARK VINA RESULT:      -8.5      2.117      4.098
REMARK  9 active torsions:
REMARK  status: ('A' for Active; 'I' for Inactive)
REMARK    1  A    between atoms: C_2  and  C_3 
REMARK    2  A    between atoms: C_4  and  O_5 
REMARK    3  A    between atoms: C_6  and  C_7 
REMARK    4  A    between atoms: C_12  and  C_13 
REMARK    5  A    between atoms: C_13  and  C_14 
REMARK    6  A    between atoms: C_14  and  N_15 
REMARK    7  A    between atoms: N_20  and  C_21 
REMARK    8  A    between atoms: C_21  and  C_22 
REMARK    9  A    between atoms: C_22  and  N_23 
ROOT
HETATM    1  N   UNL     1      40.205 -15.261   2.086  1.00  0.00    -0.174 N 
HETATM    2  C   UNL     1      39.905 -14.440   1.013  1.00  0.00     0.681 A 
HETATM    3  N   UNL     1      39.877 -14.849  -0.258  1.00  0.00    -0.234 N 
HETATM    4  H   UNL     1      39.522 -14.317  -1.035  1.00  0.00     0.174 HD
HETATM    5  H   UNL     1      40.360 -15.724  -0.489  1.00  0.00     0.174 HD
HETATM    6  N   UNL     1      39.603 -13.122   1.396  1.00  0.00    -0.180 N 
HETATM    7  C   UNL     1      39.676 -13.151   2.830  1.00  0.00     0.079 A 
HETATM    8  C   UNL     1      40.079 -14.432   3.238  1.00  0.00     0.079 A 
HETATM    9  C   UNL     1      39.379 -12.170   3.752  1.00  0.00     0.032 A 
HETATM   10  C   UNL     1      39.550 -12.481   5.106  1.00  0.00     0.002 A 
HETATM   11  C   UNL     1      39.983 -13.757   5.509  1.00  0.00     0.002 A 
HETATM   12  C   UNL     1      40.241 -14.756   4.569  1.00  0.00     0.032 A 
ENDROOT
BRANCH   1  13
HETATM   13  C   UNL     1      40.358 -16.726   2.124  1.00  0.00     0.231 C 
BRANCH  13  14
HETATM   14  C   UNL     1      41.667 -17.259   1.594  1.00  0.00     0.178 C 
HETATM   15  O   UNL     1      41.976 -17.110   0.410  1.00  0.00    -0.290 OA
BRANCH  14  16
HETATM   16  C   UNL     1      42.550 -18.013   2.536  1.00  0.00     0.013 A 
HETATM   17  C   UNL     1      42.880 -17.497   3.794  1.00  0.00     0.026 A 
HETATM   18  C   UNL     1      43.699 -18.200   4.701  1.00  0.00    -0.016 A 
HETATM   19  C   UNL     1      44.134 -19.480   4.289  1.00  0.00     0.079 A 
HETATM   20  C   UNL     1      43.854 -20.032   3.013  1.00  0.00    -0.016 A 
HETATM   21  C   UNL     1      43.035 -19.267   2.157  1.00  0.00     0.026 A 
BRANCH  18  22
HETATM   22  C   UNL     1      43.987 -17.559   6.087  1.00  0.00    -0.021 C 
HETATM   23  C   UNL     1      45.410 -17.775   6.651  1.00  0.00     0.019 C 
HETATM   24  C   UNL     1      43.806 -16.016   6.033  1.00  0.00     0.019 C 
HETATM   25  C   UNL     1      42.983 -18.138   7.106  1.00  0.00     0.019 C 
ENDBRANCH  18  22
BRANCH  19  26
HETATM   26  O   UNL     1      44.776 -20.270   5.196  1.00  0.00    -0.360 OA
HETATM   27  H   UNL     1      44.125 -20.496   5.884  1.00  0.00     0.217 HD
ENDBRANCH  19  26
BRANCH  20  28
HETATM   28  C   UNL     1      44.339 -21.440   2.569  1.00  0.00    -0.021 C 
HETATM   29  C   UNL     1      43.394 -21.950   1.463  1.00  0.00     0.019 C 
HETATM   30  C   UNL     1      44.376 -22.477   3.719  1.00  0.00     0.019 C 
HETATM   31  C   UNL     1      45.779 -21.422   1.993  1.00  0.00     0.019 C 
ENDBRANCH  20  28
ENDBRANCH  14  16
ENDBRANCH  13  14
ENDBRANCH   1  13
BRANCH   6  32
HETATM   32  C   UNL     1      39.032 -12.050   0.567  1.00  0.00     0.175 C 
BRANCH  32  33
HETATM   33  C   UNL     1      40.004 -10.956   0.067  1.00  0.00     0.256 C 
BRANCH  33  34
HETATM   34  N   UNL     1      40.659 -11.248  -1.270  1.00  0.00    -0.066 N 
HETATM   35  H   UNL     1      40.944 -10.366  -1.719  1.00  0.00     0.280 HD
HETATM   36  C   UNL     1      41.971 -12.040  -1.040  1.00  0.00     0.261 C 
HETATM   37  C   UNL     1      42.636 -12.361  -2.379  1.00  0.00     0.195 C 
HETATM   38  O   UNL     1      41.740 -13.093  -3.220  1.00  0.00    -0.388 OA
HETATM   39  C   UNL     1      40.565 -12.341  -3.525  1.00  0.00     0.195 C 
HETATM   40  C   UNL     1      39.776 -12.019  -2.250  1.00  0.00     0.261 C 
ENDBRANCH  33  34
ENDBRANCH  32  33
ENDBRANCH   6  32
TORSDOF 9
ENDMDL
MODEL 6
REMARK VINA RESULT:      -8.5      2.431      4.362
REMARK  9 active torsions:
REMARK  status: ('A' for Active; 'I' for Inactive)
REMARK    1  A    between atoms: C_2  and  C_3 
REMARK    2  A    between atoms: C_4  and  O_5 
REMARK    3  A    between atoms: C_6  and  C_7 
REMARK    4  A    between atoms: C_12  and  C_13 
REMARK    5  A    between atoms: C_13  and  C_14 
REMARK    6  A    between atoms: C_14  and  N_15 
REMARK    7  A    between atoms: N_20  and  C_21 
REMARK    8  A    between atoms: C_21  and  C_22 
REMARK    9  A    between atoms: C_22  and  N_23 
ROOT
HETATM    1  N   UNL     1      40.068 -15.268   2.172  1.00  0.00    -0.174 N 
HETATM    2  C   UNL     1      39.670 -14.412   1.161  1.00  0.00     0.681 A 
HETATM    3  N   UNL     1      39.576 -14.763  -0.124  1.00  0.00    -0.234 N 
HETATM    4  H   UNL     1      39.153 -14.211  -0.851  1.00  0.00     0.174 HD
HETATM    5  H   UNL     1      40.078 -15.605  -0.428  1.00  0.00     0.174 HD
HETATM    6  N   UNL     1      39.342 -13.127   1.625  1.00  0.00    -0.180 N 
HETATM    7  C   UNL     1      39.506 -13.219   3.048  1.00  0.00     0.079 A 
HETATM    8  C   UNL     1      39.984 -14.499   3.369  1.00  0.00     0.079 A 
HETATM    9  C   UNL     1      39.230 -12.294   4.033  1.00  0.00     0.032 A 
HETATM   10  C   UNL     1      39.499 -12.659   5.357  1.00  0.00     0.002 A 
HETATM   11  C   UNL     1      40.005 -13.933   5.671  1.00  0.00     0.002 A 
HETATM   12  C   UNL     1      40.242 -14.877   4.670  1.00  0.00     0.032 A 
ENDROOT
BRANCH   1  13
HETATM   13  C   UNL     1      40.281 -16.725   2.130  1.00  0.00     0.231 C 
BRANCH  13  14
HETATM   14  C   UNL     1      41.644 -17.173   1.661  1.00  0.00     0.178 C 
HETATM   15  O   UNL     1      42.034 -16.920   0.519  1.00  0.00    -0.290 OA
BRANCH  14  16
HETATM   16  C   UNL     1      42.483 -17.973   2.606  1.00  0.00     0.013 A 
HETATM   17  C   UNL     1      43.006 -19.218   2.238  1.00  0.00     0.026 A 
HETATM   18  C   UNL     1      43.810 -19.979   3.110  1.00  0.00    -0.016 A 
HETATM   19  C   UNL     1      44.099 -19.396   4.365  1.00  0.00     0.079 A 
HETATM   20  C   UNL     1      43.566 -18.155   4.796  1.00  0.00    -0.016 A 
HETATM   21  C   UNL     1      42.764 -17.454   3.872  1.00  0.00     0.026 A 
BRANCH  18  22
HETATM   22  C   UNL     1      44.370 -21.337   2.603  1.00  0.00    -0.021 C 
HETATM   23  C   UNL     1      44.443 -22.473   3.650  1.00  0.00     0.019 C 
HETATM   24  C   UNL     1      43.490 -21.905   1.455  1.00  0.00     0.019 C 
HETATM   25  C   UNL     1      45.795 -21.101   2.063  1.00  0.00     0.019 C 
ENDBRANCH  18  22
BRANCH  19  26
HETATM   26  O   UNL     1      45.013 -20.008   5.170  1.00  0.00    -0.360 OA
HETATM   27  H   UNL     1      45.607 -19.312   5.502  1.00  0.00     0.217 HD
ENDBRANCH  19  26
BRANCH  20  28
HETATM   28  C   UNL     1      43.888 -17.523   6.178  1.00  0.00    -0.021 C 
HETATM   29  C   UNL     1      45.387 -17.736   6.470  1.00  0.00     0.019 C 
HETATM   30  C   UNL     1      43.057 -18.115   7.343  1.00  0.00     0.019 C 
HETATM   31  C   UNL     1      43.609 -15.997   6.218  1.00  0.00     0.019 C 
ENDBRANCH  20  28
ENDBRANCH  14  16
ENDBRANCH  13  14
ENDBRANCH   1  13
BRANCH   6  32
HETATM   32  C   UNL     1      38.678 -12.043   0.885  1.00  0.00     0.175 C 
BRANCH  32  33
HETATM   33  C   UNL     1      37.185 -12.244   0.533  1.00  0.00     0.256 C 
BRANCH  33  34
HETATM   34  N   UNL     1      36.219 -11.405   1.349  1.00  0.00    -0.066 N 
HETATM   35  H   UNL     1      35.963 -11.906   2.210  1.00  0.00     0.280 HD
HETATM   36  C   UNL     1      36.931 -10.110   1.817  1.00  0.00     0.261 C 
HETATM   37  C   UNL     1      35.968  -9.241   2.626  1.00  0.00     0.195 C 
HETATM   38  O   UNL     1      34.805  -8.931   1.853  1.00  0.00    -0.388 OA
HETATM   39  C   UNL     1      34.079 -10.106   1.492  1.00  0.00     0.195 C 
HETATM   40  C   UNL     1      34.934 -11.028   0.614  1.00  0.00     0.261 C 
ENDBRANCH  33  34
ENDBRANCH  32  33
ENDBRANCH   6  32
TORSDOF 9
ENDMDL
MODEL 7
REMARK VINA RESULT:      -8.5      4.356      8.729
REMARK  9 active torsions:
REMARK  status: ('A' for Active; 'I' for Inactive)
REMARK    1  A    between atoms: C_2  and  C_3 
REMARK    2  A    between atoms: C_4  and  O_5 
REMARK    3  A    between atoms: C_6  and  C_7 
REMARK    4  A    between atoms: C_12  and  C_13 
REMARK    5  A    between atoms: C_13  and  C_14 
REMARK    6  A    between atoms: C_14  and  N_15 
REMARK    7  A    between atoms: N_20  and  C_21 
REMARK    8  A    between atoms: C_21  and  C_22 
REMARK    9  A    between atoms: C_22  and  N_23 
ROOT
HETATM    1  N   UNL     1      41.866 -12.384   5.850  1.00  0.00    -0.174 N 
HETATM    2  C   UNL     1      41.226 -11.358   6.521  1.00  0.00     0.681 A 
HETATM    3  N   UNL     1      40.056 -10.834   6.149  1.00  0.00    -0.234 N 
HETATM    4  H   UNL     1      39.501 -10.195   6.694  1.00  0.00     0.174 HD
HETATM    5  H   UNL     1      39.745 -10.994   5.184  1.00  0.00     0.174 HD
HETATM    6  N   UNL     1      41.922 -10.931   7.665  1.00  0.00    -0.180 N 
HETATM    7  C   UNL     1      43.060 -11.805   7.726  1.00  0.00     0.079 A 
HETATM    8  C   UNL     1      43.043 -12.652   6.607  1.00  0.00     0.079 A 
HETATM    9  C   UNL     1      44.039 -11.917   8.690  1.00  0.00     0.032 A 
HETATM   10  C   UNL     1      45.046 -12.867   8.482  1.00  0.00     0.002 A 
HETATM   11  C   UNL     1      45.041 -13.694   7.344  1.00  0.00     0.002 A 
HETATM   12  C   UNL     1      44.022 -13.599   6.394  1.00  0.00     0.032 A 
ENDROOT
BRANCH   1  13
HETATM   13  C   UNL     1      41.366 -13.236   4.755  1.00  0.00     0.231 C 
BRANCH  13  14
HETATM   14  C   UNL     1      40.851 -14.593   5.167  1.00  0.00     0.178 C 
HETATM   15  O   UNL     1      39.752 -14.713   5.713  1.00  0.00    -0.290 OA
BRANCH  14  16
HETATM   16  C   UNL     1      41.734 -15.778   4.937  1.00  0.00     0.013 A 
HETATM   17  C   UNL     1      42.412 -16.395   5.994  1.00  0.00     0.026 A 
HETATM   18  C   UNL     1      43.238 -17.521   5.799  1.00  0.00    -0.016 A 
HETATM   19  C   UNL     1      43.309 -18.024   4.480  1.00  0.00     0.079 A 
HETATM   20  C   UNL     1      42.668 -17.414   3.371  1.00  0.00    -0.016 A 
HETATM   21  C   UNL     1      41.866 -16.287   3.643  1.00  0.00     0.026 A 
BRANCH  18  22
HETATM   22  C   UNL     1      43.927 -18.156   7.038  1.00  0.00    -0.021 C 
HETATM   23  C   UNL     1      43.642 -19.656   7.277  1.00  0.00     0.019 C 
HETATM   24  C   UNL     1      45.474 -18.054   6.925  1.00  0.00     0.019 C 
HETATM   25  C   UNL     1      43.472 -17.384   8.294  1.00  0.00     0.019 C 
ENDBRANCH  18  22
BRANCH  19  26
HETATM   26  O   UNL     1      43.947 -19.210   4.271  1.00  0.00    -0.360 OA
HETATM   27  H   UNL     1      44.706 -19.233   4.880  1.00  0.00     0.217 HD
ENDBRANCH  19  26
BRANCH  20  28
HETATM   28  C   UNL     1      42.754 -17.974   1.924  1.00  0.00    -0.021 C 
HETATM   29  C   UNL     1      44.052 -17.450   1.279  1.00  0.00     0.019 C 
HETATM   30  C   UNL     1      41.551 -17.579   1.032  1.00  0.00     0.019 C 
HETATM   31  C   UNL     1      42.795 -19.524   1.884  1.00  0.00     0.019 C 
ENDBRANCH  20  28
ENDBRANCH  14  16
ENDBRANCH  13  14
ENDBRANCH   1  13
BRANCH   6  32
HETATM   32  C   UNL     1      41.446 -10.033   8.727  1.00  0.00     0.175 C 
BRANCH  32  33
HETATM   33  C   UNL     1      40.772 -10.692   9.954  1.00  0.00     0.256 C 
BRANCH  33  34
HETATM   34  N   UNL     1      41.282 -10.206  11.298  1.00  0.00    -0.066 N 
HETATM   35  H   UNL     1      40.495 -10.111  11.955  1.00  0.00     0.280 HD
HETATM   36  C   UNL     1      42.212 -11.281  11.916  1.00  0.00     0.261 C 
HETATM   37  C   UNL     1      42.751 -10.801  13.264  1.00  0.00     0.195 C 
HETATM   38  O   UNL     1      43.441  -9.557  13.112  1.00  0.00    -0.388 OA
HETATM   39  C   UNL     1      42.576  -8.526  12.636  1.00  0.00     0.195 C 
HETATM   40  C   UNL     1      42.026  -8.873  11.247  1.00  0.00     0.261 C 
ENDBRANCH  33  34
ENDBRANCH  32  33
ENDBRANCH   6  32
TORSDOF 9
ENDMDL
MODEL 8
REMARK VINA RESULT:      -8.4      2.419      5.012
REMARK  9 active torsions:
REMARK  status: ('A' for Active; 'I' for Inactive)
REMARK    1  A    between atoms: C_2  and  C_3 
REMARK    2  A    between atoms: C_4  and  O_5 
REMARK    3  A    between atoms: C_6  and  C_7 
REMARK    4  A    between atoms: C_12  and  C_13 
REMARK    5  A    between atoms: C_13  and  C_14 
REMARK    6  A    between atoms: C_14  and  N_15 
REMARK    7  A    between atoms: N_20  and  C_21 
REMARK    8  A    between atoms: C_21  and  C_22 
REMARK    9  A    between atoms: C_22  and  N_23 
ROOT
HETATM    1  N   UNL     1      40.003 -15.227   2.131  1.00  0.00    -0.174 N 
HETATM    2  C   UNL     1      39.603 -14.382   1.111  1.00  0.00     0.681 A 
HETATM    3  N   UNL     1      39.495 -14.750  -0.168  1.00  0.00    -0.234 N 
HETATM    4  H   UNL     1      39.069 -14.205  -0.899  1.00  0.00     0.174 HD
HETATM    5  H   UNL     1      39.986 -15.601  -0.463  1.00  0.00     0.174 HD
HETATM    6  N   UNL     1      39.291 -13.087   1.560  1.00  0.00    -0.180 N 
HETATM    7  C   UNL     1      39.467 -13.161   2.983  1.00  0.00     0.079 A 
HETATM    8  C   UNL     1      39.936 -14.441   3.317  1.00  0.00     0.079 A 
HETATM    9  C   UNL     1      39.209 -12.219   3.957  1.00  0.00     0.032 A 
HETATM   10  C   UNL     1      39.486 -12.569   5.284  1.00  0.00     0.002 A 
HETATM   11  C   UNL     1      39.984 -13.842   5.612  1.00  0.00     0.002 A 
HETATM   12  C   UNL     1      40.203 -14.802   4.621  1.00  0.00     0.032 A 
ENDROOT
BRANCH   1  13
HETATM   13  C   UNL     1      40.202 -16.687   2.108  1.00  0.00     0.231 C 
BRANCH  13  14
HETATM   14  C   UNL     1      41.541 -17.155   1.591  1.00  0.00     0.178 C 
HETATM   15  O   UNL     1      41.858 -16.984   0.413  1.00  0.00    -0.290 OA
BRANCH  14  16
HETATM   16  C   UNL     1      42.445 -17.875   2.540  1.00  0.00     0.013 A 
HETATM   17  C   UNL     1      42.750 -17.344   3.798  1.00  0.00     0.026 A 
HETATM   18  C   UNL     1      43.589 -18.014   4.711  1.00  0.00    -0.016 A 
HETATM   19  C   UNL     1      44.072 -19.278   4.305  1.00  0.00     0.079 A 
HETATM   20  C   UNL     1      43.820 -19.843   3.029  1.00  0.00    -0.016 A 
HETATM   21  C   UNL     1      42.978 -19.110   2.166  1.00  0.00     0.026 A 
BRANCH  18  22
HETATM   22  C   UNL     1      43.846 -17.360   6.097  1.00  0.00    -0.021 C 
HETATM   23  C   UNL     1      45.239 -17.613   6.718  1.00  0.00     0.019 C 
HETATM   24  C   UNL     1      43.719 -15.813   6.012  1.00  0.00     0.019 C 
HETATM   25  C   UNL     1      42.786 -17.888   7.085  1.00  0.00     0.019 C 
ENDBRANCH  18  22
BRANCH  19  26
HETATM   26  O   UNL     1      44.738 -20.043   5.217  1.00  0.00    -0.360 OA
HETATM   27  H   UNL     1      45.340 -19.448   5.697  1.00  0.00     0.217 HD
ENDBRANCH  19  26
BRANCH  20  28
HETATM   28  C   UNL     1      44.358 -21.233   2.590  1.00  0.00    -0.021 C 
HETATM   29  C   UNL     1      45.815 -21.062   2.118  1.00  0.00     0.019 C 
HETATM   30  C   UNL     1      43.533 -21.891   1.456  1.00  0.00     0.019 C 
HETATM   31  C   UNL     1      44.351 -22.268   3.746  1.00  0.00     0.019 C 
ENDBRANCH  20  28
ENDBRANCH  14  16
ENDBRANCH  13  14
ENDBRANCH   1  13
BRANCH   6  32
HETATM   32  C   UNL     1      38.630 -12.008   0.811  1.00  0.00     0.175 C 
BRANCH  32  33
HETATM   33  C   UNL     1      37.124 -12.186   0.505  1.00  0.00     0.256 C 
BRANCH  33  34
HETATM   34  N   UNL     1      36.196 -11.346   1.363  1.00  0.00    -0.066 N 
HETATM   35  H   UNL     1      35.962 -11.857   2.226  1.00  0.00     0.280 HD
HETATM   36  C   UNL     1      36.940 -10.068   1.827  1.00  0.00     0.261 C 
HETATM   37  C   UNL     1      36.014  -9.198   2.680  1.00  0.00     0.195 C 
HETATM   38  O   UNL     1      34.832  -8.862   1.949  1.00  0.00    -0.388 OA
HETATM   39  C   UNL     1      34.079 -10.022   1.595  1.00  0.00     0.195 C 
HETATM   40  C   UNL     1      34.893 -10.942   0.676  1.00  0.00     0.261 C 
ENDBRANCH  33  34
ENDBRANCH  32  33
ENDBRANCH   6  32
TORSDOF 9
ENDMDL
MODEL 9
REMARK VINA RESULT:      -8.3      3.699      7.224
REMARK  9 active torsions:
REMARK  status: ('A' for Active; 'I' for Inactive)
REMARK    1  A    between atoms: C_2  and  C_3 
REMARK    2  A    between atoms: C_4  and  O_5 
REMARK    3  A    between atoms: C_6  and  C_7 
REMARK    4  A    between atoms: C_12  and  C_13 
REMARK    5  A    between atoms: C_13  and  C_14 
REMARK    6  A    between atoms: C_14  and  N_15 
REMARK    7  A    between atoms: N_20  and  C_21 
REMARK    8  A    between atoms: C_21  and  C_22 
REMARK    9  A    between atoms: C_22  and  N_23 
ROOT
HETATM    1  N   UNL     1      40.860 -12.148   5.499  1.00  0.00    -0.174 N 
HETATM    2  C   UNL     1      41.448 -11.590   6.620  1.00  0.00     0.681 A 
HETATM    3  N   UNL     1      42.479 -12.132   7.273  1.00  0.00    -0.234 N 
HETATM    4  H   UNL     1      43.016 -11.680   7.994  1.00  0.00     0.174 HD
HETATM    5  H   UNL     1      42.671 -13.128   7.121  1.00  0.00     0.174 HD
HETATM    6  N   UNL     1      40.867 -10.367   6.995  1.00  0.00    -0.180 N 
HETATM    7  C   UNL     1      39.870 -10.132   5.988  1.00  0.00     0.079 A 
HETATM    8  C   UNL     1      39.842 -11.229   5.112  1.00  0.00     0.079 A 
HETATM    9  C   UNL     1      39.055  -9.038   5.786  1.00  0.00     0.032 A 
HETATM   10  C   UNL     1      38.160  -9.088   4.711  1.00  0.00     0.002 A 
HETATM   11  C   UNL     1      38.115 -10.202   3.854  1.00  0.00     0.002 A 
HETATM   12  C   UNL     1      38.974 -11.286   4.043  1.00  0.00     0.032 A 
ENDROOT
BRANCH   1  13
HETATM   13  C   UNL     1      41.310 -13.288   4.680  1.00  0.00     0.231 C 
BRANCH  13  14
HETATM   14  C   UNL     1      40.783 -14.640   5.099  1.00  0.00     0.178 C 
HETATM   15  O   UNL     1      39.683 -14.748   5.643  1.00  0.00    -0.290 OA
BRANCH  14  16
HETATM   16  C   UNL     1      41.659 -15.832   4.876  1.00  0.00     0.013 A 
HETATM   17  C   UNL     1      41.848 -16.367   3.597  1.00  0.00     0.026 A 
HETATM   18  C   UNL     1      42.680 -17.481   3.366  1.00  0.00    -0.016 A 
HETATM   19  C   UNL     1      43.352 -18.004   4.493  1.00  0.00     0.079 A 
HETATM   20  C   UNL     1      43.167 -17.519   5.813  1.00  0.00    -0.016 A 
HETATM   21  C   UNL     1      42.314 -16.407   5.967  1.00  0.00     0.026 A 
BRANCH  18  22
HETATM   22  C   UNL     1      42.851 -17.985   1.906  1.00  0.00    -0.021 C 
HETATM   23  C   UNL     1      42.927 -19.519   1.725  1.00  0.00     0.019 C 
HETATM   24  C   UNL     1      41.657 -17.535   1.020  1.00  0.00     0.019 C 
HETATM   25  C   UNL     1      44.148 -17.378   1.334  1.00  0.00     0.019 C 
ENDBRANCH  18  22
BRANCH  19  26
HETATM   26  O   UNL     1      44.301 -18.963   4.296  1.00  0.00    -0.360 OA
HETATM   27  H   UNL     1      43.828 -19.794   4.115  1.00  0.00     0.217 HD
ENDBRANCH  19  26
BRANCH  20  28
HETATM   28  C   UNL     1      43.910 -18.103   7.047  1.00  0.00    -0.021 C 
HETATM   29  C   UNL     1      45.423 -17.886   6.848  1.00  0.00     0.019 C 
HETATM   30  C   UNL     1      43.643 -19.611   7.280  1.00  0.00     0.019 C 
HETATM   31  C   UNL     1      43.501 -17.410   8.374  1.00  0.00     0.019 C 
ENDBRANCH  20  28
ENDBRANCH  14  16
ENDBRANCH  13  14
ENDBRANCH   1  13
BRANCH   6  32
HETATM   32  C   UNL     1      41.365  -9.396   7.981  1.00  0.00     0.175 C 
BRANCH  32  33
HETATM   33  C   UNL     1      40.674  -9.384   9.365  1.00  0.00     0.256 C 
BRANCH  33  34
HETATM   34  N   UNL     1      41.165 -10.447  10.330  1.00  0.00    -0.066 N 
HETATM   35  H   UNL     1      40.912 -11.381   9.979  1.00  0.00     0.280 HD
HETATM   36  C   UNL     1      42.715 -10.427  10.375  1.00  0.00     0.261 C 
HETATM   37  C   UNL     1      43.228 -11.480  11.358  1.00  0.00     0.195 C 
HETATM   38  O   UNL     1      42.679 -11.259  12.659  1.00  0.00    -0.388 OA
HETATM   39  C   UNL     1      41.255 -11.370  12.660  1.00  0.00     0.195 C 
HETATM   40  C   UNL     1      40.624 -10.307  11.752  1.00  0.00     0.261 C 
ENDBRANCH  33  34
ENDBRANCH  32  33
ENDBRANCH   6  32
TORSDOF 9
ENDMDL
MODEL 10
REMARK VINA RESULT:      -8.3      2.287      5.232
REMARK  9 active torsions:
REMARK  status: ('A' for Active; 'I' for Inactive)
REMARK    1  A    between atoms: C_2  and  C_3 
REMARK    2  A    between atoms: C_4  and  O_5 
REMARK    3  A    between atoms: C_6  and  C_7 
REMARK    4  A    between atoms: C_12  and  C_13 
REMARK    5  A    between atoms: C_13  and  C_14 
REMARK    6  A    between atoms: C_14  and  N_15 
REMARK    7  A    between atoms: N_20  and  C_21 
REMARK    8  A    between atoms: C_21  and  C_22 
REMARK    9  A    between atoms: C_22  and  N_23 
ROOT
HETATM    1  N   UNL     1      41.650 -15.151   0.192  1.00  0.00    -0.174 N 
HETATM    2  C   UNL     1      41.724 -13.957   0.888  1.00  0.00     0.681 A 
HETATM    3  N   UNL     1      42.210 -13.842   2.127  1.00  0.00    -0.234 N 
HETATM    4  H   UNL     1      42.412 -12.975   2.597  1.00  0.00     0.174 HD
HETATM    5  H   UNL     1      42.276 -14.693   2.696  1.00  0.00     0.174 HD
HETATM    6  N   UNL     1      41.258 -12.858   0.148  1.00  0.00    -0.180 N 
HETATM    7  C   UNL     1      40.915 -13.419  -1.128  1.00  0.00     0.079 A 
HETATM    8  C   UNL     1      41.114 -14.808  -1.083  1.00  0.00     0.079 A 
HETATM    9  C   UNL     1      40.497 -12.797  -2.286  1.00  0.00     0.032 A 
HETATM   10  C   UNL     1      40.224 -13.607  -3.394  1.00  0.00     0.002 A 
HETATM   11  C   UNL     1      40.397 -15.002  -3.335  1.00  0.00     0.002 A 
HETATM   12  C   UNL     1      40.861 -15.617  -2.170  1.00  0.00     0.032 A 
ENDROOT
BRANCH   1  13
HETATM   13  C   UNL     1      42.227 -16.464   0.529  1.00  0.00     0.231 C 
BRANCH  13  14
HETATM   14  C   UNL     1      41.553 -17.203   1.659  1.00  0.00     0.178 C 
HETATM   15  O   UNL     1      40.333 -17.134   1.820  1.00  0.00    -0.290 OA
BRANCH  14  16
HETATM   16  C   UNL     1      42.416 -17.978   2.604  1.00  0.00     0.013 A 
HETATM   17  C   UNL     1      42.954 -19.219   2.245  1.00  0.00     0.026 A 
HETATM   18  C   UNL     1      43.780 -19.957   3.116  1.00  0.00    -0.016 A 
HETATM   19  C   UNL     1      44.076 -19.354   4.359  1.00  0.00     0.079 A 
HETATM   20  C   UNL     1      43.528 -18.116   4.782  1.00  0.00    -0.016 A 
HETATM   21  C   UNL     1      42.704 -17.439   3.859  1.00  0.00     0.026 A 
BRANCH  18  22
HETATM   22  C   UNL     1      44.355 -21.312   2.618  1.00  0.00    -0.021 C 
HETATM   23  C   UNL     1      44.460 -22.433   3.678  1.00  0.00     0.019 C 
HETATM   24  C   UNL     1      43.470 -21.909   1.489  1.00  0.00     0.019 C 
HETATM   25  C   UNL     1      45.769 -21.060   2.056  1.00  0.00     0.019 C 
ENDBRANCH  18  22
BRANCH  19  26
HETATM   26  O   UNL     1      45.009 -19.942   5.160  1.00  0.00    -0.360 OA
HETATM   27  H   UNL     1      44.993 -19.465   6.009  1.00  0.00     0.217 HD
ENDBRANCH  19  26
BRANCH  20  28
HETATM   28  C   UNL     1      43.858 -17.462   6.152  1.00  0.00    -0.021 C 
HETATM   29  C   UNL     1      43.609 -15.945   6.037  1.00  0.00     0.019 C 
HETATM   30  C   UNL     1      45.315 -17.700   6.622  1.00  0.00     0.019 C 
HETATM   31  C   UNL     1      42.969 -18.003   7.303  1.00  0.00     0.019 C 
ENDBRANCH  20  28
ENDBRANCH  14  16
ENDBRANCH  13  14
ENDBRANCH   1  13
BRANCH   6  32
HETATM   32  C   UNL     1      41.390 -11.430   0.473  1.00  0.00     0.175 C 
BRANCH  32  33
HETATM   33  C   UNL     1      40.160 -10.738   1.109  1.00  0.00     0.256 C 
BRANCH  33  34
HETATM   34  N   UNL     1      40.059 -10.878   2.616  1.00  0.00    -0.066 N 
HETATM   35  H   UNL     1      40.987 -11.087   3.009  1.00  0.00     0.280 HD
HETATM   36  C   UNL     1      39.644  -9.518   3.233  1.00  0.00     0.261 C 
HETATM   37  C   UNL     1      39.519  -9.644   4.752  1.00  0.00     0.195 C 
HETATM   38  O   UNL     1      38.579 -10.667   5.093  1.00  0.00    -0.388 OA
HETATM   39  C   UNL     1      38.992 -11.948   4.617  1.00  0.00     0.195 C 
HETATM   40  C   UNL     1      39.086 -11.957   3.086  1.00  0.00     0.261 C 
ENDBRANCH  33  34
ENDBRANCH  32  33
ENDBRANCH   6  32
TORSDOF 9
ENDMDL
