MODEL 1
REMARK VINA RESULT:      -8.3      0.000      0.000
REMARK  5 active torsions:
REMARK  status: ('A' for Active; 'I' for Inactive)
REMARK    1  A    between atoms: C_2  and  C_3 
REMARK    2  A    between atoms: C_6  and  C_7 
REMARK    3  A    between atoms: C_7  and  N_8 
REMARK    4  A    between atoms: C_7  and  C_21 
REMARK       I    between atoms: N_8  and  C_9 
REMARK       I    between atoms: C_9  and  N_10 
REMARK    5  A    between atoms: N_10  and  N_11 
ROOT
HETATM    1  N   UNL     1      42.646 -14.901   3.025  1.00  0.00    -0.333 N 
HETATM    2  C   UNL     1      42.049 -14.253   1.990  1.00  0.00     0.335 C 
HETATM    3  N   UNL     1      40.923 -14.836   1.496  1.00  0.00    -0.244 N 
HETATM    4  O   UNL     1      42.532 -13.201   1.588  1.00  0.00    -0.246 OA
HETATM    5  H   UNL     1      43.494 -14.440   3.330  1.00  0.00     0.165 HD
HETATM    6  H   UNL     1      40.900 -15.844   1.437  1.00  0.00     0.192 HD
ENDROOT
BRANCH   1   7
HETATM    7  C   UNL     1      42.140 -16.016   3.820  1.00  0.00     0.122 C 
BRANCH   7   8
HETATM    8  C   UNL     1      42.867 -17.320   3.526  1.00  0.00    -0.035 A 
HETATM    9  C   UNL     1      43.595 -18.016   4.502  1.00  0.00     0.010 A 
HETATM   10  C   UNL     1      44.199 -19.241   4.206  1.00  0.00     0.007 A 
HETATM   11  C   UNL     1      44.091 -19.802   2.928  1.00  0.00    -0.059 A 
HETATM   12  C   UNL     1      43.370 -19.111   1.949  1.00  0.00     0.007 A 
HETATM   13  C   UNL     1      42.768 -17.884   2.243  1.00  0.00     0.010 A 
BRANCH  11  14
HETATM   14  C   UNL     1      44.698 -21.147   2.626  1.00  0.00     0.034 C 
HETATM   15  C   UNL     1      43.938 -21.875   1.526  1.00  0.00     0.010 C 
ENDBRANCH  11  14
ENDBRANCH   7   8
BRANCH   7  16
HETATM   16  C   UNL     1      42.109 -15.683   5.338  1.00  0.00     0.005 C 
HETATM   17  C   UNL     1      42.961 -14.472   5.732  1.00  0.00     0.012 C 
HETATM   18  C   UNL     1      40.668 -15.484   5.823  1.00  0.00     0.012 C 
ENDBRANCH   7  16
ENDBRANCH   1   7
BRANCH   3  19
HETATM   19  N   UNL     1      40.255 -14.210   0.500  1.00  0.00    -0.244 N 
HETATM   20  C   UNL     1      40.400 -14.529  -0.820  1.00  0.00     0.086 A 
HETATM   21  C   UNL     1      39.666 -13.534  -1.467  1.00  0.00     0.086 A 
HETATM   22  C   UNL     1      41.075 -15.548  -1.502  1.00  0.00     0.034 A 
HETATM   23  C   UNL     1      39.584 -13.550  -2.867  1.00  0.00     0.034 A 
HETATM   24  N   UNL     1      39.126 -12.641  -0.565  1.00  0.00    -0.240 NA
HETATM   25  C   UNL     1      40.248 -14.563  -3.572  1.00  0.00     0.002 A 
HETATM   26  C   UNL     1      40.981 -15.542  -2.898  1.00  0.00     0.002 A 
HETATM   27  C   UNL     1      39.504 -13.080   0.618  1.00  0.00     0.234 A 
ENDBRANCH   3  19
TORSDOF 5
ENDMDL
MODEL 2
REMARK VINA RESULT:      -8.1      2.343      6.904
REMARK  5 active torsions:
REMARK  status: ('A' for Active; 'I' for Inactive)
REMARK    1  A    between atoms: C_2  and  C_3 
REMARK    2  A    between atoms: C_6  and  C_7 
REMARK    3  A    between atoms: C_7  and  N_8 
REMARK    4  A    between atoms: C_7  and  C_21 
REMARK       I    between atoms: N_8  and  C_9 
REMARK       I    between atoms: C_9  and  N_10 
REMARK    5  A    between atoms: N_10  and  N_11 
ROOT
HETATM    1  N   UNL     1      40.650 -16.071   3.934  1.00  0.00    -0.333 N 
HETATM    2  C   UNL     1      41.438 -17.124   4.274  1.00  0.00     0.335 C 
HETATM    3  N   UNL     1      42.718 -17.080   3.815  1.00  0.00    -0.244 N 
HETATM    4  O   UNL     1      40.972 -18.016   4.974  1.00  0.00    -0.246 OA
HETATM    5  H   UNL     1      39.703 -16.172   4.275  1.00  0.00     0.165 HD
HETATM    6  H   UNL     1      42.875 -16.716   2.886  1.00  0.00     0.192 HD
ENDROOT
BRANCH   1   7
HETATM    7  C   UNL     1      41.034 -14.801   3.325  1.00  0.00     0.122 C 
BRANCH   7   8
HETATM    8  C   UNL     1      40.718 -14.746   1.838  1.00  0.00    -0.035 A 
HETATM    9  C   UNL     1      39.605 -14.063   1.326  1.00  0.00     0.010 A 
HETATM   10  C   UNL     1      39.383 -13.988  -0.053  1.00  0.00     0.007 A 
HETATM   11  C   UNL     1      40.268 -14.592  -0.953  1.00  0.00    -0.059 A 
HETATM   12  C   UNL     1      41.378 -15.278  -0.450  1.00  0.00     0.007 A 
HETATM   13  C   UNL     1      41.599 -15.357   0.928  1.00  0.00     0.010 A 
BRANCH  11  14
HETATM   14  C   UNL     1      40.056 -14.465  -2.440  1.00  0.00     0.034 C 
HETATM   15  C   UNL     1      40.343 -15.772  -3.165  1.00  0.00     0.010 C 
ENDBRANCH  11  14
ENDBRANCH   7   8
BRANCH   7  16
HETATM   16  C   UNL     1      40.454 -13.584   4.099  1.00  0.00     0.005 C 
HETATM   17  C   UNL     1      39.963 -13.917   5.512  1.00  0.00     0.012 C 
HETATM   18  C   UNL     1      41.473 -12.440   4.160  1.00  0.00     0.012 C 
ENDBRANCH   7  16
ENDBRANCH   1   7
BRANCH   3  19
HETATM   19  N   UNL     1      43.566 -18.075   4.165  1.00  0.00    -0.244 N 
HETATM   20  C   UNL     1      43.704 -19.232   3.454  1.00  0.00     0.086 A 
HETATM   21  C   UNL     1      44.535 -20.004   4.266  1.00  0.00     0.086 A 
HETATM   22  C   UNL     1      43.206 -19.678   2.224  1.00  0.00     0.034 A 
HETATM   23  C   UNL     1      44.907 -21.286   3.837  1.00  0.00     0.034 A 
HETATM   24  N   UNL     1      44.859 -19.339   5.430  1.00  0.00    -0.240 NA
HETATM   25  C   UNL     1      44.424 -21.754   2.607  1.00  0.00     0.002 A 
HETATM   26  C   UNL     1      43.587 -20.962   1.818  1.00  0.00     0.002 A 
HETATM   27  C   UNL     1      44.252 -18.173   5.337  1.00  0.00     0.234 A 
ENDBRANCH   3  19
TORSDOF 5
ENDMDL
MODEL 3
REMARK VINA RESULT:      -7.7      1.070      2.368
REMARK  5 active torsions:
REMARK  status: ('A' for Active; 'I' for Inactive)
REMARK    1  A    between atoms: C_2  and  C_3 
REMARK    2  A    between atoms: C_6  and  C_7 
REMARK    3  A    between atoms: C_7  and  N_8 
REMARK    4  A    between atoms: C_7  and  C_21 
REMARK       I    between atoms: N_8  and  C_9 
REMARK       I    between atoms: C_9  and  N_10 
REMARK    5  A    between atoms: N_10  and  N_11 
ROOT
HETATM    1  N   UNL     1      42.540 -14.764   2.843  1.00  0.00    -0.333 N 
HETATM    2  C   UNL     1      41.981 -14.166   1.758  1.00  0.00     0.335 C 
HETATM    3  N   UNL     1      40.882 -14.780   1.242  1.00  0.00    -0.244 N 
HETATM    4  O   UNL     1      42.471 -13.126   1.333  1.00  0.00    -0.246 OA
HETATM    5  H   UNL     1      43.370 -14.283   3.163  1.00  0.00     0.165 HD
HETATM    6  H   UNL     1      40.869 -15.789   1.224  1.00  0.00     0.192 HD
ENDROOT
BRANCH   1   7
HETATM    7  C   UNL     1      42.010 -15.851   3.661  1.00  0.00     0.122 C 
BRANCH   7   8
HETATM    8  C   UNL     1      42.670 -17.188   3.354  1.00  0.00    -0.035 A 
HETATM    9  C   UNL     1      42.894 -17.638   2.045  1.00  0.00     0.010 A 
HETATM   10  C   UNL     1      43.557 -18.845   1.807  1.00  0.00     0.007 A 
HETATM   11  C   UNL     1      44.012 -19.633   2.871  1.00  0.00    -0.059 A 
HETATM   12  C   UNL     1      43.789 -19.192   4.179  1.00  0.00     0.007 A 
HETATM   13  C   UNL     1      43.123 -17.986   4.418  1.00  0.00     0.010 A 
BRANCH  11  14
HETATM   14  C   UNL     1      44.772 -20.908   2.612  1.00  0.00     0.034 C 
HETATM   15  C   UNL     1      44.005 -21.847   1.693  1.00  0.00     0.010 C 
ENDBRANCH  11  14
ENDBRANCH   7   8
BRANCH   7  16
HETATM   16  C   UNL     1      42.042 -15.509   5.177  1.00  0.00     0.005 C 
HETATM   17  C   UNL     1      43.050 -14.417   5.552  1.00  0.00     0.012 C 
HETATM   18  C   UNL     1      40.646 -15.119   5.677  1.00  0.00     0.012 C 
ENDBRANCH   7  16
ENDBRANCH   1   7
BRANCH   3  19
HETATM   19  N   UNL     1      40.250 -14.202   0.195  1.00  0.00    -0.244 N 
HETATM   20  C   UNL     1      39.141 -13.416   0.325  1.00  0.00     0.086 A 
HETATM   21  C   UNL     1      38.754 -13.195  -0.997  1.00  0.00     0.086 A 
HETATM   22  C   UNL     1      38.449 -12.891   1.423  1.00  0.00     0.034 A 
HETATM   23  C   UNL     1      37.628 -12.400  -1.254  1.00  0.00     0.034 A 
HETATM   24  N   UNL     1      39.589 -13.846  -1.881  1.00  0.00    -0.240 NA
HETATM   25  C   UNL     1      36.921 -11.859  -0.171  1.00  0.00     0.002 A 
HETATM   26  C   UNL     1      37.326 -12.105   1.143  1.00  0.00     0.002 A 
HETATM   27  C   UNL     1      40.484 -14.449  -1.124  1.00  0.00     0.234 A 
ENDBRANCH   3  19
TORSDOF 5
ENDMDL
MODEL 4
REMARK VINA RESULT:      -7.6      2.167      3.540
REMARK  5 active torsions:
REMARK  status: ('A' for Active; 'I' for Inactive)
REMARK    1  A    between atoms: C_2  and  C_3 
REMARK    2  A    between atoms: C_6  and  C_7 
REMARK    3  A    between atoms: C_7  and  N_8 
REMARK    4  A    between atoms: C_7  and  C_21 
REMARK       I    between atoms: N_8  and  C_9 
REMARK       I    between atoms: C_9  and  N_10 
REMARK    5  A    between atoms: N_10  and  N_11 
ROOT
HETATM    1  N   UNL     1      43.481 -15.299   3.971  1.00  0.00    -0.333 N 
HETATM    2  C   UNL     1      42.758 -14.358   3.308  1.00  0.00     0.335 C 
HETATM    3  N   UNL     1      41.445 -14.652   3.106  1.00  0.00    -0.244 N 
HETATM    4  O   UNL     1      43.309 -13.319   2.961  1.00  0.00    -0.246 OA
HETATM    5  H   UNL     1      44.455 -15.041   4.064  1.00  0.00     0.165 HD
HETATM    6  H   UNL     1      41.204 -15.607   2.885  1.00  0.00     0.192 HD
ENDROOT
BRANCH   1   7
HETATM    7  C   UNL     1      43.008 -16.484   4.680  1.00  0.00     0.122 C 
BRANCH   7   8
HETATM    8  C   UNL     1      43.245 -17.767   3.898  1.00  0.00    -0.035 A 
HETATM    9  C   UNL     1      44.016 -18.826   4.398  1.00  0.00     0.010 A 
HETATM   10  C   UNL     1      44.159 -20.012   3.672  1.00  0.00     0.007 A 
HETATM   11  C   UNL     1      43.537 -20.169   2.428  1.00  0.00    -0.059 A 
HETATM   12  C   UNL     1      42.770 -19.115   1.921  1.00  0.00     0.007 A 
HETATM   13  C   UNL     1      42.628 -17.928   2.645  1.00  0.00     0.010 A 
BRANCH  11  14
HETATM   14  C   UNL     1      43.650 -21.467   1.671  1.00  0.00     0.034 C 
HETATM   15  C   UNL     1      44.917 -22.225   2.036  1.00  0.00     0.010 C 
ENDBRANCH  11  14
ENDBRANCH   7   8
BRANCH   7  16
HETATM   16  C   UNL     1      43.569 -16.560   6.127  1.00  0.00     0.005 C 
HETATM   17  C   UNL     1      44.225 -15.263   6.615  1.00  0.00     0.012 C 
HETATM   18  C   UNL     1      42.478 -16.992   7.114  1.00  0.00     0.012 C 
ENDBRANCH   7  16
ENDBRANCH   1   7
BRANCH   3  19
HETATM   19  N   UNL     1      40.662 -13.731   2.499  1.00  0.00    -0.244 N 
HETATM   20  C   UNL     1      39.931 -12.800   3.180  1.00  0.00     0.086 A 
HETATM   21  C   UNL     1      39.172 -12.200   2.174  1.00  0.00     0.086 A 
HETATM   22  C   UNL     1      39.849 -12.427   4.526  1.00  0.00     0.034 A 
HETATM   23  C   UNL     1      38.289 -11.164   2.514  1.00  0.00     0.034 A 
HETATM   24  N   UNL     1      39.424 -12.772   0.945  1.00  0.00    -0.240 NA
HETATM   25  C   UNL     1      38.192 -10.770   3.855  1.00  0.00     0.002 A 
HETATM   26  C   UNL     1      38.959 -11.394   4.842  1.00  0.00     0.002 A 
HETATM   27  C   UNL     1      40.331 -13.698   1.179  1.00  0.00     0.234 A 
ENDBRANCH   3  19
TORSDOF 5
ENDMDL
MODEL 5
REMARK VINA RESULT:      -7.4      2.578      7.234
REMARK  5 active torsions:
REMARK  status: ('A' for Active; 'I' for Inactive)
REMARK    1  A    between atoms: C_2  and  C_3 
REMARK    2  A    between atoms: C_6  and  C_7 
REMARK    3  A    between atoms: C_7  and  N_8 
REMARK    4  A    between atoms: C_7  and  C_21 
REMARK       I    between atoms: N_8  and  C_9 
REMARK       I    between atoms: C_9  and  N_10 
REMARK    5  A    between atoms: N_10  and  N_11 
ROOT
HETATM    1  N   UNL     1      41.521 -16.048   4.269  1.00  0.00    -0.333 N 
HETATM    2  C   UNL     1      42.089 -17.254   4.531  1.00  0.00     0.335 C 
HETATM    3  N   UNL     1      43.350 -17.433   4.051  1.00  0.00    -0.244 N 
HETATM    4  O   UNL     1      41.462 -18.079   5.185  1.00  0.00    -0.246 OA
HETATM    5  H   UNL     1      40.575 -15.983   4.622  1.00  0.00     0.165 HD
HETATM    6  H   UNL     1      43.569 -17.049   3.143  1.00  0.00     0.192 HD
ENDROOT
BRANCH   1   7
HETATM    7  C   UNL     1      42.143 -14.842   3.730  1.00  0.00     0.122 C 
BRANCH   7   8
HETATM    8  C   UNL     1      41.447 -14.338   2.474  1.00  0.00    -0.035 A 
HETATM    9  C   UNL     1      41.989 -13.330   1.663  1.00  0.00     0.010 A 
HETATM   10  C   UNL     1      41.346 -12.937   0.485  1.00  0.00     0.007 A 
HETATM   11  C   UNL     1      40.148 -13.541   0.088  1.00  0.00    -0.059 A 
HETATM   12  C   UNL     1      39.601 -14.545   0.894  1.00  0.00     0.007 A 
HETATM   13  C   UNL     1      40.240 -14.936   2.073  1.00  0.00     0.010 A 
BRANCH  11  14
HETATM   14  C   UNL     1      39.485 -13.154  -1.208  1.00  0.00     0.034 C 
HETATM   15  C   UNL     1      38.030 -13.599  -1.254  1.00  0.00     0.010 C 
ENDBRANCH  11  14
ENDBRANCH   7   8
BRANCH   7  16
HETATM   16  C   UNL     1      42.296 -13.734   4.808  1.00  0.00     0.005 C 
HETATM   17  C   UNL     1      41.025 -13.471   5.623  1.00  0.00     0.012 C 
HETATM   18  C   UNL     1      43.462 -14.049   5.753  1.00  0.00     0.012 C 
ENDBRANCH   7  16
ENDBRANCH   1   7
BRANCH   3  19
HETATM   19  N   UNL     1      43.988 -18.593   4.326  1.00  0.00    -0.244 N 
HETATM   20  C   UNL     1      43.973 -19.676   3.493  1.00  0.00     0.086 A 
HETATM   21  C   UNL     1      44.603 -20.665   4.251  1.00  0.00     0.086 A 
HETATM   22  C   UNL     1      43.489 -19.896   2.199  1.00  0.00     0.034 A 
HETATM   23  C   UNL     1      44.776 -21.941   3.696  1.00  0.00     0.034 A 
HETATM   24  N   UNL     1      44.957 -20.193   5.498  1.00  0.00    -0.240 NA
HETATM   25  C   UNL     1      44.303 -22.184   2.399  1.00  0.00     0.002 A 
HETATM   26  C   UNL     1      43.669 -21.178   1.667  1.00  0.00     0.002 A 
HETATM   27  C   UNL     1      44.568 -18.934   5.510  1.00  0.00     0.234 A 
ENDBRANCH   3  19
TORSDOF 5
ENDMDL
MODEL 6
REMARK VINA RESULT:      -7.3      1.765      4.243
REMARK  5 active torsions:
REMARK  status: ('A' for Active; 'I' for Inactive)
REMARK    1  A    between atoms: C_2  and  C_3 
REMARK    2  A    between atoms: C_6  and  C_7 
REMARK    3  A    between atoms: C_7  and  N_8 
REMARK    4  A    between atoms: C_7  and  C_21 
REMARK       I    between atoms: N_8  and  C_9 
REMARK       I    between atoms: C_9  and  N_10 
REMARK    5  A    between atoms: N_10  and  N_11 
ROOT
HETATM    1  N   UNL     1      41.464 -16.522   2.972  1.00  0.00    -0.333 N 
HETATM    2  C   UNL     1      40.568 -15.993   2.098  1.00  0.00     0.335 C 
HETATM    3  N   UNL     1      41.018 -14.957   1.340  1.00  0.00    -0.244 N 
HETATM    4  O   UNL     1      39.445 -16.481   2.027  1.00  0.00    -0.246 OA
HETATM    5  H   UNL     1      41.065 -17.266   3.529  1.00  0.00     0.165 HD
HETATM    6  H   UNL     1      41.633 -14.285   1.776  1.00  0.00     0.192 HD
ENDROOT
BRANCH   1   7
HETATM    7  C   UNL     1      42.900 -16.278   3.069  1.00  0.00     0.122 C 
BRANCH   7   8
HETATM    8  C   UNL     1      43.297 -15.648   4.395  1.00  0.00    -0.035 A 
HETATM    9  C   UNL     1      43.559 -16.408   5.545  1.00  0.00     0.010 A 
HETATM   10  C   UNL     1      43.980 -15.794   6.728  1.00  0.00     0.007 A 
HETATM   11  C   UNL     1      44.150 -14.406   6.793  1.00  0.00    -0.059 A 
HETATM   12  C   UNL     1      43.887 -13.642   5.651  1.00  0.00     0.007 A 
HETATM   13  C   UNL     1      43.464 -14.254   4.468  1.00  0.00     0.010 A 
BRANCH  11  14
HETATM   14  C   UNL     1      44.654 -13.751   8.053  1.00  0.00     0.034 C 
HETATM   15  C   UNL     1      45.846 -12.846   7.781  1.00  0.00     0.010 C 
ENDBRANCH  11  14
ENDBRANCH   7   8
BRANCH   7  16
HETATM   16  C   UNL     1      43.730 -17.551   2.744  1.00  0.00     0.005 C 
HETATM   17  C   UNL     1      42.977 -18.866   2.971  1.00  0.00     0.012 C 
HETATM   18  C   UNL     1      44.266 -17.501   1.309  1.00  0.00     0.012 C 
ENDBRANCH   7  16
ENDBRANCH   1   7
BRANCH   3  19
HETATM   19  N   UNL     1      40.189 -14.424   0.414  1.00  0.00    -0.244 N 
HETATM   20  C   UNL     1      40.269 -14.708  -0.920  1.00  0.00     0.086 A 
HETATM   21  C   UNL     1      39.352 -13.821  -1.486  1.00  0.00     0.086 A 
HETATM   22  C   UNL     1      41.022 -15.615  -1.674  1.00  0.00     0.034 A 
HETATM   23  C   UNL     1      39.157 -13.838  -2.875  1.00  0.00     0.034 A 
HETATM   24  N   UNL     1      38.767 -13.022  -0.526  1.00  0.00    -0.240 NA
HETATM   25  C   UNL     1      39.897 -14.740  -3.651  1.00  0.00     0.002 A 
HETATM   26  C   UNL     1      40.814 -15.611  -3.058  1.00  0.00     0.002 A 
HETATM   27  C   UNL     1      39.299 -13.413   0.614  1.00  0.00     0.234 A 
ENDBRANCH   3  19
TORSDOF 5
ENDMDL
MODEL 7
REMARK VINA RESULT:      -7.3      2.625      7.582
REMARK  5 active torsions:
REMARK  status: ('A' for Active; 'I' for Inactive)
REMARK    1  A    between atoms: C_2  and  C_3 
REMARK    2  A    between atoms: C_6  and  C_7 
REMARK    3  A    between atoms: C_7  and  N_8 
REMARK    4  A    between atoms: C_7  and  C_21 
REMARK       I    between atoms: N_8  and  C_9 
REMARK       I    between atoms: C_9  and  N_10 
REMARK    5  A    between atoms: N_10  and  N_11 
ROOT
HETATM    1  N   UNL     1      42.387 -15.606   2.215  1.00  0.00    -0.333 N 
HETATM    2  C   UNL     1      43.273 -16.574   2.568  1.00  0.00     0.335 C 
HETATM    3  N   UNL     1      42.892 -17.380   3.596  1.00  0.00    -0.244 N 
HETATM    4  O   UNL     1      44.323 -16.678   1.944  1.00  0.00    -0.246 OA
HETATM    5  H   UNL     1      42.736 -15.018   1.469  1.00  0.00     0.165 HD
HETATM    6  H   UNL     1      42.394 -16.960   4.367  1.00  0.00     0.192 HD
ENDROOT
BRANCH   1   7
HETATM    7  C   UNL     1      41.000 -15.437   2.638  1.00  0.00     0.122 C 
BRANCH   7   8
HETATM    8  C   UNL     1      40.824 -14.284   3.615  1.00  0.00    -0.035 A 
HETATM    9  C   UNL     1      41.344 -13.004   3.376  1.00  0.00     0.010 A 
HETATM   10  C   UNL     1      41.108 -11.957   4.272  1.00  0.00     0.007 A 
HETATM   11  C   UNL     1      40.346 -12.162   5.428  1.00  0.00    -0.059 A 
HETATM   12  C   UNL     1      39.827 -13.437   5.674  1.00  0.00     0.007 A 
HETATM   13  C   UNL     1      40.065 -14.486   4.781  1.00  0.00     0.010 A 
BRANCH  11  14
HETATM   14  C   UNL     1      40.049 -11.021   6.365  1.00  0.00     0.034 C 
HETATM   15  C   UNL     1      39.517 -11.512   7.703  1.00  0.00     0.010 C 
ENDBRANCH  11  14
ENDBRANCH   7   8
BRANCH   7  16
HETATM   16  C   UNL     1      40.029 -15.343   1.429  1.00  0.00     0.005 C 
HETATM   17  C   UNL     1      38.739 -14.569   1.719  1.00  0.00     0.012 C 
HETATM   18  C   UNL     1      40.734 -14.737   0.209  1.00  0.00     0.012 C 
ENDBRANCH   7  16
ENDBRANCH   1   7
BRANCH   3  19
HETATM   19  N   UNL     1      43.709 -18.396   3.958  1.00  0.00    -0.244 N 
HETATM   20  C   UNL     1      43.778 -19.582   3.283  1.00  0.00     0.086 A 
HETATM   21  C   UNL     1      44.601 -20.360   4.099  1.00  0.00     0.086 A 
HETATM   22  C   UNL     1      43.227 -20.049   2.085  1.00  0.00     0.034 A 
HETATM   23  C   UNL     1      44.908 -21.671   3.704  1.00  0.00     0.034 A 
HETATM   24  N   UNL     1      44.986 -19.670   5.229  1.00  0.00    -0.240 NA
HETATM   25  C   UNL     1      44.370 -22.159   2.506  1.00  0.00     0.002 A 
HETATM   26  C   UNL     1      43.543 -21.360   1.713  1.00  0.00     0.002 A 
HETATM   27  C   UNL     1      44.425 -18.484   5.113  1.00  0.00     0.234 A 
ENDBRANCH   3  19
TORSDOF 5
ENDMDL
MODEL 8
REMARK VINA RESULT:      -7.2      3.177      5.132
REMARK  5 active torsions:
REMARK  status: ('A' for Active; 'I' for Inactive)
REMARK    1  A    between atoms: C_2  and  C_3 
REMARK    2  A    between atoms: C_6  and  C_7 
REMARK    3  A    between atoms: C_7  and  N_8 
REMARK    4  A    between atoms: C_7  and  C_21 
REMARK       I    between atoms: N_8  and  C_9 
REMARK       I    between atoms: C_9  and  N_10 
REMARK    5  A    between atoms: N_10  and  N_11 
ROOT
HETATM    1  N   UNL     1      40.840 -15.823   4.183  1.00  0.00    -0.333 N 
HETATM    2  C   UNL     1      40.524 -14.714   4.902  1.00  0.00     0.335 C 
HETATM    3  N   UNL     1      41.212 -13.584   4.582  1.00  0.00    -0.244 N 
HETATM    4  O   UNL     1      39.648 -14.787   5.756  1.00  0.00    -0.246 OA
HETATM    5  H   UNL     1      40.322 -16.638   4.484  1.00  0.00     0.165 HD
HETATM    6  H   UNL     1      42.190 -13.675   4.351  1.00  0.00     0.192 HD
ENDROOT
BRANCH   1   7
HETATM    7  C   UNL     1      41.658 -15.929   2.978  1.00  0.00     0.122 C 
BRANCH   7   8
HETATM    8  C   UNL     1      42.489 -17.204   2.946  1.00  0.00    -0.035 A 
HETATM    9  C   UNL     1      42.932 -17.847   4.112  1.00  0.00     0.010 A 
HETATM   10  C   UNL     1      43.642 -19.049   4.039  1.00  0.00     0.007 A 
HETATM   11  C   UNL     1      43.927 -19.638   2.802  1.00  0.00    -0.059 A 
HETATM   12  C   UNL     1      43.491 -19.001   1.636  1.00  0.00     0.007 A 
HETATM   13  C   UNL     1      42.783 -17.797   1.707  1.00  0.00     0.010 A 
BRANCH  11  14
HETATM   14  C   UNL     1      44.646 -20.960   2.728  1.00  0.00     0.034 C 
HETATM   15  C   UNL     1      44.051 -21.868   1.663  1.00  0.00     0.010 C 
ENDBRANCH  11  14
ENDBRANCH   7   8
BRANCH   7  16
HETATM   16  C   UNL     1      40.819 -15.736   1.685  1.00  0.00     0.005 C 
HETATM   17  C   UNL     1      39.311 -15.610   1.929  1.00  0.00     0.012 C 
HETATM   18  C   UNL     1      41.318 -14.527   0.885  1.00  0.00     0.012 C 
ENDBRANCH   7  16
ENDBRANCH   1   7
BRANCH   3  19
HETATM   19  N   UNL     1      40.904 -12.435   5.227  1.00  0.00    -0.244 N 
HETATM   20  C   UNL     1      39.953 -11.558   4.788  1.00  0.00     0.086 A 
HETATM   21  C   UNL     1      40.103 -10.473   5.652  1.00  0.00     0.086 A 
HETATM   22  C   UNL     1      39.005 -11.591   3.759  1.00  0.00     0.034 A 
HETATM   23  C   UNL     1      39.263  -9.360   5.500  1.00  0.00     0.034 A 
HETATM   24  N   UNL     1      41.124 -10.687   6.555  1.00  0.00    -0.240 NA
HETATM   25  C   UNL     1      38.304  -9.371   4.479  1.00  0.00     0.002 A 
HETATM   26  C   UNL     1      38.181 -10.468   3.624  1.00  0.00     0.002 A 
HETATM   27  C   UNL     1      41.589 -11.885   6.267  1.00  0.00     0.234 A 
ENDBRANCH   3  19
TORSDOF 5
ENDMDL
MODEL 9
REMARK VINA RESULT:      -7.0      2.065      7.861
REMARK  5 active torsions:
REMARK  status: ('A' for Active; 'I' for Inactive)
REMARK    1  A    between atoms: C_2  and  C_3 
REMARK    2  A    between atoms: C_6  and  C_7 
REMARK    3  A    between atoms: C_7  and  N_8 
REMARK    4  A    between atoms: C_7  and  C_21 
REMARK       I    between atoms: N_8  and  C_9 
REMARK       I    between atoms: C_9  and  N_10 
REMARK    5  A    between atoms: N_10  and  N_11 
ROOT
HETATM    1  N   UNL     1      41.723 -13.853   1.813  1.00  0.00    -0.333 N 
HETATM    2  C   UNL     1      42.552 -14.503   2.672  1.00  0.00     0.335 C 
HETATM    3  N   UNL     1      42.110 -15.707   3.126  1.00  0.00    -0.244 N 
HETATM    4  O   UNL     1      43.629 -13.993   2.962  1.00  0.00    -0.246 OA
HETATM    5  H   UNL     1      42.088 -12.952   1.533  1.00  0.00     0.165 HD
HETATM    6  H   UNL     1      41.127 -15.803   3.332  1.00  0.00     0.192 HD
ENDROOT
BRANCH   1   7
HETATM    7  C   UNL     1      40.526 -14.353   1.145  1.00  0.00     0.122 C 
BRANCH   7   8
HETATM    8  C   UNL     1      39.355 -13.386   1.242  1.00  0.00    -0.035 A 
HETATM    9  C   UNL     1      39.304 -12.353   2.191  1.00  0.00     0.010 A 
HETATM   10  C   UNL     1      38.238 -11.449   2.208  1.00  0.00     0.007 A 
HETATM   11  C   UNL     1      37.197 -11.554   1.278  1.00  0.00    -0.059 A 
HETATM   12  C   UNL     1      37.239 -12.583   0.332  1.00  0.00     0.007 A 
HETATM   13  C   UNL     1      38.304 -13.489   0.316  1.00  0.00     0.010 A 
BRANCH  11  14
HETATM   14  C   UNL     1      36.076 -10.547   1.265  1.00  0.00     0.034 C 
HETATM   15  C   UNL     1      34.844 -11.084   0.552  1.00  0.00     0.010 C 
ENDBRANCH  11  14
ENDBRANCH   7   8
BRANCH   7  16
HETATM   16  C   UNL     1      40.814 -14.789  -0.320  1.00  0.00     0.005 C 
HETATM   17  C   UNL     1      41.742 -13.839  -1.085  1.00  0.00     0.012 C 
HETATM   18  C   UNL     1      41.379 -16.213  -0.364  1.00  0.00     0.012 C 
ENDBRANCH   7  16
ENDBRANCH   1   7
BRANCH   3  19
HETATM   19  N   UNL     1      42.915 -16.426   3.942  1.00  0.00    -0.244 N 
HETATM   20  C   UNL     1      43.393 -17.666   3.626  1.00  0.00     0.086 A 
HETATM   21  C   UNL     1      44.017 -18.073   4.806  1.00  0.00     0.086 A 
HETATM   22  C   UNL     1      43.349 -18.456   2.472  1.00  0.00     0.034 A 
HETATM   23  C   UNL     1      44.643 -19.327   4.847  1.00  0.00     0.034 A 
HETATM   24  N   UNL     1      43.892 -17.120   5.795  1.00  0.00    -0.240 NA
HETATM   25  C   UNL     1      44.616 -20.135   3.703  1.00  0.00     0.002 A 
HETATM   26  C   UNL     1      43.977 -19.705   2.537  1.00  0.00     0.002 A 
HETATM   27  C   UNL     1      43.217 -16.136   5.238  1.00  0.00     0.234 A 
ENDBRANCH   3  19
TORSDOF 5
ENDMDL
MODEL 10
REMARK VINA RESULT:      -7.0      3.258      5.772
REMARK  5 active torsions:
REMARK  status: ('A' for Active; 'I' for Inactive)
REMARK    1  A    between atoms: C_2  and  C_3 
REMARK    2  A    between atoms: C_6  and  C_7 
REMARK    3  A    between atoms: C_7  and  N_8 
REMARK    4  A    between atoms: C_7  and  C_21 
REMARK       I    between atoms: N_8  and  C_9 
REMARK       I    between atoms: C_9  and  N_10 
REMARK    5  A    between atoms: N_10  and  N_11 
ROOT
HETATM    1  N   UNL     1      40.602 -15.603   4.122  1.00  0.00    -0.333 N 
HETATM    2  C   UNL     1      40.128 -14.465   4.695  1.00  0.00     0.335 C 
HETATM    3  N   UNL     1      40.604 -13.299   4.181  1.00  0.00    -0.244 N 
HETATM    4  O   UNL     1      39.306 -14.552   5.600  1.00  0.00    -0.246 OA
HETATM    5  H   UNL     1      40.238 -16.437   4.564  1.00  0.00     0.165 HD
HETATM    6  H   UNL     1      41.576 -13.264   3.909  1.00  0.00     0.192 HD
ENDROOT
BRANCH   1   7
HETATM    7  C   UNL     1      41.385 -15.752   2.899  1.00  0.00     0.122 C 
BRANCH   7   8
HETATM    8  C   UNL     1      42.192 -17.042   2.876  1.00  0.00    -0.035 A 
HETATM    9  C   UNL     1      42.109 -17.966   1.824  1.00  0.00     0.010 A 
HETATM   10  C   UNL     1      42.913 -19.111   1.813  1.00  0.00     0.007 A 
HETATM   11  C   UNL     1      43.817 -19.360   2.851  1.00  0.00    -0.059 A 
HETATM   12  C   UNL     1      43.902 -18.444   3.905  1.00  0.00     0.007 A 
HETATM   13  C   UNL     1      43.097 -17.301   3.919  1.00  0.00     0.010 A 
BRANCH  11  14
HETATM   14  C   UNL     1      44.719 -20.566   2.811  1.00  0.00     0.034 C 
HETATM   15  C   UNL     1      44.151 -21.667   1.928  1.00  0.00     0.010 C 
ENDBRANCH  11  14
ENDBRANCH   7   8
BRANCH   7  16
HETATM   16  C   UNL     1      40.515 -15.574   1.624  1.00  0.00     0.005 C 
HETATM   17  C   UNL     1      39.018 -15.402   1.905  1.00  0.00     0.012 C 
HETATM   18  C   UNL     1      41.021 -14.401   0.777  1.00  0.00     0.012 C 
ENDBRANCH   7  16
ENDBRANCH   1   7
BRANCH   3  19
HETATM   19  N   UNL     1      40.129 -12.132   4.675  1.00  0.00    -0.244 N 
HETATM   20  C   UNL     1      40.656 -11.508   5.770  1.00  0.00     0.086 A 
HETATM   21  C   UNL     1      39.759 -10.464   5.999  1.00  0.00     0.086 A 
HETATM   22  C   UNL     1      41.785 -11.736   6.564  1.00  0.00     0.034 A 
HETATM   23  C   UNL     1      39.995  -9.586   7.067  1.00  0.00     0.034 A 
HETATM   24  N   UNL     1      38.722 -10.483   5.090  1.00  0.00    -0.240 NA
HETATM   25  C   UNL     1      41.121  -9.791   7.875  1.00  0.00     0.002 A 
HETATM   26  C   UNL     1      41.998 -10.850   7.627  1.00  0.00     0.002 A 
HETATM   27  C   UNL     1      38.977 -11.508   4.303  1.00  0.00     0.234 A 
ENDBRANCH   3  19
TORSDOF 5
ENDMDL
