MODEL 1
REMARK VINA RESULT:      -8.5      0.000      0.000
REMARK  10 active torsions:
REMARK  status: ('A' for Active; 'I' for Inactive)
REMARK    1  A    between atoms: C_3  and  N_4 
REMARK       I    between atoms: N_4  and  C_5 
REMARK    2  A    between atoms: C_5  and  C_6 
REMARK    3  A    between atoms: C_13  and  C_14 
REMARK    4  A    between atoms: C_14  and  O_15 
REMARK    5  A    between atoms: O_15  and  C_16 
REMARK    6  A    between atoms: C_16  and  C_17 
REMARK       I    between atoms: C_17  and  N_18 
REMARK    7  A    between atoms: N_18  and  C_19 
REMARK    8  A    between atoms: C_19  and  C_20 
REMARK    9  A    between atoms: C_20  and  C_21 
REMARK   10  A    between atoms: C_24  and  O_25 
ROOT
HETATM    1  C   UNL     1      42.093 -13.769   2.777  1.00  0.00     0.293 C 
HETATM    2  O   UNL     1      42.862 -13.220   1.999  1.00  0.00    -0.259 OA
ENDROOT
BRANCH   1   3
HETATM    3  C   UNL     1      42.521 -14.420   4.037  1.00  0.00     0.041 A 
HETATM    4  C   UNL     1      42.907 -13.673   5.158  1.00  0.00     0.047 A 
HETATM    5  C   UNL     1      43.326 -14.304   6.337  1.00  0.00     0.042 A 
HETATM    6  C   UNL     1      43.354 -15.716   6.384  1.00  0.00    -0.035 A 
HETATM    7  C   UNL     1      43.820 -16.495   7.588  1.00  0.00     0.050 C 
HETATM    8  C   UNL     1      42.963 -16.455   5.252  1.00  0.00     0.010 A 
HETATM    9  C   UNL     1      42.537 -15.814   4.090  1.00  0.00     0.018 A 
BRANCH   5  10
HETATM   10  N   UNL     1      43.739 -13.566   7.468  1.00  0.00    -0.321 N 
HETATM   11  C   UNL     1      45.015 -13.136   7.794  1.00  0.00     0.279 C 
HETATM   12  O   UNL     1      46.016 -13.296   7.104  1.00  0.00    -0.265 OA
HETATM   13  H   UNL     1      43.026 -13.258   8.118  1.00  0.00     0.169 HD
BRANCH  11  14
HETATM   14  C   UNL     1      45.063 -12.419   9.055  1.00  0.00     0.142 A 
HETATM   15  O   UNL     1      44.347 -12.888  10.128  1.00  0.00    -0.317 OA
HETATM   16  C   UNL     1      44.582 -12.041  11.164  1.00  0.00     0.143 A 
HETATM   17  C   UNL     1      45.427 -11.028  10.779  1.00  0.00     0.027 A 
HETATM   18  C   UNL     1      45.737 -11.270   9.421  1.00  0.00     0.045 A 
ENDBRANCH  11  14
ENDBRANCH   5  10
ENDBRANCH   1   3
BRANCH   1  19
HETATM   19  O   UNL     1      40.748 -13.832   2.647  1.00  0.00    -0.308 OA
BRANCH  19  20
HETATM   20  C   UNL     1      40.266 -14.542   1.505  1.00  0.00     0.281 C 
BRANCH  20  21
HETATM   21  C   UNL     1      40.541 -16.047   1.543  1.00  0.00     0.241 C 
HETATM   22  N   UNL     1      41.670 -16.437   0.854  1.00  0.00    -0.359 N 
HETATM   23  H   UNL     1      42.318 -15.704   0.564  1.00  0.00     0.162 HD
HETATM   24  O   UNL     1      39.796 -16.837   2.116  1.00  0.00    -0.271 OA
BRANCH  22  25
HETATM   25  C   UNL     1      42.119 -17.814   0.874  1.00  0.00     0.127 C 
BRANCH  25  26
HETATM   26  C   UNL     1      43.611 -17.921   1.187  1.00  0.00     0.058 C 
BRANCH  26  27
HETATM   27  C   UNL     1      43.925 -19.126   2.037  1.00  0.00    -0.057 A 
HETATM   28  C   UNL     1      44.505 -18.966   3.301  1.00  0.00     0.010 A 
HETATM   29  C   UNL     1      44.808 -20.082   4.082  1.00  0.00     0.037 A 
HETATM   30  C   UNL     1      44.545 -21.372   3.618  1.00  0.00     0.068 A 
HETATM   31  C   UNL     1      43.977 -21.537   2.354  1.00  0.00     0.037 A 
HETATM   32  C   UNL     1      43.671 -20.420   1.568  1.00  0.00     0.010 A 
BRANCH  30  33
HETATM   33  O   UNL     1      44.887 -22.373   4.485  1.00  0.00    -0.356 OA
HETATM   34  C   UNL     1      44.552 -22.179   5.854  1.00  0.00     0.210 C 
ENDBRANCH  30  33
ENDBRANCH  26  27
ENDBRANCH  25  26
ENDBRANCH  22  25
ENDBRANCH  20  21
ENDBRANCH  19  20
ENDBRANCH   1  19
TORSDOF 10
ENDMDL
MODEL 2
REMARK VINA RESULT:      -8.5      2.822     10.487
REMARK  10 active torsions:
REMARK  status: ('A' for Active; 'I' for Inactive)
REMARK    1  A    between atoms: C_3  and  N_4 
REMARK       I    between atoms: N_4  and  C_5 
REMARK    2  A    between atoms: C_5  and  C_6 
REMARK    3  A    between atoms: C_13  and  C_14 
REMARK    4  A    between atoms: C_14  and  O_15 
REMARK    5  A    between atoms: O_15  and  C_16 
REMARK    6  A    between atoms: C_16  and  C_17 
REMARK       I    between atoms: C_17  and  N_18 
REMARK    7  A    between atoms: N_18  and  C_19 
REMARK    8  A    between atoms: C_19  and  C_20 
REMARK    9  A    between atoms: C_20  and  C_21 
REMARK   10  A    between atoms: C_24  and  O_25 
ROOT
HETATM    1  C   UNL     1      44.103 -15.985   7.005  1.00  0.00     0.293 C 
HETATM    2  O   UNL     1      43.586 -16.299   8.069  1.00  0.00    -0.259 OA
ENDROOT
BRANCH   1   3
HETATM    3  C   UNL     1      43.933 -16.752   5.748  1.00  0.00     0.041 A 
HETATM    4  C   UNL     1      43.480 -16.144   4.571  1.00  0.00     0.047 A 
HETATM    5  C   UNL     1      43.308 -16.886   3.395  1.00  0.00     0.042 A 
HETATM    6  C   UNL     1      43.602 -18.269   3.409  1.00  0.00    -0.035 A 
HETATM    7  C   UNL     1      43.420 -19.166   2.212  1.00  0.00     0.050 C 
HETATM    8  C   UNL     1      44.058 -18.866   4.599  1.00  0.00     0.010 A 
HETATM    9  C   UNL     1      44.236 -18.113   5.757  1.00  0.00     0.018 A 
BRANCH   5  10
HETATM   10  N   UNL     1      42.831 -16.294   2.205  1.00  0.00    -0.321 N 
HETATM   11  C   UNL     1      41.517 -16.074   1.821  1.00  0.00     0.279 C 
HETATM   12  O   UNL     1      40.528 -16.330   2.498  1.00  0.00    -0.265 OA
HETATM   13  H   UNL     1      43.513 -15.931   1.550  1.00  0.00     0.169 HD
BRANCH  11  14
HETATM   14  C   UNL     1      41.409 -15.459   0.511  1.00  0.00     0.142 A 
HETATM   15  O   UNL     1      41.192 -16.247  -0.592  1.00  0.00    -0.317 OA
HETATM   16  C   UNL     1      41.123 -15.417  -1.665  1.00  0.00     0.143 A 
HETATM   17  C   UNL     1      41.302 -14.110  -1.280  1.00  0.00     0.027 A 
HETATM   18  C   UNL     1      41.487 -14.136   0.121  1.00  0.00     0.045 A 
ENDBRANCH  11  14
ENDBRANCH   5  10
ENDBRANCH   1   3
BRANCH   1  19
HETATM   19  O   UNL     1      44.860 -14.885   6.788  1.00  0.00    -0.308 OA
BRANCH  19  20
HETATM   20  C   UNL     1      44.265 -13.639   7.152  1.00  0.00     0.281 C 
BRANCH  20  21
HETATM   21  C   UNL     1      44.966 -12.927   8.311  1.00  0.00     0.241 C 
HETATM   22  N   UNL     1      44.166 -12.704   9.411  1.00  0.00    -0.359 N 
HETATM   23  H   UNL     1      43.272 -13.195   9.446  1.00  0.00     0.162 HD
HETATM   24  O   UNL     1      46.137 -12.561   8.245  1.00  0.00    -0.271 OA
BRANCH  22  25
HETATM   25  C   UNL     1      44.707 -12.127  10.625  1.00  0.00     0.127 C 
BRANCH  25  26
HETATM   26  C   UNL     1      44.283 -10.669  10.798  1.00  0.00     0.058 C 
BRANCH  26  27
HETATM   27  C   UNL     1      43.437 -10.469  12.030  1.00  0.00    -0.057 A 
HETATM   28  C   UNL     1      43.816  -9.537  13.002  1.00  0.00     0.010 A 
HETATM   29  C   UNL     1      43.039  -9.361  14.150  1.00  0.00     0.037 A 
HETATM   30  C   UNL     1      41.880 -10.113  14.349  1.00  0.00     0.068 A 
HETATM   31  C   UNL     1      41.504 -11.051  13.388  1.00  0.00     0.037 A 
HETATM   32  C   UNL     1      42.280 -11.229  12.236  1.00  0.00     0.010 A 
BRANCH  30  33
HETATM   33  O   UNL     1      41.214  -9.837  15.511  1.00  0.00    -0.356 OA
HETATM   34  C   UNL     1      41.186  -8.478  15.929  1.00  0.00     0.210 C 
ENDBRANCH  30  33
ENDBRANCH  26  27
ENDBRANCH  25  26
ENDBRANCH  22  25
ENDBRANCH  20  21
ENDBRANCH  19  20
ENDBRANCH   1  19
TORSDOF 10
ENDMDL
MODEL 3
REMARK VINA RESULT:      -8.4      2.759     10.274
REMARK  10 active torsions:
REMARK  status: ('A' for Active; 'I' for Inactive)
REMARK    1  A    between atoms: C_3  and  N_4 
REMARK       I    between atoms: N_4  and  C_5 
REMARK    2  A    between atoms: C_5  and  C_6 
REMARK    3  A    between atoms: C_13  and  C_14 
REMARK    4  A    between atoms: C_14  and  O_15 
REMARK    5  A    between atoms: O_15  and  C_16 
REMARK    6  A    between atoms: C_16  and  C_17 
REMARK       I    between atoms: C_17  and  N_18 
REMARK    7  A    between atoms: N_18  and  C_19 
REMARK    8  A    between atoms: C_19  and  C_20 
REMARK    9  A    between atoms: C_20  and  C_21 
REMARK   10  A    between atoms: C_24  and  O_25 
ROOT
HETATM    1  C   UNL     1      42.997 -13.812   6.070  1.00  0.00     0.293 C 
HETATM    2  O   UNL     1      42.652 -12.649   6.232  1.00  0.00    -0.259 OA
ENDROOT
BRANCH   1   3
HETATM    3  C   UNL     1      42.411 -14.710   5.048  1.00  0.00     0.041 A 
HETATM    4  C   UNL     1      42.905 -16.004   4.835  1.00  0.00     0.047 A 
HETATM    5  C   UNL     1      42.351 -16.835   3.852  1.00  0.00     0.042 A 
HETATM    6  C   UNL     1      41.276 -16.352   3.073  1.00  0.00    -0.035 A 
HETATM    7  C   UNL     1      40.630 -17.148   1.969  1.00  0.00     0.050 C 
HETATM    8  C   UNL     1      40.788 -15.051   3.298  1.00  0.00     0.010 A 
HETATM    9  C   UNL     1      41.341 -14.239   4.287  1.00  0.00     0.018 A 
BRANCH   5  10
HETATM   10  N   UNL     1      42.852 -18.133   3.609  1.00  0.00    -0.321 N 
HETATM   11  C   UNL     1      43.757 -18.538   2.641  1.00  0.00     0.279 C 
HETATM   12  O   UNL     1      44.320 -17.797   1.842  1.00  0.00    -0.265 OA
HETATM   13  H   UNL     1      42.566 -18.876   4.236  1.00  0.00     0.169 HD
BRANCH  11  14
HETATM   14  C   UNL     1      44.020 -19.965   2.677  1.00  0.00     0.142 A 
HETATM   15  O   UNL     1      44.516 -20.534   3.823  1.00  0.00    -0.317 OA
HETATM   16  C   UNL     1      44.652 -21.864   3.579  1.00  0.00     0.143 A 
HETATM   17  C   UNL     1      44.265 -22.163   2.295  1.00  0.00     0.027 A 
HETATM   18  C   UNL     1      43.858 -20.941   1.712  1.00  0.00     0.045 A 
ENDBRANCH  11  14
ENDBRANCH   5  10
ENDBRANCH   1   3
BRANCH   1  19
HETATM   19  O   UNL     1      43.982 -14.446   6.746  1.00  0.00    -0.308 OA
BRANCH  19  20
HETATM   20  C   UNL     1      45.228 -13.752   6.825  1.00  0.00     0.281 C 
BRANCH  20  21
HETATM   21  C   UNL     1      45.404 -12.927   8.101  1.00  0.00     0.241 C 
HETATM   22  N   UNL     1      44.281 -12.865   8.899  1.00  0.00    -0.359 N 
HETATM   23  H   UNL     1      43.523 -13.515   8.691  1.00  0.00     0.162 HD
HETATM   24  O   UNL     1      46.453 -12.347   8.369  1.00  0.00    -0.271 OA
BRANCH  22  25
HETATM   25  C   UNL     1      44.315 -12.202  10.187  1.00  0.00     0.127 C 
BRANCH  25  26
HETATM   26  C   UNL     1      43.385 -10.991  10.227  1.00  0.00     0.058 C 
BRANCH  26  27
HETATM   27  C   UNL     1      42.902 -10.695  11.624  1.00  0.00    -0.057 A 
HETATM   28  C   UNL     1      43.693  -9.943  12.500  1.00  0.00     0.010 A 
HETATM   29  C   UNL     1      43.251  -9.681  13.799  1.00  0.00     0.037 A 
HETATM   30  C   UNL     1      42.020 -10.165  14.245  1.00  0.00     0.068 A 
HETATM   31  C   UNL     1      41.233 -10.924  13.380  1.00  0.00     0.037 A 
HETATM   32  C   UNL     1      41.673 -11.188  12.077  1.00  0.00     0.010 A 
BRANCH  30  33
HETATM   33  O   UNL     1      41.709  -9.832  15.535  1.00  0.00    -0.356 OA
HETATM   34  C   UNL     1      41.867  -8.466  15.900  1.00  0.00     0.210 C 
ENDBRANCH  30  33
ENDBRANCH  26  27
ENDBRANCH  25  26
ENDBRANCH  22  25
ENDBRANCH  20  21
ENDBRANCH  19  20
ENDBRANCH   1  19
TORSDOF 10
ENDMDL
MODEL 4
REMARK VINA RESULT:      -8.2      1.756      5.093
REMARK  10 active torsions:
REMARK  status: ('A' for Active; 'I' for Inactive)
REMARK    1  A    between atoms: C_3  and  N_4 
REMARK       I    between atoms: N_4  and  C_5 
REMARK    2  A    between atoms: C_5  and  C_6 
REMARK    3  A    between atoms: C_13  and  C_14 
REMARK    4  A    between atoms: C_14  and  O_15 
REMARK    5  A    between atoms: O_15  and  C_16 
REMARK    6  A    between atoms: C_16  and  C_17 
REMARK       I    between atoms: C_17  and  N_18 
REMARK    7  A    between atoms: N_18  and  C_19 
REMARK    8  A    between atoms: C_19  and  C_20 
REMARK    9  A    between atoms: C_20  and  C_21 
REMARK   10  A    between atoms: C_24  and  O_25 
ROOT
HETATM    1  C   UNL     1      44.746 -18.271   5.939  1.00  0.00     0.293 C 
HETATM    2  O   UNL     1      45.889 -18.476   6.323  1.00  0.00    -0.259 OA
ENDROOT
BRANCH   1   3
HETATM    3  C   UNL     1      44.123 -16.928   5.883  1.00  0.00     0.041 A 
HETATM    4  C   UNL     1      44.365 -15.963   6.869  1.00  0.00     0.047 A 
HETATM    5  C   UNL     1      43.754 -14.703   6.812  1.00  0.00     0.042 A 
HETATM    6  C   UNL     1      42.885 -14.412   5.736  1.00  0.00    -0.035 A 
HETATM    7  C   UNL     1      42.150 -13.104   5.596  1.00  0.00     0.050 C 
HETATM    8  C   UNL     1      42.651 -15.391   4.752  1.00  0.00     0.010 A 
HETATM    9  C   UNL     1      43.275 -16.635   4.815  1.00  0.00     0.018 A 
BRANCH   5  10
HETATM   10  N   UNL     1      43.970 -13.727   7.809  1.00  0.00    -0.321 N 
HETATM   11  C   UNL     1      45.110 -12.974   8.041  1.00  0.00     0.279 C 
HETATM   12  O   UNL     1      46.132 -13.007   7.365  1.00  0.00    -0.265 OA
HETATM   13  H   UNL     1      43.195 -13.492   8.419  1.00  0.00     0.169 HD
BRANCH  11  14
HETATM   14  C   UNL     1      44.973 -12.081   9.177  1.00  0.00     0.142 A 
HETATM   15  O   UNL     1      45.674 -10.901   9.201  1.00  0.00    -0.317 OA
HETATM   16  C   UNL     1      45.351 -10.270  10.359  1.00  0.00     0.143 A 
HETATM   17  C   UNL     1      44.464 -11.023  11.091  1.00  0.00     0.027 A 
HETATM   18  C   UNL     1      44.220 -12.190  10.331  1.00  0.00     0.045 A 
ENDBRANCH  11  14
ENDBRANCH   5  10
ENDBRANCH   1   3
BRANCH   1  19
HETATM   19  O   UNL     1      43.891 -19.207   5.466  1.00  0.00    -0.308 OA
BRANCH  19  20
HETATM   20  C   UNL     1      44.481 -20.255   4.695  1.00  0.00     0.281 C 
BRANCH  20  21
HETATM   21  C   UNL     1      44.202 -20.161   3.194  1.00  0.00     0.241 C 
HETATM   22  N   UNL     1      43.257 -19.217   2.849  1.00  0.00    -0.359 N 
HETATM   23  H   UNL     1      42.985 -18.543   3.565  1.00  0.00     0.162 HD
HETATM   24  O   UNL     1      44.755 -20.889   2.375  1.00  0.00    -0.271 OA
BRANCH  22  25
HETATM   25  C   UNL     1      42.950 -18.940   1.460  1.00  0.00     0.127 C 
BRANCH  25  26
HETATM   26  C   UNL     1      43.264 -17.492   1.087  1.00  0.00     0.058 C 
BRANCH  26  27
HETATM   27  C   UNL     1      42.065 -16.593   1.256  1.00  0.00    -0.057 A 
HETATM   28  C   UNL     1      42.125 -15.254   0.853  1.00  0.00     0.010 A 
HETATM   29  C   UNL     1      41.019 -14.418   1.022  1.00  0.00     0.037 A 
HETATM   30  C   UNL     1      39.841 -14.899   1.596  1.00  0.00     0.068 A 
HETATM   31  C   UNL     1      39.780 -16.230   2.009  1.00  0.00     0.037 A 
HETATM   32  C   UNL     1      40.887 -17.071   1.841  1.00  0.00     0.010 A 
BRANCH  30  33
HETATM   33  O   UNL     1      38.837 -13.976   1.698  1.00  0.00    -0.356 OA
HETATM   34  C   UNL     1      37.698 -14.172   0.869  1.00  0.00     0.210 C 
ENDBRANCH  30  33
ENDBRANCH  26  27
ENDBRANCH  25  26
ENDBRANCH  22  25
ENDBRANCH  20  21
ENDBRANCH  19  20
ENDBRANCH   1  19
TORSDOF 10
ENDMDL
MODEL 5
REMARK VINA RESULT:      -8.1      2.865      4.161
REMARK  10 active torsions:
REMARK  status: ('A' for Active; 'I' for Inactive)
REMARK    1  A    between atoms: C_3  and  N_4 
REMARK       I    between atoms: N_4  and  C_5 
REMARK    2  A    between atoms: C_5  and  C_6 
REMARK    3  A    between atoms: C_13  and  C_14 
REMARK    4  A    between atoms: C_14  and  O_15 
REMARK    5  A    between atoms: O_15  and  C_16 
REMARK    6  A    between atoms: C_16  and  C_17 
REMARK       I    between atoms: C_17  and  N_18 
REMARK    7  A    between atoms: N_18  and  C_19 
REMARK    8  A    between atoms: C_19  and  C_20 
REMARK    9  A    between atoms: C_20  and  C_21 
REMARK   10  A    between atoms: C_24  and  O_25 
ROOT
HETATM    1  C   UNL     1      38.310 -13.607   0.771  1.00  0.00     0.293 C 
HETATM    2  O   UNL     1      37.309 -14.307   0.711  1.00  0.00    -0.259 OA
ENDROOT
BRANCH   1   3
HETATM    3  C   UNL     1      38.868 -13.074   2.036  1.00  0.00     0.041 A 
HETATM    4  C   UNL     1      39.844 -13.770   2.760  1.00  0.00     0.047 A 
HETATM    5  C   UNL     1      40.349 -13.262   3.965  1.00  0.00     0.042 A 
HETATM    6  C   UNL     1      39.861 -12.025   4.443  1.00  0.00    -0.035 A 
HETATM    7  C   UNL     1      40.310 -11.404   5.741  1.00  0.00     0.050 C 
HETATM    8  C   UNL     1      38.882 -11.335   3.704  1.00  0.00     0.010 A 
HETATM    9  C   UNL     1      38.397 -11.847   2.503  1.00  0.00     0.018 A 
BRANCH   5  10
HETATM   10  N   UNL     1      41.317 -13.961   4.719  1.00  0.00    -0.321 N 
HETATM   11  C   UNL     1      41.125 -15.019   5.593  1.00  0.00     0.279 C 
HETATM   12  O   UNL     1      40.050 -15.562   5.825  1.00  0.00    -0.265 OA
HETATM   13  H   UNL     1      42.290 -13.711   4.590  1.00  0.00     0.169 HD
BRANCH  11  14
HETATM   14  C   UNL     1      42.358 -15.470   6.211  1.00  0.00     0.142 A 
HETATM   15  O   UNL     1      42.325 -16.494   7.124  1.00  0.00    -0.317 OA
HETATM   16  C   UNL     1      43.604 -16.712   7.524  1.00  0.00     0.143 A 
HETATM   17  C   UNL     1      44.463 -15.842   6.897  1.00  0.00     0.027 A 
HETATM   18  C   UNL     1      43.662 -15.042   6.051  1.00  0.00     0.045 A 
ENDBRANCH  11  14
ENDBRANCH   5  10
ENDBRANCH   1   3
BRANCH   1  19
HETATM   19  O   UNL     1      39.088 -13.247  -0.276  1.00  0.00    -0.308 OA
BRANCH  19  20
HETATM   20  C   UNL     1      39.669 -14.321  -1.017  1.00  0.00     0.281 C 
BRANCH  20  21
HETATM   21  C   UNL     1      40.908 -14.934  -0.361  1.00  0.00     0.241 C 
HETATM   22  N   UNL     1      40.715 -16.201   0.150  1.00  0.00    -0.359 N 
HETATM   23  H   UNL     1      39.862 -16.690  -0.123  1.00  0.00     0.162 HD
HETATM   24  O   UNL     1      41.973 -14.329  -0.274  1.00  0.00    -0.271 OA
BRANCH  22  25
HETATM   25  C   UNL     1      41.815 -16.954   0.717  1.00  0.00     0.127 C 
BRANCH  25  26
HETATM   26  C   UNL     1      41.601 -17.239   2.203  1.00  0.00     0.058 C 
BRANCH  26  27
HETATM   27  C   UNL     1      42.597 -18.239   2.735  1.00  0.00    -0.057 A 
HETATM   28  C   UNL     1      43.044 -18.153   4.058  1.00  0.00     0.010 A 
HETATM   29  C   UNL     1      43.977 -19.070   4.547  1.00  0.00     0.037 A 
HETATM   30  C   UNL     1      44.480 -20.082   3.727  1.00  0.00     0.068 A 
HETATM   31  C   UNL     1      44.046 -20.165   2.404  1.00  0.00     0.037 A 
HETATM   32  C   UNL     1      43.110 -19.247   1.911  1.00  0.00     0.010 A 
BRANCH  30  33
HETATM   33  O   UNL     1      45.382 -20.912   4.334  1.00  0.00    -0.356 OA
HETATM   34  C   UNL     1      44.852 -22.009   5.068  1.00  0.00     0.210 C 
ENDBRANCH  30  33
ENDBRANCH  26  27
ENDBRANCH  25  26
ENDBRANCH  22  25
ENDBRANCH  20  21
ENDBRANCH  19  20
ENDBRANCH   1  19
TORSDOF 10
ENDMDL
MODEL 6
REMARK VINA RESULT:      -8.1      2.592      3.526
REMARK  10 active torsions:
REMARK  status: ('A' for Active; 'I' for Inactive)
REMARK    1  A    between atoms: C_3  and  N_4 
REMARK       I    between atoms: N_4  and  C_5 
REMARK    2  A    between atoms: C_5  and  C_6 
REMARK    3  A    between atoms: C_13  and  C_14 
REMARK    4  A    between atoms: C_14  and  O_15 
REMARK    5  A    between atoms: O_15  and  C_16 
REMARK    6  A    between atoms: C_16  and  C_17 
REMARK       I    between atoms: C_17  and  N_18 
REMARK    7  A    between atoms: N_18  and  C_19 
REMARK    8  A    between atoms: C_19  and  C_20 
REMARK    9  A    between atoms: C_20  and  C_21 
REMARK   10  A    between atoms: C_24  and  O_25 
ROOT
HETATM    1  C   UNL     1      41.806 -12.195   0.436  1.00  0.00     0.293 C 
HETATM    2  O   UNL     1      42.777 -11.712  -0.130  1.00  0.00    -0.259 OA
ENDROOT
BRANCH   1   3
HETATM    3  C   UNL     1      41.587 -12.126   1.900  1.00  0.00     0.041 A 
HETATM    4  C   UNL     1      41.976 -13.168   2.753  1.00  0.00     0.047 A 
HETATM    5  C   UNL     1      41.745 -13.095   4.133  1.00  0.00     0.042 A 
HETATM    6  C   UNL     1      41.112 -11.947   4.662  1.00  0.00    -0.035 A 
HETATM    7  C   UNL     1      40.786 -11.781   6.124  1.00  0.00     0.050 C 
HETATM    8  C   UNL     1      40.728 -10.908   3.794  1.00  0.00     0.010 A 
HETATM    9  C   UNL     1      40.974 -10.988   2.425  1.00  0.00     0.018 A 
BRANCH   5  10
HETATM   10  N   UNL     1      42.111 -14.145   5.004  1.00  0.00    -0.321 N 
HETATM   11  C   UNL     1      43.337 -14.370   5.610  1.00  0.00     0.279 C 
HETATM   12  O   UNL     1      44.319 -13.641   5.517  1.00  0.00    -0.265 OA
HETATM   13  H   UNL     1      41.395 -14.808   5.275  1.00  0.00     0.169 HD
BRANCH  11  14
HETATM   14  C   UNL     1      43.350 -15.570   6.425  1.00  0.00     0.142 A 
HETATM   15  O   UNL     1      42.173 -16.226   6.686  1.00  0.00    -0.317 OA
HETATM   16  C   UNL     1      42.480 -17.305   7.451  1.00  0.00     0.143 A 
HETATM   17  C   UNL     1      43.831 -17.355   7.700  1.00  0.00     0.027 A 
HETATM   18  C   UNL     1      44.392 -16.238   7.040  1.00  0.00     0.045 A 
ENDBRANCH  11  14
ENDBRANCH   5  10
ENDBRANCH   1   3
BRANCH   1  19
HETATM   19  O   UNL     1      40.768 -12.819  -0.167  1.00  0.00    -0.308 OA
BRANCH  19  20
HETATM   20  C   UNL     1      41.068 -14.073  -0.781  1.00  0.00     0.281 C 
BRANCH  20  21
HETATM   21  C   UNL     1      41.028 -15.264   0.178  1.00  0.00     0.241 C 
HETATM   22  N   UNL     1      42.135 -16.084   0.115  1.00  0.00    -0.359 N 
HETATM   23  H   UNL     1      42.948 -15.734  -0.391  1.00  0.00     0.162 HD
HETATM   24  O   UNL     1      40.072 -15.481   0.918  1.00  0.00    -0.271 OA
BRANCH  22  25
HETATM   25  C   UNL     1      42.291 -17.200   1.026  1.00  0.00     0.127 C 
BRANCH  25  26
HETATM   26  C   UNL     1      43.724 -17.731   1.033  1.00  0.00     0.058 C 
BRANCH  26  27
HETATM   27  C   UNL     1      43.970 -18.679   2.179  1.00  0.00    -0.057 A 
HETATM   28  C   UNL     1      43.990 -18.205   3.495  1.00  0.00     0.010 A 
HETATM   29  C   UNL     1      44.232 -19.082   4.556  1.00  0.00     0.037 A 
HETATM   30  C   UNL     1      44.461 -20.439   4.322  1.00  0.00     0.068 A 
HETATM   31  C   UNL     1      44.452 -20.914   3.011  1.00  0.00     0.037 A 
HETATM   32  C   UNL     1      44.210 -20.039   1.946  1.00  0.00     0.010 A 
BRANCH  30  33
HETATM   33  O   UNL     1      44.679 -21.183   5.449  1.00  0.00    -0.356 OA
HETATM   34  C   UNL     1      43.836 -20.922   6.564  1.00  0.00     0.210 C 
ENDBRANCH  30  33
ENDBRANCH  26  27
ENDBRANCH  25  26
ENDBRANCH  22  25
ENDBRANCH  20  21
ENDBRANCH  19  20
ENDBRANCH   1  19
TORSDOF 10
ENDMDL
MODEL 7
REMARK VINA RESULT:      -8.1      2.768      3.320
REMARK  10 active torsions:
REMARK  status: ('A' for Active; 'I' for Inactive)
REMARK    1  A    between atoms: C_3  and  N_4 
REMARK       I    between atoms: N_4  and  C_5 
REMARK    2  A    between atoms: C_5  and  C_6 
REMARK    3  A    between atoms: C_13  and  C_14 
REMARK    4  A    between atoms: C_14  and  O_15 
REMARK    5  A    between atoms: O_15  and  C_16 
REMARK    6  A    between atoms: C_16  and  C_17 
REMARK       I    between atoms: C_17  and  N_18 
REMARK    7  A    between atoms: N_18  and  C_19 
REMARK    8  A    between atoms: C_19  and  C_20 
REMARK    9  A    between atoms: C_20  and  C_21 
REMARK   10  A    between atoms: C_24  and  O_25 
ROOT
HETATM    1  C   UNL     1      41.784 -12.591   1.630  1.00  0.00     0.293 C 
HETATM    2  O   UNL     1      42.492 -12.107   0.758  1.00  0.00    -0.259 OA
ENDROOT
BRANCH   1   3
HETATM    3  C   UNL     1      42.289 -13.030   2.952  1.00  0.00     0.041 A 
HETATM    4  C   UNL     1      41.815 -12.469   4.144  1.00  0.00     0.047 A 
HETATM    5  C   UNL     1      42.315 -12.882   5.386  1.00  0.00     0.042 A 
HETATM    6  C   UNL     1      43.310 -13.885   5.424  1.00  0.00    -0.035 A 
HETATM    7  C   UNL     1      43.941 -14.378   6.700  1.00  0.00     0.050 C 
HETATM    8  C   UNL     1      43.777 -14.441   4.218  1.00  0.00     0.010 A 
HETATM    9  C   UNL     1      43.262 -14.029   2.991  1.00  0.00     0.018 A 
BRANCH   5  10
HETATM   10  N   UNL     1      41.864 -12.311   6.597  1.00  0.00    -0.321 N 
HETATM   11  C   UNL     1      41.576 -10.982   6.864  1.00  0.00     0.279 C 
HETATM   12  O   UNL     1      41.628 -10.067   6.050  1.00  0.00    -0.265 OA
HETATM   13  H   UNL     1      41.672 -12.934   7.372  1.00  0.00     0.169 HD
BRANCH  11  14
HETATM   14  C   UNL     1      41.157 -10.762   8.237  1.00  0.00     0.142 A 
HETATM   15  O   UNL     1      39.865 -11.042   8.605  1.00  0.00    -0.317 OA
HETATM   16  C   UNL     1      39.758 -10.757   9.929  1.00  0.00     0.143 A 
HETATM   17  C   UNL     1      40.952 -10.288  10.421  1.00  0.00     0.027 A 
HETATM   18  C   UNL     1      41.854 -10.290   9.333  1.00  0.00     0.045 A 
ENDBRANCH  11  14
ENDBRANCH   5  10
ENDBRANCH   1   3
BRANCH   1  19
HETATM   19  O   UNL     1      40.444 -12.760   1.557  1.00  0.00    -0.308 OA
BRANCH  19  20
HETATM   20  C   UNL     1      39.993 -13.765   0.648  1.00  0.00     0.281 C 
BRANCH  20  21
HETATM   21  C   UNL     1      39.918 -15.168   1.253  1.00  0.00     0.241 C 
HETATM   22  N   UNL     1      40.808 -16.071   0.709  1.00  0.00    -0.359 N 
HETATM   23  H   UNL     1      41.553 -15.697   0.121  1.00  0.00     0.162 HD
HETATM   24  O   UNL     1      39.110 -15.464   2.129  1.00  0.00    -0.271 OA
BRANCH  22  25
HETATM   25  C   UNL     1      40.927 -17.414   1.239  1.00  0.00     0.127 C 
BRANCH  25  26
HETATM   26  C   UNL     1      42.358 -17.728   1.674  1.00  0.00     0.058 C 
BRANCH  26  27
HETATM   27  C   UNL     1      42.499 -17.757   3.175  1.00  0.00    -0.057 A 
HETATM   28  C   UNL     1      41.431 -17.371   3.992  1.00  0.00     0.010 A 
HETATM   29  C   UNL     1      41.567 -17.385   5.382  1.00  0.00     0.037 A 
HETATM   30  C   UNL     1      42.766 -17.778   5.978  1.00  0.00     0.068 A 
HETATM   31  C   UNL     1      43.838 -18.153   5.168  1.00  0.00     0.037 A 
HETATM   32  C   UNL     1      43.705 -18.141   3.774  1.00  0.00     0.010 A 
BRANCH  30  33
HETATM   33  O   UNL     1      42.761 -17.749   7.345  1.00  0.00    -0.356 OA
HETATM   34  C   UNL     1      43.889 -18.310   8.005  1.00  0.00     0.210 C 
ENDBRANCH  30  33
ENDBRANCH  26  27
ENDBRANCH  25  26
ENDBRANCH  22  25
ENDBRANCH  20  21
ENDBRANCH  19  20
ENDBRANCH   1  19
TORSDOF 10
ENDMDL
MODEL 8
REMARK VINA RESULT:      -8.0      3.074      9.705
REMARK  10 active torsions:
REMARK  status: ('A' for Active; 'I' for Inactive)
REMARK    1  A    between atoms: C_3  and  N_4 
REMARK       I    between atoms: N_4  and  C_5 
REMARK    2  A    between atoms: C_5  and  C_6 
REMARK    3  A    between atoms: C_13  and  C_14 
REMARK    4  A    between atoms: C_14  and  O_15 
REMARK    5  A    between atoms: O_15  and  C_16 
REMARK    6  A    between atoms: C_16  and  C_17 
REMARK       I    between atoms: C_17  and  N_18 
REMARK    7  A    between atoms: N_18  and  C_19 
REMARK    8  A    between atoms: C_19  and  C_20 
REMARK    9  A    between atoms: C_20  and  C_21 
REMARK   10  A    between atoms: C_24  and  O_25 
ROOT
HETATM    1  C   UNL     1      40.758 -14.185   4.594  1.00  0.00     0.293 C 
HETATM    2  O   UNL     1      39.939 -14.516   3.747  1.00  0.00    -0.259 OA
ENDROOT
BRANCH   1   3
HETATM    3  C   UNL     1      41.852 -15.063   5.070  1.00  0.00     0.041 A 
HETATM    4  C   UNL     1      42.132 -16.290   4.455  1.00  0.00     0.047 A 
HETATM    5  C   UNL     1      43.159 -17.118   4.929  1.00  0.00     0.042 A 
HETATM    6  C   UNL     1      43.918 -16.696   6.044  1.00  0.00    -0.035 A 
HETATM    7  C   UNL     1      45.020 -17.523   6.655  1.00  0.00     0.050 C 
HETATM    8  C   UNL     1      43.626 -15.461   6.652  1.00  0.00     0.010 A 
HETATM    9  C   UNL     1      42.610 -14.643   6.163  1.00  0.00     0.018 A 
BRANCH   5  10
HETATM   10  N   UNL     1      43.440 -18.367   4.333  1.00  0.00    -0.321 N 
HETATM   11  C   UNL     1      43.931 -18.621   3.062  1.00  0.00     0.279 C 
HETATM   12  O   UNL     1      44.250 -17.769   2.241  1.00  0.00    -0.265 OA
HETATM   13  H   UNL     1      43.323 -19.199   4.899  1.00  0.00     0.169 HD
BRANCH  11  14
HETATM   14  C   UNL     1      44.073 -20.039   2.787  1.00  0.00     0.142 A 
HETATM   15  O   UNL     1      43.590 -20.554   1.610  1.00  0.00    -0.317 OA
HETATM   16  C   UNL     1      43.867 -21.883   1.615  1.00  0.00     0.143 A 
HETATM   17  C   UNL     1      44.509 -22.241   2.776  1.00  0.00     0.027 A 
HETATM   18  C   UNL     1      44.642 -21.055   3.532  1.00  0.00     0.045 A 
ENDBRANCH  11  14
ENDBRANCH   5  10
ENDBRANCH   1   3
BRANCH   1  19
HETATM   19  O   UNL     1      40.833 -12.973   5.189  1.00  0.00    -0.308 OA
BRANCH  19  20
HETATM   20  C   UNL     1      39.596 -12.427   5.648  1.00  0.00     0.281 C 
BRANCH  20  21
HETATM   21  C   UNL     1      39.750 -11.313   6.684  1.00  0.00     0.241 C 
HETATM   22  N   UNL     1      40.752 -11.528   7.607  1.00  0.00    -0.359 N 
HETATM   23  H   UNL     1      41.417 -12.275   7.410  1.00  0.00     0.162 HD
HETATM   24  O   UNL     1      39.017 -10.327   6.704  1.00  0.00    -0.271 OA
BRANCH  22  25
HETATM   25  C   UNL     1      41.086 -10.522   8.595  1.00  0.00     0.127 C 
BRANCH  25  26
HETATM   26  C   UNL     1      42.491 -10.725   9.159  1.00  0.00     0.058 C 
BRANCH  26  27
HETATM   27  C   UNL     1      42.515 -10.636  10.664  1.00  0.00    -0.057 A 
HETATM   28  C   UNL     1      41.438 -11.118  11.416  1.00  0.00     0.010 A 
HETATM   29  C   UNL     1      41.454 -11.022  12.810  1.00  0.00     0.037 A 
HETATM   30  C   UNL     1      42.537 -10.443  13.473  1.00  0.00     0.068 A 
HETATM   31  C   UNL     1      43.608  -9.951  12.727  1.00  0.00     0.037 A 
HETATM   32  C   UNL     1      43.595 -10.046  11.330  1.00  0.00     0.010 A 
BRANCH  30  33
HETATM   33  O   UNL     1      42.424 -10.417  14.836  1.00  0.00    -0.356 OA
HETATM   34  C   UNL     1      42.208  -9.147  15.439  1.00  0.00     0.210 C 
ENDBRANCH  30  33
ENDBRANCH  26  27
ENDBRANCH  25  26
ENDBRANCH  22  25
ENDBRANCH  20  21
ENDBRANCH  19  20
ENDBRANCH   1  19
TORSDOF 10
ENDMDL
MODEL 9
REMARK VINA RESULT:      -7.8      3.457      5.432
REMARK  10 active torsions:
REMARK  status: ('A' for Active; 'I' for Inactive)
REMARK    1  A    between atoms: C_3  and  N_4 
REMARK       I    between atoms: N_4  and  C_5 
REMARK    2  A    between atoms: C_5  and  C_6 
REMARK    3  A    between atoms: C_13  and  C_14 
REMARK    4  A    between atoms: C_14  and  O_15 
REMARK    5  A    between atoms: O_15  and  C_16 
REMARK    6  A    between atoms: C_16  and  C_17 
REMARK       I    between atoms: C_17  and  N_18 
REMARK    7  A    between atoms: N_18  and  C_19 
REMARK    8  A    between atoms: C_19  and  C_20 
REMARK    9  A    between atoms: C_20  and  C_21 
REMARK   10  A    between atoms: C_24  and  O_25 
ROOT
HETATM    1  C   UNL     1      45.300 -12.898   7.913  1.00  0.00     0.293 C 
HETATM    2  O   UNL     1      46.422 -12.768   7.442  1.00  0.00    -0.259 OA
ENDROOT
BRANCH   1   3
HETATM    3  C   UNL     1      44.785 -12.097   9.048  1.00  0.00     0.041 A 
HETATM    4  C   UNL     1      43.619 -11.328   8.937  1.00  0.00     0.047 A 
HETATM    5  C   UNL     1      43.155 -10.561  10.014  1.00  0.00     0.042 A 
HETATM    6  C   UNL     1      43.880 -10.575  11.227  1.00  0.00    -0.035 A 
HETATM    7  C   UNL     1      43.490  -9.763  12.435  1.00  0.00     0.050 C 
HETATM    8  C   UNL     1      45.049 -11.353  11.325  1.00  0.00     0.010 A 
HETATM    9  C   UNL     1      45.493 -12.119  10.250  1.00  0.00     0.018 A 
BRANCH   5  10
HETATM   10  N   UNL     1      41.994  -9.764   9.913  1.00  0.00    -0.321 N 
HETATM   11  C   UNL     1      40.688 -10.104  10.229  1.00  0.00     0.279 C 
HETATM   12  O   UNL     1      40.329 -11.175  10.706  1.00  0.00    -0.265 OA
HETATM   13  H   UNL     1      42.105  -8.801   9.618  1.00  0.00     0.169 HD
BRANCH  11  14
HETATM   14  C   UNL     1      39.748  -9.028   9.970  1.00  0.00     0.142 A 
HETATM   15  O   UNL     1      39.069  -8.455  11.016  1.00  0.00    -0.317 OA
HETATM   16  C   UNL     1      38.279  -7.483  10.492  1.00  0.00     0.143 A 
HETATM   17  C   UNL     1      38.425  -7.424   9.126  1.00  0.00     0.027 A 
HETATM   18  C   UNL     1      39.370  -8.419   8.789  1.00  0.00     0.045 A 
ENDBRANCH  11  14
ENDBRANCH   5  10
ENDBRANCH   1   3
BRANCH   1  19
HETATM   19  O   UNL     1      44.345 -13.741   7.459  1.00  0.00    -0.308 OA
BRANCH  19  20
HETATM   20  C   UNL     1      44.506 -14.198   6.115  1.00  0.00     0.281 C 
BRANCH  20  21
HETATM   21  C   UNL     1      43.377 -15.106   5.624  1.00  0.00     0.241 C 
HETATM   22  N   UNL     1      43.376 -15.328   4.263  1.00  0.00    -0.359 N 
HETATM   23  H   UNL     1      44.209 -15.053   3.743  1.00  0.00     0.162 HD
HETATM   24  O   UNL     1      42.530 -15.571   6.383  1.00  0.00    -0.271 OA
BRANCH  22  25
HETATM   25  C   UNL     1      42.429 -16.241   3.656  1.00  0.00     0.127 C 
BRANCH  25  26
HETATM   26  C   UNL     1      43.019 -16.939   2.431  1.00  0.00     0.058 C 
BRANCH  26  27
HETATM   27  C   UNL     1      43.487 -18.337   2.747  1.00  0.00    -0.057 A 
HETATM   28  C   UNL     1      44.020 -18.635   4.006  1.00  0.00     0.010 A 
HETATM   29  C   UNL     1      44.466 -19.927   4.294  1.00  0.00     0.037 A 
HETATM   30  C   UNL     1      44.392 -20.938   3.334  1.00  0.00     0.068 A 
HETATM   31  C   UNL     1      43.871 -20.644   2.075  1.00  0.00     0.037 A 
HETATM   32  C   UNL     1      43.423 -19.349   1.783  1.00  0.00     0.010 A 
BRANCH  30  33
HETATM   33  O   UNL     1      44.858 -22.155   3.750  1.00  0.00    -0.356 OA
HETATM   34  C   UNL     1      45.047 -22.326   5.149  1.00  0.00     0.210 C 
ENDBRANCH  30  33
ENDBRANCH  26  27
ENDBRANCH  25  26
ENDBRANCH  22  25
ENDBRANCH  20  21
ENDBRANCH  19  20
ENDBRANCH   1  19
TORSDOF 10
ENDMDL
MODEL 10
REMARK VINA RESULT:      -7.7      3.843      6.668
REMARK  10 active torsions:
REMARK  status: ('A' for Active; 'I' for Inactive)
REMARK    1  A    between atoms: C_3  and  N_4 
REMARK       I    between atoms: N_4  and  C_5 
REMARK    2  A    between atoms: C_5  and  C_6 
REMARK    3  A    between atoms: C_13  and  C_14 
REMARK    4  A    between atoms: C_14  and  O_15 
REMARK    5  A    between atoms: O_15  and  C_16 
REMARK    6  A    between atoms: C_16  and  C_17 
REMARK       I    between atoms: C_17  and  N_18 
REMARK    7  A    between atoms: N_18  and  C_19 
REMARK    8  A    between atoms: C_19  and  C_20 
REMARK    9  A    between atoms: C_20  and  C_21 
REMARK   10  A    between atoms: C_24  and  O_25 
ROOT
HETATM    1  C   UNL     1      44.887 -12.160   9.691  1.00  0.00     0.293 C 
HETATM    2  O   UNL     1      45.508 -12.912  10.431  1.00  0.00    -0.259 OA
ENDROOT
BRANCH   1   3
HETATM    3  C   UNL     1      43.914 -11.150  10.170  1.00  0.00     0.041 A 
HETATM    4  C   UNL     1      42.908 -10.645   9.338  1.00  0.00     0.047 A 
HETATM    5  C   UNL     1      42.006  -9.676   9.800  1.00  0.00     0.042 A 
HETATM    6  C   UNL     1      42.123  -9.213  11.130  1.00  0.00    -0.035 A 
HETATM    7  C   UNL     1      41.230  -8.151  11.718  1.00  0.00     0.050 C 
HETATM    8  C   UNL     1      43.138  -9.730  11.956  1.00  0.00     0.010 A 
HETATM    9  C   UNL     1      44.020 -10.701  11.487  1.00  0.00     0.018 A 
BRANCH   5  10
HETATM   10  N   UNL     1      40.999  -9.141   8.968  1.00  0.00    -0.321 N 
HETATM   11  C   UNL     1      39.788  -9.711   8.609  1.00  0.00     0.279 C 
HETATM   12  O   UNL     1      39.367 -10.791   9.007  1.00  0.00    -0.265 OA
HETATM   13  H   UNL     1      41.130  -8.202   8.610  1.00  0.00     0.169 HD
BRANCH  11  14
HETATM   14  C   UNL     1      39.015  -8.872   7.711  1.00  0.00     0.142 A 
HETATM   15  O   UNL     1      38.718  -9.322   6.450  1.00  0.00    -0.317 OA
HETATM   16  C   UNL     1      37.986  -8.351   5.844  1.00  0.00     0.143 A 
HETATM   17  C   UNL     1      37.813  -7.278   6.685  1.00  0.00     0.027 A 
HETATM   18  C   UNL     1      38.476  -7.612   7.888  1.00  0.00     0.045 A 
ENDBRANCH  11  14
ENDBRANCH   5  10
ENDBRANCH   1   3
BRANCH   1  19
HETATM   19  O   UNL     1      45.014 -12.091   8.347  1.00  0.00    -0.308 OA
BRANCH  19  20
HETATM   20  C   UNL     1      45.410 -13.300   7.697  1.00  0.00     0.281 C 
BRANCH  20  21
HETATM   21  C   UNL     1      44.271 -14.025   6.978  1.00  0.00     0.241 C 
HETATM   22  N   UNL     1      44.392 -15.399   6.961  1.00  0.00    -0.359 N 
HETATM   23  H   UNL     1      45.087 -15.815   7.580  1.00  0.00     0.162 HD
HETATM   24  O   UNL     1      43.346 -13.424   6.438  1.00  0.00    -0.271 OA
BRANCH  22  25
HETATM   25  C   UNL     1      43.347 -16.234   6.403  1.00  0.00     0.127 C 
BRANCH  25  26
HETATM   26  C   UNL     1      43.468 -16.355   4.885  1.00  0.00     0.058 C 
BRANCH  26  27
HETATM   27  C   UNL     1      43.805 -17.760   4.454  1.00  0.00    -0.057 A 
HETATM   28  C   UNL     1      43.656 -18.143   3.117  1.00  0.00     0.010 A 
HETATM   29  C   UNL     1      43.956 -19.449   2.721  1.00  0.00     0.037 A 
HETATM   30  C   UNL     1      44.402 -20.391   3.649  1.00  0.00     0.068 A 
HETATM   31  C   UNL     1      44.542 -20.017   4.986  1.00  0.00     0.037 A 
HETATM   32  C   UNL     1      44.243 -18.709   5.386  1.00  0.00     0.010 A 
BRANCH  30  33
HETATM   33  O   UNL     1      44.662 -21.628   3.126  1.00  0.00    -0.356 OA
HETATM   34  C   UNL     1      44.159 -21.893   1.823  1.00  0.00     0.210 C 
ENDBRANCH  30  33
ENDBRANCH  26  27
ENDBRANCH  25  26
ENDBRANCH  22  25
ENDBRANCH  20  21
ENDBRANCH  19  20
ENDBRANCH   1  19
TORSDOF 10
ENDMDL
