MODEL 1
REMARK VINA RESULT:      -8.3      0.000      0.000
REMARK  7 active torsions:
REMARK  status: ('A' for Active; 'I' for Inactive)
REMARK       I    between atoms: C_2  and  N_3 
REMARK    1  A    between atoms: N_3  and  C_4 
REMARK    2  A    between atoms: C_7  and  N_8 
REMARK       I    between atoms: N_8  and  C_9 
REMARK    3  A    between atoms: C_9  and  C_10 
REMARK    4  A    between atoms: C_11  and  C_12 
REMARK    5  A    between atoms: C_13  and  O_14 
REMARK    6  A    between atoms: N_20  and  C_21 
REMARK    7  A    between atoms: C_24  and  O_25 
ROOT
HETATM    1  C   UNL     1      41.226 -15.924   3.231  1.00  0.00     0.106 C 
HETATM    2  C   UNL     1      42.349 -16.683   3.964  1.00  0.00     0.142 C 
HETATM    3  N   UNL     1      43.239 -17.323   2.957  1.00  0.00    -0.308 N 
HETATM    4  C   UNL     1      43.749 -16.581   1.887  1.00  0.00     0.225 C 
HETATM    5  O   UNL     1      44.774 -16.841   1.256  1.00  0.00    -0.273 OA
HETATM    6  C   UNL     1      42.827 -15.500   1.335  1.00  0.00     0.104 C 
HETATM    7  C   UNL     1      41.793 -14.895   2.266  1.00  0.00     0.026 C 
ENDROOT
BRANCH   1   8
HETATM    8  C   UNL     1      40.208 -15.258   4.136  1.00  0.00     0.228 C 
HETATM    9  N   UNL     1      39.353 -14.286   3.711  1.00  0.00    -0.327 N 
HETATM   10  H   UNL     1      38.760 -14.026   4.494  1.00  0.00     0.169 HD
HETATM   11  O   UNL     1      40.148 -15.519   5.342  1.00  0.00    -0.273 OA
BRANCH   9  12
HETATM   12  C   UNL     1      39.038 -13.662   2.493  1.00  0.00     0.034 A 
HETATM   13  C   UNL     1      39.332 -12.354   2.123  1.00  0.00     0.032 A 
HETATM   14  C   UNL     1      39.051 -11.890   0.826  1.00  0.00     0.032 A 
HETATM   15  C   UNL     1      38.440 -12.715  -0.116  1.00  0.00     0.034 A 
HETATM   16  C   UNL     1      38.065 -14.000   0.276  1.00  0.00     0.032 A 
HETATM   17  C   UNL     1      38.361 -14.465   1.563  1.00  0.00     0.032 A 
BRANCH  15  18
HETATM   18  N   UNL     1      38.181 -12.345  -1.450  1.00  0.00    -0.328 N 
HETATM   19  C   UNL     1      39.068 -12.357  -2.511  1.00  0.00     0.218 C 
HETATM   20  C   UNL     1      38.417 -11.971  -3.818  1.00  0.00     0.117 C 
HETATM   21  O   UNL     1      40.252 -12.675  -2.476  1.00  0.00    -0.274 OA
HETATM   22  H   UNL     1      37.220 -12.105  -1.663  1.00  0.00     0.169 HD
ENDBRANCH  15  18
ENDBRANCH   9  12
ENDBRANCH   1   8
BRANCH   2  23
HETATM   23  C   UNL     1      43.168 -15.930   5.028  1.00  0.00    -0.001 A 
HETATM   24  C   UNL     1      43.357 -16.490   6.316  1.00  0.00     0.076 A 
HETATM   25  C   UNL     1      44.049 -15.772   7.302  1.00  0.00     0.037 A 
HETATM   26  C   UNL     1      44.579 -14.513   7.027  1.00  0.00     0.003 A 
HETATM   27  C   UNL     1      44.434 -13.966   5.759  1.00  0.00     0.001 A 
HETATM   28  C   UNL     1      43.743 -14.670   4.771  1.00  0.00     0.012 A 
BRANCH  24  29
HETATM   29  O   UNL     1      42.815 -17.734   6.530  1.00  0.00    -0.355 OA
HETATM   30  C   UNL     1      43.447 -18.565   7.496  1.00  0.00     0.210 C 
ENDBRANCH  24  29
ENDBRANCH   2  23
BRANCH   3  31
HETATM   31  C   UNL     1      43.486 -18.733   3.030  1.00  0.00     0.038 A 
HETATM   32  C   UNL     1      44.291 -19.288   4.029  1.00  0.00     0.032 A 
HETATM   33  C   UNL     1      44.645 -20.644   4.001  1.00  0.00     0.039 A 
HETATM   34  C   UNL     1      44.227 -21.464   2.956  1.00  0.00     0.068 A 
HETATM   35  C   UNL     1      43.395 -20.937   1.973  1.00  0.00     0.039 A 
HETATM   36  C   UNL     1      43.024 -19.585   2.015  1.00  0.00     0.032 A 
BRANCH  34  37
HETATM   37  O   UNL     1      44.681 -22.753   3.001  1.00  0.00    -0.356 OA
HETATM   38  C   UNL     1      44.961 -23.265   4.301  1.00  0.00     0.210 C 
ENDBRANCH  34  37
ENDBRANCH   3  31
TORSDOF 7
ENDMDL
MODEL 2
REMARK VINA RESULT:      -8.2      2.914      9.538
REMARK  7 active torsions:
REMARK  status: ('A' for Active; 'I' for Inactive)
REMARK       I    between atoms: C_2  and  N_3 
REMARK    1  A    between atoms: N_3  and  C_4 
REMARK    2  A    between atoms: C_7  and  N_8 
REMARK       I    between atoms: N_8  and  C_9 
REMARK    3  A    between atoms: C_9  and  C_10 
REMARK    4  A    between atoms: C_11  and  C_12 
REMARK    5  A    between atoms: C_13  and  O_14 
REMARK    6  A    between atoms: N_20  and  C_21 
REMARK    7  A    between atoms: C_24  and  O_25 
ROOT
HETATM    1  C   UNL     1      41.721 -13.905  -0.291  1.00  0.00     0.106 C 
HETATM    2  C   UNL     1      40.737 -12.982  -1.036  1.00  0.00     0.142 C 
HETATM    3  N   UNL     1      40.671 -13.398  -2.465  1.00  0.00    -0.308 N 
HETATM    4  C   UNL     1      40.460 -14.736  -2.805  1.00  0.00     0.225 C 
HETATM    5  O   UNL     1      39.983 -15.141  -3.866  1.00  0.00    -0.273 OA
HETATM    6  C   UNL     1      41.084 -15.763  -1.867  1.00  0.00     0.104 C 
HETATM    7  C   UNL     1      41.315 -15.365  -0.421  1.00  0.00     0.026 C 
ENDROOT
BRANCH   1   8
HETATM    8  C   UNL     1      41.927 -13.569   1.173  1.00  0.00     0.228 C 
HETATM    9  N   UNL     1      42.208 -14.505   2.122  1.00  0.00    -0.327 N 
HETATM   10  H   UNL     1      42.328 -14.026   3.010  1.00  0.00     0.169 HD
HETATM   11  O   UNL     1      41.783 -12.418   1.597  1.00  0.00    -0.273 OA
BRANCH   9  12
HETATM   12  C   UNL     1      42.462 -15.887   2.153  1.00  0.00     0.034 A 
HETATM   13  C   UNL     1      41.578 -16.890   2.533  1.00  0.00     0.032 A 
HETATM   14  C   UNL     1      41.930 -18.246   2.414  1.00  0.00     0.032 A 
HETATM   15  C   UNL     1      43.186 -18.623   1.944  1.00  0.00     0.034 A 
HETATM   16  C   UNL     1      44.107 -17.620   1.642  1.00  0.00     0.032 A 
HETATM   17  C   UNL     1      43.748 -16.272   1.746  1.00  0.00     0.032 A 
BRANCH  15  18
HETATM   18  N   UNL     1      43.592 -19.956   1.739  1.00  0.00    -0.328 N 
HETATM   19  C   UNL     1      44.343 -20.745   2.593  1.00  0.00     0.218 C 
HETATM   20  C   UNL     1      44.518 -22.155   2.080  1.00  0.00     0.117 C 
HETATM   21  O   UNL     1      44.809 -20.416   3.678  1.00  0.00    -0.274 OA
HETATM   22  H   UNL     1      43.239 -20.402   0.901  1.00  0.00     0.169 HD
ENDBRANCH  15  18
ENDBRANCH   9  12
ENDBRANCH   1   8
BRANCH   2  23
HETATM   23  C   UNL     1      39.327 -12.788  -0.449  1.00  0.00    -0.001 A 
HETATM   24  C   UNL     1      38.776 -11.489  -0.321  1.00  0.00     0.076 A 
HETATM   25  C   UNL     1      37.519 -11.312   0.273  1.00  0.00     0.037 A 
HETATM   26  C   UNL     1      36.782 -12.407   0.722  1.00  0.00     0.003 A 
HETATM   27  C   UNL     1      37.291 -13.689   0.570  1.00  0.00     0.001 A 
HETATM   28  C   UNL     1      38.545 -13.877  -0.015  1.00  0.00     0.012 A 
BRANCH  24  29
HETATM   29  O   UNL     1      39.545 -10.448  -0.783  1.00  0.00    -0.355 OA
HETATM   30  C   UNL     1      38.867  -9.349  -1.377  1.00  0.00     0.210 C 
ENDBRANCH  24  29
ENDBRANCH   2  23
BRANCH   3  31
HETATM   31  C   UNL     1      40.931 -12.431  -3.492  1.00  0.00     0.038 A 
HETATM   32  C   UNL     1      42.233 -12.076  -3.855  1.00  0.00     0.032 A 
HETATM   33  C   UNL     1      42.471 -11.026  -4.751  1.00  0.00     0.039 A 
HETATM   34  C   UNL     1      41.413 -10.288  -5.277  1.00  0.00     0.068 A 
HETATM   35  C   UNL     1      40.109 -10.652  -4.955  1.00  0.00     0.039 A 
HETATM   36  C   UNL     1      39.872 -11.718  -4.075  1.00  0.00     0.032 A 
BRANCH  34  37
HETATM   37  O   UNL     1      41.767  -9.250  -6.093  1.00  0.00    -0.356 OA
HETATM   38  C   UNL     1      42.468  -8.181  -5.464  1.00  0.00     0.210 C 
ENDBRANCH  34  37
ENDBRANCH   3  31
TORSDOF 7
ENDMDL
MODEL 3
REMARK VINA RESULT:      -8.1      2.935      8.744
REMARK  7 active torsions:
REMARK  status: ('A' for Active; 'I' for Inactive)
REMARK       I    between atoms: C_2  and  N_3 
REMARK    1  A    between atoms: N_3  and  C_4 
REMARK    2  A    between atoms: C_7  and  N_8 
REMARK       I    between atoms: N_8  and  C_9 
REMARK    3  A    between atoms: C_9  and  C_10 
REMARK    4  A    between atoms: C_11  and  C_12 
REMARK    5  A    between atoms: C_13  and  O_14 
REMARK    6  A    between atoms: N_20  and  C_21 
REMARK    7  A    between atoms: C_24  and  O_25 
ROOT
HETATM    1  C   UNL     1      41.767 -13.338  -0.735  1.00  0.00     0.106 C 
HETATM    2  C   UNL     1      40.489 -12.627  -0.248  1.00  0.00     0.142 C 
HETATM    3  N   UNL     1      40.874 -11.422   0.537  1.00  0.00    -0.308 N 
HETATM    4  C   UNL     1      41.794 -10.504   0.023  1.00  0.00     0.225 C 
HETATM    5  O   UNL     1      41.882  -9.318   0.344  1.00  0.00    -0.273 OA
HETATM    6  C   UNL     1      42.909 -11.095  -0.833  1.00  0.00     0.104 C 
HETATM    7  C   UNL     1      42.641 -12.402  -1.556  1.00  0.00     0.026 C 
ENDROOT
BRANCH   1   8
HETATM    8  C   UNL     1      41.530 -14.617  -1.514  1.00  0.00     0.228 C 
HETATM    9  N   UNL     1      41.561 -15.854  -0.945  1.00  0.00    -0.327 N 
HETATM   10  H   UNL     1      41.345 -16.537  -1.666  1.00  0.00     0.169 HD
HETATM   11  O   UNL     1      41.361 -14.605  -2.737  1.00  0.00    -0.273 OA
BRANCH   9  12
HETATM   12  C   UNL     1      41.707 -16.382   0.349  1.00  0.00     0.034 A 
HETATM   13  C   UNL     1      42.779 -17.126   0.831  1.00  0.00     0.032 A 
HETATM   14  C   UNL     1      42.845 -17.503   2.184  1.00  0.00     0.032 A 
HETATM   15  C   UNL     1      41.824 -17.172   3.073  1.00  0.00     0.034 A 
HETATM   16  C   UNL     1      40.707 -16.501   2.576  1.00  0.00     0.032 A 
HETATM   17  C   UNL     1      40.652 -16.113   1.232  1.00  0.00     0.032 A 
BRANCH  15  18
HETATM   18  N   UNL     1      41.845 -17.459   4.452  1.00  0.00    -0.328 N 
HETATM   19  C   UNL     1      42.503 -16.757   5.445  1.00  0.00     0.218 C 
HETATM   20  C   UNL     1      42.234 -17.310   6.824  1.00  0.00     0.117 C 
HETATM   21  O   UNL     1      43.206 -15.763   5.301  1.00  0.00    -0.274 OA
HETATM   22  H   UNL     1      41.260 -18.230   4.750  1.00  0.00     0.169 HD
ENDBRANCH  15  18
ENDBRANCH   9  12
ENDBRANCH   1   8
BRANCH   2  23
HETATM   23  C   UNL     1      39.400 -12.290  -1.283  1.00  0.00    -0.001 A 
HETATM   24  C   UNL     1      38.224 -13.077  -1.367  1.00  0.00     0.076 A 
HETATM   25  C   UNL     1      37.264 -12.806  -2.353  1.00  0.00     0.037 A 
HETATM   26  C   UNL     1      37.438 -11.750  -3.246  1.00  0.00     0.003 A 
HETATM   27  C   UNL     1      38.566 -10.947  -3.152  1.00  0.00     0.001 A 
HETATM   28  C   UNL     1      39.531 -11.210  -2.178  1.00  0.00     0.012 A 
BRANCH  24  29
HETATM   29  O   UNL     1      38.105 -14.103  -0.462  1.00  0.00    -0.355 OA
HETATM   30  C   UNL     1      37.310 -13.867   0.693  1.00  0.00     0.210 C 
ENDBRANCH  24  29
ENDBRANCH   2  23
BRANCH   3  31
HETATM   31  C   UNL     1      40.374 -11.262   1.871  1.00  0.00     0.038 A 
HETATM   32  C   UNL     1      41.122 -11.647   2.988  1.00  0.00     0.032 A 
HETATM   33  C   UNL     1      40.564 -11.624   4.272  1.00  0.00     0.039 A 
HETATM   34  C   UNL     1      39.237 -11.247   4.463  1.00  0.00     0.068 A 
HETATM   35  C   UNL     1      38.489 -10.826   3.368  1.00  0.00     0.039 A 
HETATM   36  C   UNL     1      39.056 -10.828   2.085  1.00  0.00     0.032 A 
BRANCH  34  37
HETATM   37  O   UNL     1      38.783 -11.320   5.750  1.00  0.00    -0.356 OA
HETATM   38  C   UNL     1      39.472 -12.235   6.598  1.00  0.00     0.210 C 
ENDBRANCH  34  37
ENDBRANCH   3  31
TORSDOF 7
ENDMDL
MODEL 4
REMARK VINA RESULT:      -7.8      2.856      8.739
REMARK  7 active torsions:
REMARK  status: ('A' for Active; 'I' for Inactive)
REMARK       I    between atoms: C_2  and  N_3 
REMARK    1  A    between atoms: N_3  and  C_4 
REMARK    2  A    between atoms: C_7  and  N_8 
REMARK       I    between atoms: N_8  and  C_9 
REMARK    3  A    between atoms: C_9  and  C_10 
REMARK    4  A    between atoms: C_11  and  C_12 
REMARK    5  A    between atoms: C_13  and  O_14 
REMARK    6  A    between atoms: N_20  and  C_21 
REMARK    7  A    between atoms: C_24  and  O_25 
ROOT
HETATM    1  C   UNL     1      41.676 -13.664  -0.877  1.00  0.00     0.106 C 
HETATM    2  C   UNL     1      40.655 -12.725  -0.207  1.00  0.00     0.142 C 
HETATM    3  N   UNL     1      41.374 -11.547   0.352  1.00  0.00    -0.308 N 
HETATM    4  C   UNL     1      42.277 -10.828  -0.435  1.00  0.00     0.225 C 
HETATM    5  O   UNL     1      42.603  -9.652  -0.263  1.00  0.00    -0.273 OA
HETATM    6  C   UNL     1      43.075 -11.648  -1.442  1.00  0.00     0.104 C 
HETATM    7  C   UNL     1      42.467 -12.941  -1.956  1.00  0.00     0.026 C 
ENDROOT
BRANCH   1   8
HETATM    8  C   UNL     1      41.090 -14.938  -1.454  1.00  0.00     0.228 C 
HETATM    9  N   UNL     1      41.034 -16.113  -0.766  1.00  0.00    -0.327 N 
HETATM   10  H   UNL     1      40.574 -16.801  -1.356  1.00  0.00     0.169 HD
HETATM   11  O   UNL     1      40.687 -14.993  -2.620  1.00  0.00    -0.273 OA
BRANCH   9  12
HETATM   12  C   UNL     1      41.346 -16.555   0.530  1.00  0.00     0.034 A 
HETATM   13  C   UNL     1      40.540 -16.467   1.660  1.00  0.00     0.032 A 
HETATM   14  C   UNL     1      40.935 -17.048   2.877  1.00  0.00     0.032 A 
HETATM   15  C   UNL     1      42.161 -17.700   2.997  1.00  0.00     0.034 A 
HETATM   16  C   UNL     1      43.011 -17.717   1.891  1.00  0.00     0.032 A 
HETATM   17  C   UNL     1      42.607 -17.151   0.676  1.00  0.00     0.032 A 
BRANCH  15  18
HETATM   18  N   UNL     1      42.603 -18.358   4.161  1.00  0.00    -0.328 N 
HETATM   19  C   UNL     1      43.208 -17.789   5.268  1.00  0.00     0.218 C 
HETATM   20  C   UNL     1      43.472 -18.791   6.366  1.00  0.00     0.117 C 
HETATM   21  O   UNL     1      43.489 -16.606   5.425  1.00  0.00    -0.274 OA
HETATM   22  H   UNL     1      42.393 -19.347   4.216  1.00  0.00     0.169 HD
ENDBRANCH  15  18
ENDBRANCH   9  12
ENDBRANCH   1   8
BRANCH   2  23
HETATM   23  C   UNL     1      39.421 -12.287  -1.016  1.00  0.00    -0.001 A 
HETATM   24  C   UNL     1      38.120 -12.433  -0.474  1.00  0.00     0.076 A 
HETATM   25  C   UNL     1      36.995 -12.093  -1.240  1.00  0.00     0.037 A 
HETATM   26  C   UNL     1      37.138 -11.586  -2.530  1.00  0.00     0.003 A 
HETATM   27  C   UNL     1      38.407 -11.403  -3.062  1.00  0.00     0.001 A 
HETATM   28  C   UNL     1      39.534 -11.743  -2.311  1.00  0.00     0.012 A 
BRANCH  24  29
HETATM   29  O   UNL     1      38.038 -12.935   0.802  1.00  0.00    -0.355 OA
HETATM   30  C   UNL     1      37.538 -14.257   0.954  1.00  0.00     0.210 C 
ENDBRANCH  24  29
ENDBRANCH   2  23
BRANCH   3  31
HETATM   31  C   UNL     1      41.215 -11.218   1.739  1.00  0.00     0.038 A 
HETATM   32  C   UNL     1      41.647 -12.077   2.753  1.00  0.00     0.032 A 
HETATM   33  C   UNL     1      41.352 -11.813   4.097  1.00  0.00     0.039 A 
HETATM   34  C   UNL     1      40.591 -10.701   4.451  1.00  0.00     0.068 A 
HETATM   35  C   UNL     1      40.184  -9.816   3.458  1.00  0.00     0.039 A 
HETATM   36  C   UNL     1      40.500 -10.070   2.115  1.00  0.00     0.032 A 
BRANCH  34  37
HETATM   37  O   UNL     1      40.315 -10.577   5.784  1.00  0.00    -0.356 OA
HETATM   38  C   UNL     1      41.306 -11.086   6.671  1.00  0.00     0.210 C 
ENDBRANCH  34  37
ENDBRANCH   3  31
TORSDOF 7
ENDMDL
MODEL 5
REMARK VINA RESULT:      -7.7      2.802      8.099
REMARK  7 active torsions:
REMARK  status: ('A' for Active; 'I' for Inactive)
REMARK       I    between atoms: C_2  and  N_3 
REMARK    1  A    between atoms: N_3  and  C_4 
REMARK    2  A    between atoms: C_7  and  N_8 
REMARK       I    between atoms: N_8  and  C_9 
REMARK    3  A    between atoms: C_9  and  C_10 
REMARK    4  A    between atoms: C_11  and  C_12 
REMARK    5  A    between atoms: C_13  and  O_14 
REMARK    6  A    between atoms: N_20  and  C_21 
REMARK    7  A    between atoms: C_24  and  O_25 
ROOT
HETATM    1  C   UNL     1      40.241 -12.316   2.583  1.00  0.00     0.106 C 
HETATM    2  C   UNL     1      40.707 -11.940   1.163  1.00  0.00     0.142 C 
HETATM    3  N   UNL     1      39.600 -12.209   0.203  1.00  0.00    -0.308 N 
HETATM    4  C   UNL     1      38.312 -11.730   0.452  1.00  0.00     0.225 C 
HETATM    5  O   UNL     1      37.447 -11.516  -0.398  1.00  0.00    -0.273 OA
HETATM    6  C   UNL     1      37.894 -11.690   1.918  1.00  0.00     0.104 C 
HETATM    7  C   UNL     1      38.980 -11.558   2.970  1.00  0.00     0.026 C 
ENDROOT
BRANCH   1   8
HETATM    8  C   UNL     1      41.287 -12.138   3.666  1.00  0.00     0.228 C 
HETATM    9  N   UNL     1      42.059 -13.158   4.134  1.00  0.00    -0.327 N 
HETATM   10  H   UNL     1      42.694 -12.777   4.829  1.00  0.00     0.169 HD
HETATM   11  O   UNL     1      41.447 -11.054   4.236  1.00  0.00    -0.273 OA
BRANCH   9  12
HETATM   12  C   UNL     1      42.253 -14.516   3.831  1.00  0.00     0.034 A 
HETATM   13  C   UNL     1      41.564 -15.598   4.365  1.00  0.00     0.032 A 
HETATM   14  C   UNL     1      41.788 -16.903   3.892  1.00  0.00     0.032 A 
HETATM   15  C   UNL     1      42.732 -17.154   2.898  1.00  0.00     0.034 A 
HETATM   16  C   UNL     1      43.487 -16.084   2.419  1.00  0.00     0.032 A 
HETATM   17  C   UNL     1      43.250 -14.784   2.880  1.00  0.00     0.032 A 
BRANCH  15  18
HETATM   18  N   UNL     1      42.971 -18.420   2.330  1.00  0.00    -0.328 N 
HETATM   19  C   UNL     1      43.759 -19.435   2.843  1.00  0.00     0.218 C 
HETATM   20  C   UNL     1      43.718 -20.687   2.000  1.00  0.00     0.117 C 
HETATM   21  O   UNL     1      44.409 -19.406   3.882  1.00  0.00    -0.274 OA
HETATM   22  H   UNL     1      42.457 -18.629   1.483  1.00  0.00     0.169 HD
ENDBRANCH  15  18
ENDBRANCH   9  12
ENDBRANCH   1   8
BRANCH   2  23
HETATM   23  C   UNL     1      41.309 -10.541   0.936  1.00  0.00    -0.001 A 
HETATM   24  C   UNL     1      42.466 -10.380   0.134  1.00  0.00     0.076 A 
HETATM   25  C   UNL     1      43.048  -9.114  -0.018  1.00  0.00     0.037 A 
HETATM   26  C   UNL     1      42.488  -7.994   0.595  1.00  0.00     0.003 A 
HETATM   27  C   UNL     1      41.333  -8.129   1.353  1.00  0.00     0.001 A 
HETATM   28  C   UNL     1      40.747  -9.386   1.515  1.00  0.00     0.012 A 
BRANCH  24  29
HETATM   29  O   UNL     1      42.974 -11.517  -0.447  1.00  0.00    -0.355 OA
HETATM   30  C   UNL     1      42.983 -11.578  -1.867  1.00  0.00     0.210 C 
ENDBRANCH  24  29
ENDBRANCH   2  23
BRANCH   3  31
HETATM   31  C   UNL     1      39.841 -13.055  -0.929  1.00  0.00     0.038 A 
HETATM   32  C   UNL     1      39.306 -12.770  -2.189  1.00  0.00     0.032 A 
HETATM   33  C   UNL     1      39.424 -13.681  -3.246  1.00  0.00     0.039 A 
HETATM   34  C   UNL     1      40.052 -14.910  -3.058  1.00  0.00     0.068 A 
HETATM   35  C   UNL     1      40.622 -15.195  -1.821  1.00  0.00     0.039 A 
HETATM   36  C   UNL     1      40.522 -14.272  -0.769  1.00  0.00     0.032 A 
BRANCH  34  37
HETATM   37  O   UNL     1      40.055 -15.742  -4.142  1.00  0.00    -0.356 OA
HETATM   38  C   UNL     1      38.788 -16.269  -4.522  1.00  0.00     0.210 C 
ENDBRANCH  34  37
ENDBRANCH   3  31
TORSDOF 7
ENDMDL
MODEL 6
REMARK VINA RESULT:      -7.7      2.371      8.801
REMARK  7 active torsions:
REMARK  status: ('A' for Active; 'I' for Inactive)
REMARK       I    between atoms: C_2  and  N_3 
REMARK    1  A    between atoms: N_3  and  C_4 
REMARK    2  A    between atoms: C_7  and  N_8 
REMARK       I    between atoms: N_8  and  C_9 
REMARK    3  A    between atoms: C_9  and  C_10 
REMARK    4  A    between atoms: C_11  and  C_12 
REMARK    5  A    between atoms: C_13  and  O_14 
REMARK    6  A    between atoms: N_20  and  C_21 
REMARK    7  A    between atoms: C_24  and  O_25 
ROOT
HETATM    1  C   UNL     1      40.976 -13.847   2.187  1.00  0.00     0.106 C 
HETATM    2  C   UNL     1      40.417 -12.591   1.491  1.00  0.00     0.142 C 
HETATM    3  N   UNL     1      39.427 -13.008   0.459  1.00  0.00    -0.308 N 
HETATM    4  C   UNL     1      38.403 -13.903   0.779  1.00  0.00     0.225 C 
HETATM    5  O   UNL     1      37.326 -14.004   0.189  1.00  0.00    -0.273 OA
HETATM    6  C   UNL     1      38.761 -14.979   1.798  1.00  0.00     0.104 C 
HETATM    7  C   UNL     1      39.862 -14.682   2.799  1.00  0.00     0.026 C 
ENDROOT
BRANCH   1   8
HETATM    8  C   UNL     1      42.036 -13.577   3.236  1.00  0.00     0.228 C 
HETATM    9  N   UNL     1      42.852 -14.545   3.740  1.00  0.00    -0.327 N 
HETATM   10  H   UNL     1      43.488 -14.107   4.400  1.00  0.00     0.169 HD
HETATM   11  O   UNL     1      42.171 -12.460   3.744  1.00  0.00    -0.273 OA
BRANCH   9  12
HETATM   12  C   UNL     1      43.086 -15.910   3.504  1.00  0.00     0.034 A 
HETATM   13  C   UNL     1      42.687 -16.976   4.303  1.00  0.00     0.032 A 
HETATM   14  C   UNL     1      42.896 -18.305   3.892  1.00  0.00     0.032 A 
HETATM   15  C   UNL     1      43.539 -18.592   2.689  1.00  0.00     0.034 A 
HETATM   16  C   UNL     1      44.018 -17.527   1.926  1.00  0.00     0.032 A 
HETATM   17  C   UNL     1      43.793 -16.206   2.330  1.00  0.00     0.032 A 
BRANCH  15  18
HETATM   18  N   UNL     1      43.732 -19.891   2.181  1.00  0.00    -0.328 N 
HETATM   19  C   UNL     1      44.485 -20.908   2.740  1.00  0.00     0.218 C 
HETATM   20  C   UNL     1      44.398 -22.195   1.957  1.00  0.00     0.117 C 
HETATM   21  O   UNL     1      45.139 -20.853   3.776  1.00  0.00    -0.274 OA
HETATM   22  H   UNL     1      43.209 -20.120   1.345  1.00  0.00     0.169 HD
ENDBRANCH  15  18
ENDBRANCH   9  12
ENDBRANCH   1   8
BRANCH   2  23
HETATM   23  C   UNL     1      39.857 -11.456   2.368  1.00  0.00    -0.001 A 
HETATM   24  C   UNL     1      40.343 -10.133   2.224  1.00  0.00     0.076 A 
HETATM   25  C   UNL     1      39.877  -9.115   3.069  1.00  0.00     0.037 A 
HETATM   26  C   UNL     1      38.915  -9.381   4.042  1.00  0.00     0.003 A 
HETATM   27  C   UNL     1      38.402 -10.664   4.170  1.00  0.00     0.001 A 
HETATM   28  C   UNL     1      38.862 -11.687   3.339  1.00  0.00     0.012 A 
BRANCH  24  29
HETATM   29  O   UNL     1      41.288  -9.928   1.248  1.00  0.00    -0.355 OA
HETATM   30  C   UNL     1      41.557  -8.584   0.870  1.00  0.00     0.210 C 
ENDBRANCH  24  29
ENDBRANCH   2  23
BRANCH   3  31
HETATM   31  C   UNL     1      39.594 -12.568  -0.895  1.00  0.00     0.038 A 
HETATM   32  C   UNL     1      40.219 -13.368  -1.857  1.00  0.00     0.032 A 
HETATM   33  C   UNL     1      40.508 -12.868  -3.133  1.00  0.00     0.039 A 
HETATM   34  C   UNL     1      40.209 -11.548  -3.463  1.00  0.00     0.068 A 
HETATM   35  C   UNL     1      39.555 -10.750  -2.531  1.00  0.00     0.039 A 
HETATM   36  C   UNL     1      39.245 -11.259  -1.261  1.00  0.00     0.032 A 
BRANCH  34  37
HETATM   37  O   UNL     1      40.591 -11.154  -4.715  1.00  0.00    -0.356 OA
HETATM   38  C   UNL     1      39.684 -10.292  -5.396  1.00  0.00     0.210 C 
ENDBRANCH  34  37
ENDBRANCH   3  31
TORSDOF 7
ENDMDL
MODEL 7
REMARK VINA RESULT:      -7.4      2.876      9.638
REMARK  7 active torsions:
REMARK  status: ('A' for Active; 'I' for Inactive)
REMARK       I    between atoms: C_2  and  N_3 
REMARK    1  A    between atoms: N_3  and  C_4 
REMARK    2  A    between atoms: C_7  and  N_8 
REMARK       I    between atoms: N_8  and  C_9 
REMARK    3  A    between atoms: C_9  and  C_10 
REMARK    4  A    between atoms: C_11  and  C_12 
REMARK    5  A    between atoms: C_13  and  O_14 
REMARK    6  A    between atoms: N_20  and  C_21 
REMARK    7  A    between atoms: C_24  and  O_25 
ROOT
HETATM    1  C   UNL     1      40.841 -14.170   0.635  1.00  0.00     0.106 C 
HETATM    2  C   UNL     1      40.255 -12.830   0.147  1.00  0.00     0.142 C 
HETATM    3  N   UNL     1      39.753 -12.064   1.321  1.00  0.00    -0.308 N 
HETATM    4  C   UNL     1      40.562 -11.879   2.446  1.00  0.00     0.225 C 
HETATM    5  O   UNL     1      40.455 -10.966   3.265  1.00  0.00    -0.273 OA
HETATM    6  C   UNL     1      41.496 -13.035   2.785  1.00  0.00     0.104 C 
HETATM    7  C   UNL     1      41.943 -13.951   1.660  1.00  0.00     0.026 C 
ENDROOT
BRANCH   1   8
HETATM    8  C   UNL     1      41.351 -15.082  -0.464  1.00  0.00     0.228 C 
HETATM    9  N   UNL     1      42.031 -16.237  -0.220  1.00  0.00    -0.327 N 
HETATM   10  H   UNL     1      42.235 -16.675  -1.114  1.00  0.00     0.169 HD
HETATM   11  O   UNL     1      41.231 -14.785  -1.657  1.00  0.00    -0.273 OA
BRANCH   9  12
HETATM   12  C   UNL     1      42.409 -16.983   0.908  1.00  0.00     0.034 A 
HETATM   13  C   UNL     1      41.579 -17.431   1.930  1.00  0.00     0.032 A 
HETATM   14  C   UNL     1      42.073 -18.262   2.950  1.00  0.00     0.032 A 
HETATM   15  C   UNL     1      43.415 -18.634   2.986  1.00  0.00     0.034 A 
HETATM   16  C   UNL     1      44.271 -18.118   2.013  1.00  0.00     0.032 A 
HETATM   17  C   UNL     1      43.772 -17.304   0.989  1.00  0.00     0.032 A 
BRANCH  15  18
HETATM   18  N   UNL     1      43.973 -19.510   3.938  1.00  0.00    -0.328 N 
HETATM   19  C   UNL     1      44.473 -20.781   3.717  1.00  0.00     0.218 C 
HETATM   20  C   UNL     1      45.068 -21.397   4.961  1.00  0.00     0.117 C 
HETATM   21  O   UNL     1      44.502 -21.384   2.650  1.00  0.00    -0.274 OA
HETATM   22  H   UNL     1      44.075 -19.138   4.874  1.00  0.00     0.169 HD
ENDBRANCH  15  18
ENDBRANCH   9  12
ENDBRANCH   1   8
BRANCH   2  23
HETATM   23  C   UNL     1      41.120 -11.942  -0.766  1.00  0.00    -0.001 A 
HETATM   24  C   UNL     1      40.612 -11.477  -2.004  1.00  0.00     0.076 A 
HETATM   25  C   UNL     1      41.426 -10.722  -2.861  1.00  0.00     0.037 A 
HETATM   26  C   UNL     1      42.732 -10.397  -2.500  1.00  0.00     0.003 A 
HETATM   27  C   UNL     1      43.232 -10.813  -1.274  1.00  0.00     0.001 A 
HETATM   28  C   UNL     1      42.433 -11.570  -0.415  1.00  0.00     0.012 A 
BRANCH  24  29
HETATM   29  O   UNL     1      39.318 -11.825  -2.307  1.00  0.00    -0.355 OA
HETATM   30  C   UNL     1      39.098 -12.526  -3.524  1.00  0.00     0.210 C 
ENDBRANCH  24  29
ENDBRANCH   2  23
BRANCH   3  31
HETATM   31  C   UNL     1      38.394 -11.607   1.335  1.00  0.00     0.038 A 
HETATM   32  C   UNL     1      37.388 -12.270   0.626  1.00  0.00     0.032 A 
HETATM   33  C   UNL     1      36.099 -11.729   0.527  1.00  0.00     0.039 A 
HETATM   34  C   UNL     1      35.799 -10.499   1.108  1.00  0.00     0.068 A 
HETATM   35  C   UNL     1      36.779  -9.844   1.848  1.00  0.00     0.039 A 
HETATM   36  C   UNL     1      38.062 -10.398   1.964  1.00  0.00     0.032 A 
BRANCH  34  37
HETATM   37  O   UNL     1      34.529 -10.042   0.896  1.00  0.00    -0.356 OA
HETATM   38  C   UNL     1      33.598 -10.292   1.946  1.00  0.00     0.210 C 
ENDBRANCH  34  37
ENDBRANCH   3  31
TORSDOF 7
ENDMDL
MODEL 8
REMARK VINA RESULT:      -7.3      3.507      7.092
REMARK  7 active torsions:
REMARK  status: ('A' for Active; 'I' for Inactive)
REMARK       I    between atoms: C_2  and  N_3 
REMARK    1  A    between atoms: N_3  and  C_4 
REMARK    2  A    between atoms: C_7  and  N_8 
REMARK       I    between atoms: N_8  and  C_9 
REMARK    3  A    between atoms: C_9  and  C_10 
REMARK    4  A    between atoms: C_11  and  C_12 
REMARK    5  A    between atoms: C_13  and  O_14 
REMARK    6  A    between atoms: N_20  and  C_21 
REMARK    7  A    between atoms: C_24  and  O_25 
ROOT
HETATM    1  C   UNL     1      41.028 -15.245   5.294  1.00  0.00     0.106 C 
HETATM    2  C   UNL     1      42.556 -15.207   5.096  1.00  0.00     0.142 C 
HETATM    3  N   UNL     1      43.220 -15.535   6.388  1.00  0.00    -0.308 N 
HETATM    4  C   UNL     1      42.835 -16.663   7.118  1.00  0.00     0.225 C 
HETATM    5  O   UNL     1      43.536 -17.265   7.933  1.00  0.00    -0.273 OA
HETATM    6  C   UNL     1      41.355 -17.022   7.047  1.00  0.00     0.104 C 
HETATM    7  C   UNL     1      40.572 -16.597   5.819  1.00  0.00     0.026 C 
ENDROOT
BRANCH   1   8
HETATM    8  C   UNL     1      40.216 -14.883   4.066  1.00  0.00     0.228 C 
HETATM    9  N   UNL     1      39.624 -13.668   3.893  1.00  0.00    -0.327 N 
HETATM   10  H   UNL     1      39.168 -13.667   2.985  1.00  0.00     0.169 HD
HETATM   11  O   UNL     1      39.991 -15.708   3.175  1.00  0.00    -0.273 OA
BRANCH   9  12
HETATM   12  C   UNL     1      39.581 -12.444   4.581  1.00  0.00     0.034 A 
HETATM   13  C   UNL     1      38.803 -11.335   4.266  1.00  0.00     0.032 A 
HETATM   14  C   UNL     1      38.778 -10.208   5.106  1.00  0.00     0.032 A 
HETATM   15  C   UNL     1      39.557 -10.155   6.260  1.00  0.00     0.034 A 
HETATM   16  C   UNL     1      40.404 -11.229   6.536  1.00  0.00     0.032 A 
HETATM   17  C   UNL     1      40.414 -12.356   5.706  1.00  0.00     0.032 A 
BRANCH  15  18
HETATM   18  N   UNL     1      39.542  -9.091   7.182  1.00  0.00    -0.328 N 
HETATM   19  C   UNL     1      38.937  -9.066   8.426  1.00  0.00     0.218 C 
HETATM   20  C   UNL     1      39.198  -7.781   9.175  1.00  0.00     0.117 C 
HETATM   21  O   UNL     1      38.284  -9.966   8.943  1.00  0.00    -0.274 OA
HETATM   22  H   UNL     1      40.091  -8.279   6.928  1.00  0.00     0.169 HD
ENDBRANCH  15  18
ENDBRANCH   9  12
ENDBRANCH   1   8
BRANCH   2  23
HETATM   23  C   UNL     1      43.165 -16.020   3.939  1.00  0.00    -0.001 A 
HETATM   24  C   UNL     1      43.472 -15.392   2.706  1.00  0.00     0.076 A 
HETATM   25  C   UNL     1      43.966 -16.148   1.634  1.00  0.00     0.037 A 
HETATM   26  C   UNL     1      44.185 -17.518   1.769  1.00  0.00     0.003 A 
HETATM   27  C   UNL     1      43.924 -18.141   2.981  1.00  0.00     0.001 A 
HETATM   28  C   UNL     1      43.427 -17.399   4.055  1.00  0.00     0.012 A 
BRANCH  24  29
HETATM   29  O   UNL     1      43.238 -14.040   2.630  1.00  0.00    -0.355 OA
HETATM   30  C   UNL     1      42.379 -13.583   1.594  1.00  0.00     0.210 C 
ENDBRANCH  24  29
ENDBRANCH   2  23
BRANCH   3  31
HETATM   31  C   UNL     1      44.186 -14.626   6.934  1.00  0.00     0.038 A 
HETATM   32  C   UNL     1      43.932 -13.895   8.098  1.00  0.00     0.032 A 
HETATM   33  C   UNL     1      44.820 -12.903   8.535  1.00  0.00     0.039 A 
HETATM   34  C   UNL     1      45.963 -12.601   7.800  1.00  0.00     0.068 A 
HETATM   35  C   UNL     1      46.250 -13.344   6.658  1.00  0.00     0.039 A 
HETATM   36  C   UNL     1      45.371 -14.351   6.235  1.00  0.00     0.032 A 
BRANCH  34  37
HETATM   37  O   UNL     1      46.724 -11.576   8.289  1.00  0.00    -0.356 OA
HETATM   38  C   UNL     1      46.226 -10.943   9.464  1.00  0.00     0.210 C 
ENDBRANCH  34  37
ENDBRANCH   3  31
TORSDOF 7
ENDMDL
MODEL 9
REMARK VINA RESULT:      -7.2      4.612      8.195
REMARK  7 active torsions:
REMARK  status: ('A' for Active; 'I' for Inactive)
REMARK       I    between atoms: C_2  and  N_3 
REMARK    1  A    between atoms: N_3  and  C_4 
REMARK    2  A    between atoms: C_7  and  N_8 
REMARK       I    between atoms: N_8  and  C_9 
REMARK    3  A    between atoms: C_9  and  C_10 
REMARK    4  A    between atoms: C_11  and  C_12 
REMARK    5  A    between atoms: C_13  and  O_14 
REMARK    6  A    between atoms: N_20  and  C_21 
REMARK    7  A    between atoms: C_24  and  O_25 
ROOT
HETATM    1  C   UNL     1      38.139 -12.813  -2.746  1.00  0.00     0.106 C 
HETATM    2  C   UNL     1      39.392 -12.540  -1.891  1.00  0.00     0.142 C 
HETATM    3  N   UNL     1      39.899 -13.832  -1.349  1.00  0.00    -0.308 N 
HETATM    4  C   UNL     1      40.095 -14.928  -2.194  1.00  0.00     0.225 C 
HETATM    5  O   UNL     1      40.864 -15.867  -1.986  1.00  0.00    -0.273 OA
HETATM    6  C   UNL     1      39.105 -15.059  -3.346  1.00  0.00     0.104 C 
HETATM    7  C   UNL     1      38.436 -13.799  -3.864  1.00  0.00     0.026 C 
ENDROOT
BRANCH   1   8
HETATM    8  C   UNL     1      37.482 -11.576  -3.328  1.00  0.00     0.228 C 
HETATM    9  N   UNL     1      36.517 -10.867  -2.678  1.00  0.00    -0.327 N 
HETATM   10  H   UNL     1      36.263 -10.075  -3.262  1.00  0.00     0.169 HD
HETATM   11  O   UNL     1      37.746 -11.182  -4.468  1.00  0.00    -0.273 OA
BRANCH   9  12
HETATM   12  C   UNL     1      35.895 -10.901  -1.419  1.00  0.00     0.034 A 
HETATM   13  C   UNL     1      36.516 -11.042  -0.183  1.00  0.00     0.032 A 
HETATM   14  C   UNL     1      35.779 -10.953   1.010  1.00  0.00     0.032 A 
HETATM   15  C   UNL     1      34.399 -10.756   0.989  1.00  0.00     0.034 A 
HETATM   16  C   UNL     1      33.758 -10.701  -0.248  1.00  0.00     0.032 A 
HETATM   17  C   UNL     1      34.498 -10.773  -1.435  1.00  0.00     0.032 A 
BRANCH  15  18
HETATM   18  N   UNL     1      33.601 -10.597   2.139  1.00  0.00    -0.328 N 
HETATM   19  C   UNL     1      33.380  -9.433   2.852  1.00  0.00     0.218 C 
HETATM   20  C   UNL     1      32.399  -9.621   3.984  1.00  0.00     0.117 C 
HETATM   21  O   UNL     1      33.859  -8.328   2.622  1.00  0.00    -0.274 OA
HETATM   22  H   UNL     1      33.083 -11.416   2.433  1.00  0.00     0.169 HD
ENDBRANCH  15  18
ENDBRANCH   9  12
ENDBRANCH   1   8
BRANCH   2  23
HETATM   23  C   UNL     1      40.534 -11.713  -2.508  1.00  0.00    -0.001 A 
HETATM   24  C   UNL     1      40.831 -10.419  -2.011  1.00  0.00     0.076 A 
HETATM   25  C   UNL     1      41.829  -9.643  -2.618  1.00  0.00     0.037 A 
HETATM   26  C   UNL     1      42.558 -10.137  -3.699  1.00  0.00     0.003 A 
HETATM   27  C   UNL     1      42.304 -11.417  -4.173  1.00  0.00     0.001 A 
HETATM   28  C   UNL     1      41.310 -12.197  -3.580  1.00  0.00     0.012 A 
BRANCH  24  29
HETATM   29  O   UNL     1      40.083  -9.984  -0.944  1.00  0.00    -0.355 OA
HETATM   30  C   UNL     1      40.717  -9.951   0.328  1.00  0.00     0.210 C 
ENDBRANCH  24  29
ENDBRANCH   2  23
BRANCH   3  31
HETATM   31  C   UNL     1      40.084 -13.978   0.065  1.00  0.00     0.038 A 
HETATM   32  C   UNL     1      41.321 -13.742   0.674  1.00  0.00     0.032 A 
HETATM   33  C   UNL     1      41.525 -14.033   2.029  1.00  0.00     0.039 A 
HETATM   34  C   UNL     1      40.506 -14.594   2.796  1.00  0.00     0.068 A 
HETATM   35  C   UNL     1      39.259 -14.801   2.216  1.00  0.00     0.039 A 
HETATM   36  C   UNL     1      39.049 -14.488   0.864  1.00  0.00     0.032 A 
BRANCH  34  37
HETATM   37  O   UNL     1      40.838 -14.890   4.088  1.00  0.00    -0.356 OA
HETATM   38  C   UNL     1      39.977 -14.350   5.087  1.00  0.00     0.210 C 
ENDBRANCH  34  37
ENDBRANCH   3  31
TORSDOF 7
ENDMDL
MODEL 10
REMARK VINA RESULT:      -7.2      2.735     10.046
REMARK  7 active torsions:
REMARK  status: ('A' for Active; 'I' for Inactive)
REMARK       I    between atoms: C_2  and  N_3 
REMARK    1  A    between atoms: N_3  and  C_4 
REMARK    2  A    between atoms: C_7  and  N_8 
REMARK       I    between atoms: N_8  and  C_9 
REMARK    3  A    between atoms: C_9  and  C_10 
REMARK    4  A    between atoms: C_11  and  C_12 
REMARK    5  A    between atoms: C_13  and  O_14 
REMARK    6  A    between atoms: N_20  and  C_21 
REMARK    7  A    between atoms: C_24  and  O_25 
ROOT
HETATM    1  C   UNL     1      39.654 -13.390   0.390  1.00  0.00     0.106 C 
HETATM    2  C   UNL     1      39.433 -13.016  -1.088  1.00  0.00     0.142 C 
HETATM    3  N   UNL     1      40.438 -11.992  -1.484  1.00  0.00    -0.308 N 
HETATM    4  C   UNL     1      41.795 -12.186  -1.212  1.00  0.00     0.225 C 
HETATM    5  O   UNL     1      42.732 -11.665  -1.820  1.00  0.00    -0.273 OA
HETATM    6  C   UNL     1      42.109 -12.927   0.083  1.00  0.00     0.104 C 
HETATM    7  C   UNL     1      41.071 -13.889   0.629  1.00  0.00     0.026 C 
ENDROOT
BRANCH   1   8
HETATM    8  C   UNL     1      38.666 -14.396   0.949  1.00  0.00     0.228 C 
HETATM    9  N   UNL     1      39.037 -15.464   1.710  1.00  0.00    -0.327 N 
HETATM   10  H   UNL     1      38.195 -15.964   1.981  1.00  0.00     0.169 HD
HETATM   11  O   UNL     1      37.462 -14.334   0.683  1.00  0.00    -0.273 OA
BRANCH   9  12
HETATM   12  C   UNL     1      40.228 -15.958   2.268  1.00  0.00     0.034 A 
HETATM   13  C   UNL     1      40.868 -15.497   3.413  1.00  0.00     0.032 A 
HETATM   14  C   UNL     1      42.002 -16.155   3.921  1.00  0.00     0.032 A 
HETATM   15  C   UNL     1      42.537 -17.267   3.274  1.00  0.00     0.034 A 
HETATM   16  C   UNL     1      41.951 -17.682   2.078  1.00  0.00     0.032 A 
HETATM   17  C   UNL     1      40.812 -17.035   1.584  1.00  0.00     0.032 A 
BRANCH  15  18
HETATM   18  N   UNL     1      43.631 -18.016   3.751  1.00  0.00    -0.328 N 
HETATM   19  C   UNL     1      43.675 -18.809   4.883  1.00  0.00     0.218 C 
HETATM   20  C   UNL     1      44.993 -19.529   5.039  1.00  0.00     0.117 C 
HETATM   21  O   UNL     1      42.770 -18.988   5.691  1.00  0.00    -0.274 OA
HETATM   22  H   UNL     1      44.454 -18.020   3.161  1.00  0.00     0.169 HD
ENDBRANCH  15  18
ENDBRANCH   9  12
ENDBRANCH   1   8
BRANCH   2  23
HETATM   23  C   UNL     1      39.360 -14.150  -2.127  1.00  0.00    -0.001 A 
HETATM   24  C   UNL     1      38.265 -14.231  -3.024  1.00  0.00     0.076 A 
HETATM   25  C   UNL     1      38.170 -15.301  -3.925  1.00  0.00     0.037 A 
HETATM   26  C   UNL     1      39.156 -16.285  -3.970  1.00  0.00     0.003 A 
HETATM   27  C   UNL     1      40.253 -16.200  -3.124  1.00  0.00     0.001 A 
HETATM   28  C   UNL     1      40.357 -15.142  -2.219  1.00  0.00     0.012 A 
BRANCH  24  29
HETATM   29  O   UNL     1      37.325 -13.233  -2.936  1.00  0.00    -0.355 OA
HETATM   30  C   UNL     1      36.562 -12.951  -4.102  1.00  0.00     0.210 C 
ENDBRANCH  24  29
ENDBRANCH   2  23
BRANCH   3  31
HETATM   31  C   UNL     1      39.994 -10.752  -2.052  1.00  0.00     0.038 A 
HETATM   32  C   UNL     1      39.725  -9.633  -1.258  1.00  0.00     0.032 A 
HETATM   33  C   UNL     1      39.150  -8.480  -1.808  1.00  0.00     0.039 A 
HETATM   34  C   UNL     1      38.803  -8.434  -3.156  1.00  0.00     0.068 A 
HETATM   35  C   UNL     1      39.097  -9.525  -3.968  1.00  0.00     0.039 A 
HETATM   36  C   UNL     1      39.693 -10.670  -3.421  1.00  0.00     0.032 A 
BRANCH  34  37
HETATM   37  O   UNL     1      38.194  -7.281  -3.568  1.00  0.00    -0.356 OA
HETATM   38  C   UNL     1      37.408  -7.385  -4.751  1.00  0.00     0.210 C 
ENDBRANCH  34  37
ENDBRANCH   3  31
TORSDOF 7
ENDMDL
