MODEL 1
REMARK VINA RESULT:      -9.6      0.000      0.000
REMARK  10 active torsions:
REMARK  status: ('A' for Active; 'I' for Inactive)
REMARK    1  A    between atoms: N_15  and  C_16 
REMARK    2  A    between atoms: C_16  and  C_17 
REMARK    3  A    between atoms: C_17  and  N_18 
REMARK       I    between atoms: N_18  and  C_19 
REMARK    4  A    between atoms: C_19  and  C_20 
REMARK    5  A    between atoms: C_20  and  C_21 
REMARK    6  A    between atoms: C_21  and  C_22 
REMARK    7  A    between atoms: C_24  and  C_25 
REMARK    8  A    between atoms: C_29  and  O_30 
REMARK    9  A    between atoms: C_31  and  C_32 
REMARK   10  A    between atoms: C_38  and  O_39 
ROOT
HETATM    1  C   UNL     1      44.256 -12.903   7.428  1.00  0.00     0.142 C 
ENDROOT
BRANCH   1   2
HETATM    2  C   UNL     1      44.400 -13.023   8.950  1.00  0.00     0.151 C 
BRANCH   2   3
HETATM    3  N   UNL     1      44.187 -11.763   9.674  1.00  0.00    -0.291 N 
HETATM    4  C   UNL     1      45.196 -10.824   9.741  1.00  0.00     0.366 C 
HETATM    5  O   UNL     1      44.956  -9.963  10.776  1.00  0.00    -0.287 OA
HETATM    6  O   UNL     1      46.178 -10.751   9.022  1.00  0.00    -0.238 OA
HETATM    7  C   UNL     1      43.594 -10.167  11.255  1.00  0.00     0.126 C 
HETATM    8  C   UNL     1      43.621  -9.786  12.743  1.00  0.00     0.082 C 
HETATM    9  C   UNL     1      43.391 -11.660  10.869  1.00  0.00     0.166 C 
HETATM   10  C   UNL     1      42.743  -9.142  10.461  1.00  0.00     0.082 C 
HETATM   11  C   UNL     1      42.268  -9.484  13.398  1.00  0.00     0.122 C 
HETATM   12  N   UNL     1      41.524  -8.483  12.549  1.00  0.00    -0.059 N 
HETATM   13  C   UNL     1      42.509  -8.790  14.755  1.00  0.00     0.046 C 
HETATM   14  C   UNL     1      41.395 -10.709  13.670  1.00  0.00     0.046 C 
HETATM   15  C   UNL     1      41.402  -8.681  11.056  1.00  0.00     0.122 C 
HETATM   16  H   UNL     1      41.981  -7.569  12.695  1.00  0.00     0.279 HD
HETATM   17  H   UNL     1      40.579  -8.349  12.941  1.00  0.00     0.279 HD
HETATM   18  C   UNL     1      41.071  -7.283  10.477  1.00  0.00     0.046 C 
HETATM   19  C   UNL     1      40.196  -9.572  10.744  1.00  0.00     0.046 C 
HETATM   20  C   UNL     1      43.855 -12.670  11.927  1.00  0.00     0.074 C 
BRANCH   9  21
HETATM   21  O   UNL     1      42.045 -11.904  10.532  1.00  0.00    -0.368 OA
HETATM   22  H   UNL     1      41.557 -11.069  10.639  1.00  0.00     0.212 HD
ENDBRANCH   9  21
ENDBRANCH   2   3
ENDBRANCH   1   2
BRANCH   1  23
HETATM   23  N   UNL     1      42.884 -12.924   6.965  1.00  0.00    -0.359 N 
HETATM   24  C   UNL     1      42.581 -13.160   5.646  1.00  0.00     0.217 C 
HETATM   25  O   UNL     1      43.453 -13.301   4.790  1.00  0.00    -0.274 OA
HETATM   26  H   UNL     1      42.142 -12.820   7.655  1.00  0.00     0.162 HD
BRANCH  24  27
HETATM   27  C   UNL     1      41.120 -13.387   5.306  1.00  0.00     0.107 C 
BRANCH  27  28
HETATM   28  C   UNL     1      40.534 -14.757   5.631  1.00  0.00     0.048 C 
BRANCH  28  29
HETATM   29  C   UNL     1      41.384 -15.957   5.283  1.00  0.00    -0.057 A 
HETATM   30  C   UNL     1      41.530 -16.402   3.964  1.00  0.00     0.018 A 
HETATM   31  C   UNL     1      42.388 -17.464   3.611  1.00  0.00    -0.016 A 
HETATM   32  C   UNL     1      43.142 -18.033   4.665  1.00  0.00     0.079 A 
HETATM   33  C   UNL     1      43.051 -17.607   6.013  1.00  0.00    -0.016 A 
HETATM   34  C   UNL     1      42.145 -16.567   6.287  1.00  0.00     0.018 A 
BRANCH  31  35
HETATM   35  C   UNL     1      42.539 -17.837   2.112  1.00  0.00    -0.021 C 
HETATM   36  C   UNL     1      43.736 -17.046   1.546  1.00  0.00     0.019 C 
HETATM   37  C   UNL     1      42.775 -19.337   1.819  1.00  0.00     0.019 C 
HETATM   38  C   UNL     1      41.276 -17.464   1.289  1.00  0.00     0.019 C 
ENDBRANCH  31  35
BRANCH  32  39
HETATM   39  O   UNL     1      44.043 -19.020   4.385  1.00  0.00    -0.360 OA
HETATM   40  H   UNL     1      44.376 -18.824   3.494  1.00  0.00     0.217 HD
ENDBRANCH  32  39
BRANCH  33  41
HETATM   41  C   UNL     1      43.929 -18.203   7.142  1.00  0.00    -0.021 C 
HETATM   42  C   UNL     1      43.599 -17.520   8.488  1.00  0.00     0.019 C 
HETATM   43  C   UNL     1      43.711 -19.724   7.365  1.00  0.00     0.019 C 
HETATM   44  C   UNL     1      45.432 -18.038   6.821  1.00  0.00     0.019 C 
ENDBRANCH  33  41
ENDBRANCH  28  29
ENDBRANCH  27  28
ENDBRANCH  24  27
ENDBRANCH   1  23
TORSDOF 10
ENDMDL
MODEL 2
REMARK VINA RESULT:      -9.3      5.865      9.134
REMARK  10 active torsions:
REMARK  status: ('A' for Active; 'I' for Inactive)
REMARK    1  A    between atoms: N_15  and  C_16 
REMARK    2  A    between atoms: C_16  and  C_17 
REMARK    3  A    between atoms: C_17  and  N_18 
REMARK       I    between atoms: N_18  and  C_19 
REMARK    4  A    between atoms: C_19  and  C_20 
REMARK    5  A    between atoms: C_20  and  C_21 
REMARK    6  A    between atoms: C_21  and  C_22 
REMARK    7  A    between atoms: C_24  and  C_25 
REMARK    8  A    between atoms: C_29  and  O_30 
REMARK    9  A    between atoms: C_31  and  C_32 
REMARK   10  A    between atoms: C_38  and  O_39 
ROOT
HETATM    1  C   UNL     1      39.654 -13.880   4.005  1.00  0.00     0.142 C 
ENDROOT
BRANCH   1   2
HETATM    2  C   UNL     1      40.402 -12.661   3.452  1.00  0.00     0.151 C 
BRANCH   2   3
HETATM    3  N   UNL     1      40.958 -12.858   2.107  1.00  0.00    -0.291 N 
HETATM    4  C   UNL     1      42.303 -13.119   1.945  1.00  0.00     0.366 C 
HETATM    5  O   UNL     1      42.675 -12.848   0.657  1.00  0.00    -0.287 OA
HETATM    6  O   UNL     1      43.081 -13.512   2.798  1.00  0.00    -0.238 OA
HETATM    7  C   UNL     1      41.475 -12.654  -0.149  1.00  0.00     0.126 C 
HETATM    8  C   UNL     1      41.887 -11.691  -1.273  1.00  0.00     0.082 C 
HETATM    9  C   UNL     1      40.491 -12.149   0.944  1.00  0.00     0.166 C 
HETATM   10  C   UNL     1      41.169 -14.055  -0.739  1.00  0.00     0.082 C 
HETATM   11  C   UNL     1      40.977 -11.645  -2.506  1.00  0.00     0.122 C 
HETATM   12  N   UNL     1      40.743 -13.053  -2.996  1.00  0.00    -0.059 N 
HETATM   13  C   UNL     1      41.714 -10.917  -3.650  1.00  0.00     0.046 C 
HETATM   14  C   UNL     1      39.646 -10.921  -2.298  1.00  0.00     0.046 C 
HETATM   15  C   UNL     1      40.342 -14.145  -2.032  1.00  0.00     0.122 C 
HETATM   16  H   UNL     1      41.616 -13.359  -3.452  1.00  0.00     0.279 HD
HETATM   17  H   UNL     1      40.059 -13.029  -3.768  1.00  0.00     0.279 HD
HETATM   18  C   UNL     1      40.697 -15.476  -2.741  1.00  0.00     0.046 C 
HETATM   19  C   UNL     1      38.822 -14.148  -1.848  1.00  0.00     0.046 C 
HETATM   20  C   UNL     1      40.510 -10.633   1.180  1.00  0.00     0.074 C 
BRANCH   9  21
HETATM   21  O   UNL     1      39.177 -12.573   0.660  1.00  0.00    -0.368 OA
HETATM   22  H   UNL     1      38.579 -11.829   0.847  1.00  0.00     0.212 HD
ENDBRANCH   9  21
ENDBRANCH   2   3
ENDBRANCH   1   2
BRANCH   1  23
HETATM   23  N   UNL     1      40.141 -15.147   3.497  1.00  0.00    -0.359 N 
HETATM   24  C   UNL     1      39.607 -15.712   2.364  1.00  0.00     0.217 C 
HETATM   25  O   UNL     1      38.657 -15.208   1.767  1.00  0.00    -0.274 OA
HETATM   26  H   UNL     1      40.933 -15.581   3.966  1.00  0.00     0.162 HD
BRANCH  24  27
HETATM   27  C   UNL     1      40.331 -16.914   1.789  1.00  0.00     0.107 C 
BRANCH  27  28
HETATM   28  C   UNL     1      41.856 -16.871   1.782  1.00  0.00     0.048 C 
BRANCH  28  29
HETATM   29  C   UNL     1      42.565 -17.803   2.736  1.00  0.00    -0.057 A 
HETATM   30  C   UNL     1      43.032 -19.058   2.331  1.00  0.00     0.018 A 
HETATM   31  C   UNL     1      43.774 -19.905   3.183  1.00  0.00    -0.016 A 
HETATM   32  C   UNL     1      44.067 -19.392   4.469  1.00  0.00     0.079 A 
HETATM   33  C   UNL     1      43.639 -18.119   4.922  1.00  0.00    -0.016 A 
HETATM   34  C   UNL     1      42.873 -17.354   4.025  1.00  0.00     0.018 A 
BRANCH  31  35
HETATM   35  C   UNL     1      44.312 -21.247   2.619  1.00  0.00    -0.021 C 
HETATM   36  C   UNL     1      45.722 -20.988   2.049  1.00  0.00     0.019 C 
HETATM   37  C   UNL     1      44.415 -22.404   3.641  1.00  0.00     0.019 C 
HETATM   38  C   UNL     1      43.417 -21.800   1.477  1.00  0.00     0.019 C 
ENDBRANCH  31  35
BRANCH  32  39
HETATM   39  O   UNL     1      44.837 -20.128   5.322  1.00  0.00    -0.360 OA
HETATM   40  H   UNL     1      45.746 -19.811   5.191  1.00  0.00     0.217 HD
ENDBRANCH  32  39
BRANCH  33  41
HETATM   41  C   UNL     1      44.021 -17.552   6.313  1.00  0.00    -0.021 C 
HETATM   42  C   UNL     1      43.173 -18.229   7.414  1.00  0.00     0.019 C 
HETATM   43  C   UNL     1      45.505 -17.797   6.699  1.00  0.00     0.019 C 
HETATM   44  C   UNL     1      43.822 -16.021   6.360  1.00  0.00     0.019 C 
ENDBRANCH  33  41
ENDBRANCH  28  29
ENDBRANCH  27  28
ENDBRANCH  24  27
ENDBRANCH   1  23
TORSDOF 10
ENDMDL
MODEL 3
REMARK VINA RESULT:      -9.1      5.862      9.176
REMARK  10 active torsions:
REMARK  status: ('A' for Active; 'I' for Inactive)
REMARK    1  A    between atoms: N_15  and  C_16 
REMARK    2  A    between atoms: C_16  and  C_17 
REMARK    3  A    between atoms: C_17  and  N_18 
REMARK       I    between atoms: N_18  and  C_19 
REMARK    4  A    between atoms: C_19  and  C_20 
REMARK    5  A    between atoms: C_20  and  C_21 
REMARK    6  A    between atoms: C_21  and  C_22 
REMARK    7  A    between atoms: C_24  and  C_25 
REMARK    8  A    between atoms: C_29  and  O_30 
REMARK    9  A    between atoms: C_31  and  C_32 
REMARK   10  A    between atoms: C_38  and  O_39 
ROOT
HETATM    1  C   UNL     1      39.799 -14.351   4.183  1.00  0.00     0.142 C 
ENDROOT
BRANCH   1   2
HETATM    2  C   UNL     1      40.527 -13.049   3.830  1.00  0.00     0.151 C 
BRANCH   2   3
HETATM    3  N   UNL     1      41.049 -13.007   2.458  1.00  0.00    -0.291 N 
HETATM    4  C   UNL     1      42.409 -13.079   2.233  1.00  0.00     0.366 C 
HETATM    5  O   UNL     1      42.695 -12.606   0.982  1.00  0.00    -0.287 OA
HETATM    6  O   UNL     1      43.260 -13.477   3.009  1.00  0.00    -0.238 OA
HETATM    7  C   UNL     1      41.450 -12.462   0.235  1.00  0.00     0.126 C 
HETATM    8  C   UNL     1      41.701 -11.323  -0.765  1.00  0.00     0.082 C 
HETATM    9  C   UNL     1      40.457 -12.222   1.408  1.00  0.00     0.166 C 
HETATM   10  C   UNL     1      41.290 -13.805  -0.522  1.00  0.00     0.082 C 
HETATM   11  C   UNL     1      40.744 -11.236  -1.960  1.00  0.00     0.122 C 
HETATM   12  N   UNL     1      40.660 -12.590  -2.621  1.00  0.00    -0.059 N 
HETATM   13  C   UNL     1      41.346 -10.286  -3.018  1.00  0.00     0.046 C 
HETATM   14  C   UNL     1      39.347 -10.713  -1.630  1.00  0.00     0.046 C 
HETATM   15  C   UNL     1      40.430 -13.835  -1.796  1.00  0.00     0.122 C 
HETATM   16  H   UNL     1      41.546 -12.728  -3.133  1.00  0.00     0.279 HD
HETATM   17  H   UNL     1      39.949 -12.554  -3.367  1.00  0.00     0.279 HD
HETATM   18  C   UNL     1      40.912 -15.013  -2.678  1.00  0.00     0.046 C 
HETATM   19  C   UNL     1      38.929 -14.047  -1.579  1.00  0.00     0.046 C 
HETATM   20  C   UNL     1      40.305 -10.756   1.836  1.00  0.00     0.074 C 
BRANCH   9  21
HETATM   21  O   UNL     1      39.192 -12.765   1.102  1.00  0.00    -0.368 OA
HETATM   22  H   UNL     1      39.063 -13.548   1.664  1.00  0.00     0.212 HD
ENDBRANCH   9  21
ENDBRANCH   2   3
ENDBRANCH   1   2
BRANCH   1  23
HETATM   23  N   UNL     1      40.342 -15.523   3.528  1.00  0.00    -0.359 N 
HETATM   24  C   UNL     1      39.841 -15.965   2.328  1.00  0.00     0.217 C 
HETATM   25  O   UNL     1      38.874 -15.430   1.786  1.00  0.00    -0.274 OA
HETATM   26  H   UNL     1      41.149 -15.980   3.949  1.00  0.00     0.162 HD
BRANCH  24  27
HETATM   27  C   UNL     1      40.620 -17.055   1.616  1.00  0.00     0.107 C 
BRANCH  27  28
HETATM   28  C   UNL     1      42.136 -16.901   1.557  1.00  0.00     0.048 C 
BRANCH  28  29
HETATM   29  C   UNL     1      42.942 -17.763   2.500  1.00  0.00    -0.057 A 
HETATM   30  C   UNL     1      43.233 -17.355   3.807  1.00  0.00     0.018 A 
HETATM   31  C   UNL     1      43.907 -18.182   4.730  1.00  0.00    -0.016 A 
HETATM   32  C   UNL     1      44.236 -19.482   4.276  1.00  0.00     0.079 A 
HETATM   33  C   UNL     1      43.945 -19.955   2.972  1.00  0.00    -0.016 A 
HETATM   34  C   UNL     1      43.305 -19.055   2.103  1.00  0.00     0.018 A 
BRANCH  31  35
HETATM   35  C   UNL     1      44.119 -17.669   6.179  1.00  0.00    -0.021 C 
HETATM   36  C   UNL     1      43.814 -16.157   6.193  1.00  0.00     0.019 C 
HETATM   37  C   UNL     1      43.242 -18.344   7.259  1.00  0.00     0.019 C 
HETATM   38  C   UNL     1      45.580 -17.876   6.663  1.00  0.00     0.019 C 
ENDBRANCH  31  35
BRANCH  32  39
HETATM   39  O   UNL     1      44.829 -20.360   5.137  1.00  0.00    -0.360 OA
HETATM   40  H   UNL     1      44.580 -21.244   4.819  1.00  0.00     0.217 HD
ENDBRANCH  32  39
BRANCH  33  41
HETATM   41  C   UNL     1      44.260 -21.402   2.515  1.00  0.00    -0.021 C 
HETATM   42  C   UNL     1      43.207 -21.875   1.488  1.00  0.00     0.019 C 
HETATM   43  C   UNL     1      45.639 -21.549   1.819  1.00  0.00     0.019 C 
HETATM   44  C   UNL     1      44.293 -22.368   3.721  1.00  0.00     0.019 C 
ENDBRANCH  33  41
ENDBRANCH  28  29
ENDBRANCH  27  28
ENDBRANCH  24  27
ENDBRANCH   1  23
TORSDOF 10
ENDMDL
MODEL 4
REMARK VINA RESULT:      -9.1      5.064      7.792
REMARK  10 active torsions:
REMARK  status: ('A' for Active; 'I' for Inactive)
REMARK    1  A    between atoms: N_15  and  C_16 
REMARK    2  A    between atoms: C_16  and  C_17 
REMARK    3  A    between atoms: C_17  and  N_18 
REMARK       I    between atoms: N_18  and  C_19 
REMARK    4  A    between atoms: C_19  and  C_20 
REMARK    5  A    between atoms: C_20  and  C_21 
REMARK    6  A    between atoms: C_21  and  C_22 
REMARK    7  A    between atoms: C_24  and  C_25 
REMARK    8  A    between atoms: C_29  and  O_30 
REMARK    9  A    between atoms: C_31  and  C_32 
REMARK   10  A    between atoms: C_38  and  O_39 
ROOT
HETATM    1  C   UNL     1      41.721 -13.986  -1.160  1.00  0.00     0.142 C 
ENDROOT
BRANCH   1   2
HETATM    2  C   UNL     1      40.605 -12.977  -0.864  1.00  0.00     0.151 C 
BRANCH   2   3
HETATM    3  N   UNL     1      40.056 -13.071   0.495  1.00  0.00    -0.291 N 
HETATM    4  C   UNL     1      38.716 -13.342   0.683  1.00  0.00     0.366 C 
HETATM    5  O   UNL     1      38.344 -12.971   1.946  1.00  0.00    -0.287 OA
HETATM    6  O   UNL     1      37.944 -13.818  -0.130  1.00  0.00    -0.238 OA
HETATM    7  C   UNL     1      39.543 -12.689   2.728  1.00  0.00     0.126 C 
HETATM    8  C   UNL     1      39.116 -11.644   3.770  1.00  0.00     0.082 C 
HETATM    9  C   UNL     1      40.514 -12.260   1.592  1.00  0.00     0.166 C 
HETATM   10  C   UNL     1      39.875 -14.031   3.431  1.00  0.00     0.082 C 
HETATM   11  C   UNL     1      40.029 -11.479   4.990  1.00  0.00     0.122 C 
HETATM   12  N   UNL     1      40.290 -12.837   5.595  1.00  0.00    -0.059 N 
HETATM   13  C   UNL     1      39.282 -10.672   6.073  1.00  0.00     0.046 C 
HETATM   14  C   UNL     1      41.346 -10.752   4.718  1.00  0.00     0.046 C 
HETATM   15  C   UNL     1      40.707 -13.999   4.724  1.00  0.00     0.122 C 
HETATM   16  H   UNL     1      39.423 -13.120   6.079  1.00  0.00     0.279 HD
HETATM   17  H   UNL     1      40.975 -12.737   6.359  1.00  0.00     0.279 HD
HETATM   18  C   UNL     1      40.378 -15.272   5.543  1.00  0.00     0.046 C 
HETATM   19  C   UNL     1      42.227 -13.990   4.534  1.00  0.00     0.046 C 
HETATM   20  C   UNL     1      40.467 -10.770   1.231  1.00  0.00     0.074 C 
BRANCH   9  21
HETATM   21  O   UNL     1      41.836 -12.636   1.905  1.00  0.00    -0.368 OA
HETATM   22  H   UNL     1      42.427 -11.930   1.591  1.00  0.00     0.212 HD
ENDBRANCH   9  21
ENDBRANCH   2   3
ENDBRANCH   1   2
BRANCH   1  23
HETATM   23  N   UNL     1      41.413 -15.340  -0.746  1.00  0.00    -0.359 N 
HETATM   24  C   UNL     1      41.877 -15.843   0.445  1.00  0.00     0.217 C 
HETATM   25  O   UNL     1      42.622 -15.198   1.182  1.00  0.00    -0.274 OA
HETATM   26  H   UNL     1      40.790 -15.893  -1.332  1.00  0.00     0.162 HD
BRANCH  24  27
HETATM   27  C   UNL     1      41.317 -17.179   0.892  1.00  0.00     0.107 C 
BRANCH  27  28
HETATM   28  C   UNL     1      41.174 -17.407   2.394  1.00  0.00     0.048 C 
BRANCH  28  29
HETATM   29  C   UNL     1      42.311 -18.128   3.081  1.00  0.00    -0.057 A 
HETATM   30  C   UNL     1      42.763 -17.752   4.351  1.00  0.00     0.018 A 
HETATM   31  C   UNL     1      43.762 -18.467   5.045  1.00  0.00    -0.016 A 
HETATM   32  C   UNL     1      44.255 -19.628   4.404  1.00  0.00     0.079 A 
HETATM   33  C   UNL     1      43.817 -20.068   3.129  1.00  0.00    -0.016 A 
HETATM   34  C   UNL     1      42.846 -19.278   2.489  1.00  0.00     0.018 A 
BRANCH  31  35
HETATM   35  C   UNL     1      44.145 -18.016   6.480  1.00  0.00    -0.021 C 
HETATM   36  C   UNL     1      43.415 -16.688   6.767  1.00  0.00     0.019 C 
HETATM   37  C   UNL     1      43.787 -19.012   7.608  1.00  0.00     0.019 C 
HETATM   38  C   UNL     1      45.672 -17.776   6.627  1.00  0.00     0.019 C 
ENDBRANCH  31  35
BRANCH  32  39
HETATM   39  O   UNL     1      45.174 -20.407   5.046  1.00  0.00    -0.360 OA
HETATM   40  H   UNL     1      45.833 -20.642   4.371  1.00  0.00     0.217 HD
ENDBRANCH  32  39
BRANCH  33  41
HETATM   41  C   UNL     1      44.327 -21.375   2.471  1.00  0.00    -0.021 C 
HETATM   42  C   UNL     1      45.738 -21.157   1.882  1.00  0.00     0.019 C 
HETATM   43  C   UNL     1      44.451 -22.564   3.462  1.00  0.00     0.019 C 
HETATM   44  C   UNL     1      43.360 -21.851   1.364  1.00  0.00     0.019 C 
ENDBRANCH  33  41
ENDBRANCH  28  29
ENDBRANCH  27  28
ENDBRANCH  24  27
ENDBRANCH   1  23
TORSDOF 10
ENDMDL
MODEL 5
REMARK VINA RESULT:      -9.1      1.741      3.207
REMARK  10 active torsions:
REMARK  status: ('A' for Active; 'I' for Inactive)
REMARK    1  A    between atoms: N_15  and  C_16 
REMARK    2  A    between atoms: C_16  and  C_17 
REMARK    3  A    between atoms: C_17  and  N_18 
REMARK       I    between atoms: N_18  and  C_19 
REMARK    4  A    between atoms: C_19  and  C_20 
REMARK    5  A    between atoms: C_20  and  C_21 
REMARK    6  A    between atoms: C_21  and  C_22 
REMARK    7  A    between atoms: C_24  and  C_25 
REMARK    8  A    between atoms: C_29  and  O_30 
REMARK    9  A    between atoms: C_31  and  C_32 
REMARK   10  A    between atoms: C_38  and  O_39 
ROOT
HETATM    1  C   UNL     1      40.696 -10.404   5.856  1.00  0.00     0.142 C 
ENDROOT
BRANCH   1   2
HETATM    2  C   UNL     1      39.964  -9.754   7.036  1.00  0.00     0.151 C 
BRANCH   2   3
HETATM    3  N   UNL     1      40.365 -10.274   8.350  1.00  0.00    -0.291 N 
HETATM    4  C   UNL     1      39.619 -11.261   8.961  1.00  0.00     0.366 C 
HETATM    5  O   UNL     1      39.899 -11.290  10.299  1.00  0.00    -0.287 OA
HETATM    6  O   UNL     1      38.810 -12.002   8.430  1.00  0.00    -0.238 OA
HETATM    7  C   UNL     1      41.078 -10.469  10.552  1.00  0.00     0.126 C 
HETATM    8  C   UNL     1      40.915  -9.949  11.989  1.00  0.00     0.082 C 
HETATM    9  C   UNL     1      40.966  -9.460   9.374  1.00  0.00     0.166 C 
HETATM   10  C   UNL     1      42.268 -11.461  10.481  1.00  0.00     0.082 C 
HETATM   11  C   UNL     1      42.181  -9.428  12.678  1.00  0.00     0.122 C 
HETATM   12  N   UNL     1      43.271 -10.463  12.550  1.00  0.00    -0.059 N 
HETATM   13  C   UNL     1      41.909  -9.287  14.191  1.00  0.00     0.046 C 
HETATM   14  C   UNL     1      42.673  -8.068  12.182  1.00  0.00     0.046 C 
HETATM   15  C   UNL     1      43.572 -11.102  11.213  1.00  0.00     0.122 C 
HETATM   16  H   UNL     1      43.035 -11.228  13.202  1.00  0.00     0.279 HD
HETATM   17  H   UNL     1      44.148 -10.076  12.933  1.00  0.00     0.279 HD
HETATM   18  C   UNL     1      44.321 -12.417  11.540  1.00  0.00     0.046 C 
HETATM   19  C   UNL     1      44.555 -10.230  10.427  1.00  0.00     0.046 C 
HETATM   20  C   UNL     1      40.109  -8.221   9.665  1.00  0.00     0.074 C 
BRANCH   9  21
HETATM   21  O   UNL     1      42.247  -9.066   8.938  1.00  0.00    -0.368 OA
HETATM   22  H   UNL     1      42.274  -8.094   8.942  1.00  0.00     0.212 HD
ENDBRANCH   9  21
ENDBRANCH   2   3
ENDBRANCH   1   2
BRANCH   1  23
HETATM   23  N   UNL     1      40.059 -11.607   5.361  1.00  0.00    -0.359 N 
HETATM   24  C   UNL     1      40.786 -12.595   4.742  1.00  0.00     0.217 C 
HETATM   25  O   UNL     1      41.991 -12.480   4.523  1.00  0.00    -0.274 OA
HETATM   26  H   UNL     1      39.064 -11.732   5.537  1.00  0.00     0.162 HD
BRANCH  24  27
HETATM   27  C   UNL     1      40.071 -13.904   4.466  1.00  0.00     0.107 C 
BRANCH  27  28
HETATM   28  C   UNL     1      40.211 -15.007   5.510  1.00  0.00     0.048 C 
BRANCH  28  29
HETATM   29  C   UNL     1      41.168 -16.130   5.186  1.00  0.00    -0.057 A 
HETATM   30  C   UNL     1      41.380 -16.563   3.873  1.00  0.00     0.018 A 
HETATM   31  C   UNL     1      42.334 -17.549   3.542  1.00  0.00    -0.016 A 
HETATM   32  C   UNL     1      43.110 -18.048   4.614  1.00  0.00     0.079 A 
HETATM   33  C   UNL     1      42.954 -17.629   5.959  1.00  0.00    -0.016 A 
HETATM   34  C   UNL     1      41.956 -16.671   6.208  1.00  0.00     0.018 A 
BRANCH  31  35
HETATM   35  C   UNL     1      42.549 -17.910   2.048  1.00  0.00    -0.021 C 
HETATM   36  C   UNL     1      43.786 -17.135   1.547  1.00  0.00     0.019 C 
HETATM   37  C   UNL     1      42.774 -19.411   1.751  1.00  0.00     0.019 C 
HETATM   38  C   UNL     1      41.333 -17.507   1.170  1.00  0.00     0.019 C 
ENDBRANCH  31  35
BRANCH  32  39
HETATM   39  O   UNL     1      44.099 -18.955   4.358  1.00  0.00    -0.360 OA
HETATM   40  H   UNL     1      44.874 -18.429   4.100  1.00  0.00     0.217 HD
ENDBRANCH  32  39
BRANCH  33  41
HETATM   41  C   UNL     1      43.854 -18.146   7.109  1.00  0.00    -0.021 C 
HETATM   42  C   UNL     1      43.668 -19.669   7.285  1.00  0.00     0.019 C 
HETATM   43  C   UNL     1      45.371 -17.922   6.862  1.00  0.00     0.019 C 
HETATM   44  C   UNL     1      43.533 -17.417   8.433  1.00  0.00     0.019 C 
ENDBRANCH  33  41
ENDBRANCH  28  29
ENDBRANCH  27  28
ENDBRANCH  24  27
ENDBRANCH   1  23
TORSDOF 10
ENDMDL
MODEL 6
REMARK VINA RESULT:      -9.0      5.386      9.503
REMARK  10 active torsions:
REMARK  status: ('A' for Active; 'I' for Inactive)
REMARK    1  A    between atoms: N_15  and  C_16 
REMARK    2  A    between atoms: C_16  and  C_17 
REMARK    3  A    between atoms: C_17  and  N_18 
REMARK       I    between atoms: N_18  and  C_19 
REMARK    4  A    between atoms: C_19  and  C_20 
REMARK    5  A    between atoms: C_20  and  C_21 
REMARK    6  A    between atoms: C_21  and  C_22 
REMARK    7  A    between atoms: C_24  and  C_25 
REMARK    8  A    between atoms: C_29  and  O_30 
REMARK    9  A    between atoms: C_31  and  C_32 
REMARK   10  A    between atoms: C_38  and  O_39 
ROOT
HETATM    1  C   UNL     1      38.961 -12.410   2.825  1.00  0.00     0.142 C 
ENDROOT
BRANCH   1   2
HETATM    2  C   UNL     1      39.791 -11.335   2.112  1.00  0.00     0.151 C 
BRANCH   2   3
HETATM    3  N   UNL     1      40.585 -11.840   0.985  1.00  0.00    -0.291 N 
HETATM    4  C   UNL     1      41.913 -12.169   1.167  1.00  0.00     0.366 C 
HETATM    5  O   UNL     1      42.551 -12.200  -0.043  1.00  0.00    -0.287 OA
HETATM    6  O   UNL     1      42.476 -12.386   2.226  1.00  0.00    -0.238 OA
HETATM    7  C   UNL     1      41.552 -12.155  -1.104  1.00  0.00     0.126 C 
HETATM    8  C   UNL     1      42.248 -11.476  -2.294  1.00  0.00     0.082 C 
HETATM    9  C   UNL     1      40.411 -11.393  -0.372  1.00  0.00     0.166 C 
HETATM   10  C   UNL     1      41.266 -13.642  -1.437  1.00  0.00     0.082 C 
HETATM   11  C   UNL     1      41.605 -11.677  -3.671  1.00  0.00     0.122 C 
HETATM   12  N   UNL     1      41.370 -13.151  -3.892  1.00  0.00    -0.059 N 
HETATM   13  C   UNL     1      42.607 -11.242  -4.763  1.00  0.00     0.046 C 
HETATM   14  C   UNL     1      40.317 -10.888  -3.903  1.00  0.00     0.046 C 
HETATM   15  C   UNL     1      40.707 -13.992  -2.826  1.00  0.00     0.122 C 
HETATM   16  H   UNL     1      42.292 -13.576  -4.080  1.00  0.00     0.279 HD
HETATM   17  H   UNL     1      40.856 -13.279  -4.777  1.00  0.00     0.279 HD
HETATM   18  C   UNL     1      41.097 -15.456  -3.149  1.00  0.00     0.046 C 
HETATM   19  C   UNL     1      39.184 -13.911  -2.968  1.00  0.00     0.046 C 
HETATM   20  C   UNL     1      40.495  -9.863  -0.461  1.00  0.00     0.074 C 
BRANCH   9  21
HETATM   21  O   UNL     1      39.152 -11.831  -0.829  1.00  0.00    -0.368 OA
HETATM   22  H   UNL     1      39.058 -12.767  -0.583  1.00  0.00     0.212 HD
ENDBRANCH   9  21
ENDBRANCH   2   3
ENDBRANCH   1   2
BRANCH   1  23
HETATM   23  N   UNL     1      39.743 -13.292   3.667  1.00  0.00    -0.359 N 
HETATM   24  C   UNL     1      39.913 -13.032   5.005  1.00  0.00     0.217 C 
HETATM   25  O   UNL     1      39.468 -12.015   5.536  1.00  0.00    -0.274 OA
HETATM   26  H   UNL     1      40.115 -14.146   3.256  1.00  0.00     0.162 HD
BRANCH  24  27
HETATM   27  C   UNL     1      40.551 -14.124   5.842  1.00  0.00     0.107 C 
BRANCH  27  28
HETATM   28  C   UNL     1      40.076 -15.554   5.600  1.00  0.00     0.048 C 
BRANCH  28  29
HETATM   29  C   UNL     1      41.139 -16.573   5.265  1.00  0.00    -0.057 A 
HETATM   30  C   UNL     1      41.404 -16.957   3.945  1.00  0.00     0.018 A 
HETATM   31  C   UNL     1      42.451 -17.839   3.606  1.00  0.00    -0.016 A 
HETATM   32  C   UNL     1      43.261 -18.285   4.677  1.00  0.00     0.079 A 
HETATM   33  C   UNL     1      43.052 -17.911   6.028  1.00  0.00    -0.016 A 
HETATM   34  C   UNL     1      41.965 -17.058   6.285  1.00  0.00     0.018 A 
BRANCH  31  35
HETATM   35  C   UNL     1      42.713 -18.147   2.107  1.00  0.00    -0.021 C 
HETATM   36  C   UNL     1      41.484 -17.672   1.305  1.00  0.00     0.019 C 
HETATM   37  C   UNL     1      43.968 -17.476   1.500  1.00  0.00     0.019 C 
HETATM   38  C   UNL     1      42.908 -19.666   1.849  1.00  0.00     0.019 C 
ENDBRANCH  31  35
BRANCH  32  39
HETATM   39  O   UNL     1      44.334 -19.088   4.414  1.00  0.00    -0.360 OA
HETATM   40  H   UNL     1      44.572 -18.910   3.489  1.00  0.00     0.217 HD
ENDBRANCH  32  39
BRANCH  33  41
HETATM   41  C   UNL     1      43.987 -18.364   7.178  1.00  0.00    -0.021 C 
HETATM   42  C   UNL     1      43.629 -17.613   8.479  1.00  0.00     0.019 C 
HETATM   43  C   UNL     1      43.880 -19.877   7.509  1.00  0.00     0.019 C 
HETATM   44  C   UNL     1      45.469 -18.118   6.816  1.00  0.00     0.019 C 
ENDBRANCH  33  41
ENDBRANCH  28  29
ENDBRANCH  27  28
ENDBRANCH  24  27
ENDBRANCH   1  23
TORSDOF 10
ENDMDL
MODEL 7
REMARK VINA RESULT:      -9.0      5.381      9.963
REMARK  10 active torsions:
REMARK  status: ('A' for Active; 'I' for Inactive)
REMARK    1  A    between atoms: N_15  and  C_16 
REMARK    2  A    between atoms: C_16  and  C_17 
REMARK    3  A    between atoms: C_17  and  N_18 
REMARK       I    between atoms: N_18  and  C_19 
REMARK    4  A    between atoms: C_19  and  C_20 
REMARK    5  A    between atoms: C_20  and  C_21 
REMARK    6  A    between atoms: C_21  and  C_22 
REMARK    7  A    between atoms: C_24  and  C_25 
REMARK    8  A    between atoms: C_29  and  O_30 
REMARK    9  A    between atoms: C_31  and  C_32 
REMARK   10  A    between atoms: C_38  and  O_39 
ROOT
HETATM    1  C   UNL     1      38.940 -12.244   2.788  1.00  0.00     0.142 C 
ENDROOT
BRANCH   1   2
HETATM    2  C   UNL     1      39.735 -11.185   2.014  1.00  0.00     0.151 C 
BRANCH   2   3
HETATM    3  N   UNL     1      40.543 -11.727   0.914  1.00  0.00    -0.291 N 
HETATM    4  C   UNL     1      41.866 -12.059   1.126  1.00  0.00     0.366 C 
HETATM    5  O   UNL     1      42.521 -12.129  -0.072  1.00  0.00    -0.287 OA
HETATM    6  O   UNL     1      42.410 -12.250   2.200  1.00  0.00    -0.238 OA
HETATM    7  C   UNL     1      41.539 -12.107  -1.150  1.00  0.00     0.126 C 
HETATM    8  C   UNL     1      42.259 -11.467  -2.347  1.00  0.00     0.082 C 
HETATM    9  C   UNL     1      40.393 -11.317  -0.457  1.00  0.00     0.166 C 
HETATM   10  C   UNL     1      41.249 -13.601  -1.445  1.00  0.00     0.082 C 
HETATM   11  C   UNL     1      41.636 -11.703  -3.728  1.00  0.00     0.122 C 
HETATM   12  N   UNL     1      41.394 -13.181  -3.911  1.00  0.00    -0.059 N 
HETATM   13  C   UNL     1      42.657 -11.305  -4.815  1.00  0.00     0.046 C 
HETATM   14  C   UNL     1      40.357 -10.912  -4.002  1.00  0.00     0.046 C 
HETATM   15  C   UNL     1      40.709 -13.987  -2.832  1.00  0.00     0.122 C 
HETATM   16  H   UNL     1      42.315 -13.617  -4.073  1.00  0.00     0.279 HD
HETATM   17  H   UNL     1      40.892 -13.330  -4.800  1.00  0.00     0.279 HD
HETATM   18  C   UNL     1      41.093 -15.462  -3.108  1.00  0.00     0.046 C 
HETATM   19  C   UNL     1      39.189 -13.899  -3.000  1.00  0.00     0.046 C 
HETATM   20  C   UNL     1      40.488  -9.791  -0.588  1.00  0.00     0.074 C 
BRANCH   9  21
HETATM   21  O   UNL     1      39.138 -11.760  -0.921  1.00  0.00    -0.368 OA
HETATM   22  H   UNL     1      38.987 -12.651  -0.562  1.00  0.00     0.212 HD
ENDBRANCH   9  21
ENDBRANCH   2   3
ENDBRANCH   1   2
BRANCH   1  23
HETATM   23  N   UNL     1      39.742 -13.023   3.709  1.00  0.00    -0.359 N 
HETATM   24  C   UNL     1      39.565 -12.925   5.067  1.00  0.00     0.217 C 
HETATM   25  O   UNL     1      38.767 -12.131   5.567  1.00  0.00    -0.274 OA
HETATM   26  H   UNL     1      40.403 -13.695   3.322  1.00  0.00     0.162 HD
BRANCH  24  27
HETATM   27  C   UNL     1      40.288 -13.940   5.931  1.00  0.00     0.107 C 
BRANCH  27  28
HETATM   28  C   UNL     1      40.033 -15.414   5.634  1.00  0.00     0.048 C 
BRANCH  28  29
HETATM   29  C   UNL     1      41.238 -16.249   5.264  1.00  0.00    -0.057 A 
HETATM   30  C   UNL     1      42.080 -16.801   6.236  1.00  0.00     0.018 A 
HETATM   31  C   UNL     1      43.155 -17.655   5.914  1.00  0.00    -0.016 A 
HETATM   32  C   UNL     1      43.313 -17.968   4.543  1.00  0.00     0.079 A 
HETATM   33  C   UNL     1      42.476 -17.455   3.520  1.00  0.00    -0.016 A 
HETATM   34  C   UNL     1      41.451 -16.582   3.922  1.00  0.00     0.018 A 
BRANCH  31  35
HETATM   35  C   UNL     1      43.987 -18.278   7.067  1.00  0.00    -0.021 C 
HETATM   36  C   UNL     1      43.591 -17.562   8.375  1.00  0.00     0.019 C 
HETATM   37  C   UNL     1      43.799 -19.798   7.277  1.00  0.00     0.019 C 
HETATM   38  C   UNL     1      45.513 -18.090   6.851  1.00  0.00     0.019 C 
ENDBRANCH  31  35
BRANCH  32  39
HETATM   39  O   UNL     1      44.291 -18.841   4.164  1.00  0.00    -0.360 OA
HETATM   40  H   UNL     1      44.212 -18.919   3.199  1.00  0.00     0.217 HD
ENDBRANCH  32  39
BRANCH  33  41
HETATM   41  C   UNL     1      42.629 -17.858   2.031  1.00  0.00    -0.021 C 
HETATM   42  C   UNL     1      43.861 -17.158   1.416  1.00  0.00     0.019 C 
HETATM   43  C   UNL     1      42.845 -19.380   1.816  1.00  0.00     0.019 C 
HETATM   44  C   UNL     1      41.360 -17.496   1.227  1.00  0.00     0.019 C 
ENDBRANCH  33  41
ENDBRANCH  28  29
ENDBRANCH  27  28
ENDBRANCH  24  27
ENDBRANCH   1  23
TORSDOF 10
ENDMDL
MODEL 8
REMARK VINA RESULT:      -8.9      5.245      9.821
REMARK  10 active torsions:
REMARK  status: ('A' for Active; 'I' for Inactive)
REMARK    1  A    between atoms: N_15  and  C_16 
REMARK    2  A    between atoms: C_16  and  C_17 
REMARK    3  A    between atoms: C_17  and  N_18 
REMARK       I    between atoms: N_18  and  C_19 
REMARK    4  A    between atoms: C_19  and  C_20 
REMARK    5  A    between atoms: C_20  and  C_21 
REMARK    6  A    between atoms: C_21  and  C_22 
REMARK    7  A    between atoms: C_24  and  C_25 
REMARK    8  A    between atoms: C_29  and  O_30 
REMARK    9  A    between atoms: C_31  and  C_32 
REMARK   10  A    between atoms: C_38  and  O_39 
ROOT
HETATM    1  C   UNL     1      39.526 -11.094   3.396  1.00  0.00     0.142 C 
ENDROOT
BRANCH   1   2
HETATM    2  C   UNL     1      38.280 -11.578   2.644  1.00  0.00     0.151 C 
BRANCH   2   3
HETATM    3  N   UNL     1      38.496 -11.803   1.208  1.00  0.00    -0.291 N 
HETATM    4  C   UNL     1      37.517 -11.459   0.299  1.00  0.00     0.366 C 
HETATM    5  O   UNL     1      37.729 -12.121  -0.879  1.00  0.00    -0.287 OA
HETATM    6  O   UNL     1      36.579 -10.703   0.483  1.00  0.00    -0.238 OA
HETATM    7  C   UNL     1      39.056 -12.726  -0.849  1.00  0.00     0.126 C 
HETATM    8  C   UNL     1      38.961 -13.968  -1.749  1.00  0.00     0.082 C 
HETATM    9  C   UNL     1      39.229 -12.925   0.684  1.00  0.00     0.166 C 
HETATM   10  C   UNL     1      39.983 -11.669  -1.502  1.00  0.00     0.082 C 
HETATM   11  C   UNL     1      40.286 -14.551  -2.254  1.00  0.00     0.122 C 
HETATM   12  N   UNL     1      41.109 -13.444  -2.867  1.00  0.00    -0.059 N 
HETATM   13  C   UNL     1      39.994 -15.543  -3.401  1.00  0.00     0.046 C 
HETATM   14  C   UNL     1      41.100 -15.306  -1.204  1.00  0.00     0.046 C 
HETATM   15  C   UNL     1      41.305 -12.137  -2.134  1.00  0.00     0.122 C 
HETATM   16  H   UNL     1      40.675 -13.217  -3.775  1.00  0.00     0.279 HD
HETATM   17  H   UNL     1      42.035 -13.818  -3.124  1.00  0.00     0.279 HD
HETATM   18  C   UNL     1      41.713 -11.110  -3.218  1.00  0.00     0.046 C 
HETATM   19  C   UNL     1      42.495 -12.249  -1.176  1.00  0.00     0.046 C 
HETATM   20  C   UNL     1      38.674 -14.248   1.230  1.00  0.00     0.074 C 
BRANCH   9  21
HETATM   21  O   UNL     1      40.583 -12.786   1.050  1.00  0.00    -0.368 OA
HETATM   22  H   UNL     1      40.691 -11.909   1.455  1.00  0.00     0.212 HD
ENDBRANCH   9  21
ENDBRANCH   2   3
ENDBRANCH   1   2
BRANCH   1  23
HETATM   23  N   UNL     1      40.225 -12.142   4.110  1.00  0.00    -0.359 N 
HETATM   24  C   UNL     1      39.791 -12.578   5.339  1.00  0.00     0.217 C 
HETATM   25  O   UNL     1      38.836 -12.061   5.916  1.00  0.00    -0.274 OA
HETATM   26  H   UNL     1      41.013 -12.595   3.651  1.00  0.00     0.162 HD
BRANCH  24  27
HETATM   27  C   UNL     1      40.449 -13.825   5.897  1.00  0.00     0.107 C 
BRANCH  27  28
HETATM   28  C   UNL     1      40.119 -15.150   5.217  1.00  0.00     0.048 C 
BRANCH  28  29
HETATM   29  C   UNL     1      41.277 -16.087   4.960  1.00  0.00    -0.057 A 
HETATM   30  C   UNL     1      42.071 -16.582   6.001  1.00  0.00     0.018 A 
HETATM   31  C   UNL     1      43.099 -17.525   5.791  1.00  0.00    -0.016 A 
HETATM   32  C   UNL     1      43.257 -17.988   4.464  1.00  0.00     0.079 A 
HETATM   33  C   UNL     1      42.467 -17.538   3.376  1.00  0.00    -0.016 A 
HETATM   34  C   UNL     1      41.489 -16.570   3.665  1.00  0.00     0.018 A 
BRANCH  31  35
HETATM   35  C   UNL     1      43.876 -18.071   7.019  1.00  0.00    -0.021 C 
HETATM   36  C   UNL     1      43.420 -17.274   8.259  1.00  0.00     0.019 C 
HETATM   37  C   UNL     1      43.676 -19.575   7.318  1.00  0.00     0.019 C 
HETATM   38  C   UNL     1      45.410 -17.894   6.863  1.00  0.00     0.019 C 
ENDBRANCH  31  35
BRANCH  32  39
HETATM   39  O   UNL     1      44.187 -18.952   4.198  1.00  0.00    -0.360 OA
HETATM   40  H   UNL     1      45.031 -18.595   4.521  1.00  0.00     0.217 HD
ENDBRANCH  32  39
BRANCH  33  41
HETATM   41  C   UNL     1      42.617 -18.102   1.941  1.00  0.00    -0.021 C 
HETATM   42  C   UNL     1      43.800 -17.417   1.222  1.00  0.00     0.019 C 
HETATM   43  C   UNL     1      42.909 -19.626   1.897  1.00  0.00     0.019 C 
HETATM   44  C   UNL     1      41.318 -17.901   1.129  1.00  0.00     0.019 C 
ENDBRANCH  33  41
ENDBRANCH  28  29
ENDBRANCH  27  28
ENDBRANCH  24  27
ENDBRANCH   1  23
TORSDOF 10
ENDMDL
MODEL 9
REMARK VINA RESULT:      -8.9      1.861      4.341
REMARK  10 active torsions:
REMARK  status: ('A' for Active; 'I' for Inactive)
REMARK    1  A    between atoms: N_15  and  C_16 
REMARK    2  A    between atoms: C_16  and  C_17 
REMARK    3  A    between atoms: C_17  and  N_18 
REMARK       I    between atoms: N_18  and  C_19 
REMARK    4  A    between atoms: C_19  and  C_20 
REMARK    5  A    between atoms: C_20  and  C_21 
REMARK    6  A    between atoms: C_21  and  C_22 
REMARK    7  A    between atoms: C_24  and  C_25 
REMARK    8  A    between atoms: C_29  and  O_30 
REMARK    9  A    between atoms: C_31  and  C_32 
REMARK   10  A    between atoms: C_38  and  O_39 
ROOT
HETATM    1  C   UNL     1      40.585  -9.659   6.205  1.00  0.00     0.142 C 
ENDROOT
BRANCH   1   2
HETATM    2  C   UNL     1      39.776  -9.334   7.466  1.00  0.00     0.151 C 
BRANCH   2   3
HETATM    3  N   UNL     1      40.223 -10.051   8.667  1.00  0.00    -0.291 N 
HETATM    4  C   UNL     1      39.560 -11.188   9.080  1.00  0.00     0.366 C 
HETATM    5  O   UNL     1      39.849 -11.438  10.394  1.00  0.00    -0.287 OA
HETATM    6  O   UNL     1      38.809 -11.881   8.416  1.00  0.00    -0.238 OA
HETATM    7  C   UNL     1      40.961 -10.588  10.803  1.00  0.00     0.126 C 
HETATM    8  C   UNL     1      40.764 -10.352  12.309  1.00  0.00     0.082 C 
HETATM    9  C   UNL     1      40.763  -9.393   9.828  1.00  0.00     0.166 C 
HETATM   10  C   UNL     1      42.224 -11.454  10.564  1.00  0.00     0.082 C 
HETATM   11  C   UNL     1      41.989  -9.868  13.093  1.00  0.00     0.122 C 
HETATM   12  N   UNL     1      43.157 -10.775  12.789  1.00  0.00    -0.059 N 
HETATM   13  C   UNL     1      41.715 -10.027  14.604  1.00  0.00     0.046 C 
HETATM   14  C   UNL     1      42.370  -8.407  12.858  1.00  0.00     0.046 C 
HETATM   15  C   UNL     1      43.499 -11.134  11.362  1.00  0.00     0.122 C 
HETATM   16  H   UNL     1      42.985 -11.662  13.289  1.00  0.00     0.279 HD
HETATM   17  H   UNL     1      44.002 -10.397  13.244  1.00  0.00     0.279 HD
HETATM   18  C   UNL     1      44.352 -12.424  11.451  1.00  0.00     0.046 C 
HETATM   19  C   UNL     1      44.407 -10.059  10.756  1.00  0.00     0.046 C 
HETATM   20  C   UNL     1      39.814  -8.298  10.331  1.00  0.00     0.074 C 
BRANCH   9  21
HETATM   21  O   UNL     1      42.007  -8.827   9.483  1.00  0.00    -0.368 OA
HETATM   22  H   UNL     1      41.833  -8.035   8.946  1.00  0.00     0.212 HD
ENDBRANCH   9  21
ENDBRANCH   2   3
ENDBRANCH   1   2
BRANCH   1  23
HETATM   23  N   UNL     1      40.138 -10.851   5.512  1.00  0.00    -0.359 N 
HETATM   24  C   UNL     1      40.816 -12.040   5.631  1.00  0.00     0.217 C 
HETATM   25  O   UNL     1      41.861 -12.136   6.274  1.00  0.00    -0.274 OA
HETATM   26  H   UNL     1      39.271 -10.802   4.981  1.00  0.00     0.162 HD
BRANCH  24  27
HETATM   27  C   UNL     1      40.146 -13.273   5.057  1.00  0.00     0.107 C 
BRANCH  27  28
HETATM   28  C   UNL     1      40.325 -14.582   5.820  1.00  0.00     0.048 C 
BRANCH  28  29
HETATM   29  C   UNL     1      41.417 -15.506   5.333  1.00  0.00    -0.057 A 
HETATM   30  C   UNL     1      42.184 -16.273   6.218  1.00  0.00     0.018 A 
HETATM   31  C   UNL     1      43.146 -17.206   5.778  1.00  0.00    -0.016 A 
HETATM   32  C   UNL     1      43.264 -17.366   4.377  1.00  0.00     0.079 A 
HETATM   33  C   UNL     1      42.497 -16.633   3.437  1.00  0.00    -0.016 A 
HETATM   34  C   UNL     1      41.588 -15.696   3.958  1.00  0.00     0.018 A 
BRANCH  31  35
HETATM   35  C   UNL     1      43.894 -18.063   6.834  1.00  0.00    -0.021 C 
HETATM   36  C   UNL     1      43.496 -17.544   8.231  1.00  0.00     0.019 C 
HETATM   37  C   UNL     1      43.603 -19.582   6.787  1.00  0.00     0.019 C 
HETATM   38  C   UNL     1      45.436 -17.948   6.692  1.00  0.00     0.019 C 
ENDBRANCH  31  35
BRANCH  32  39
HETATM   39  O   UNL     1      44.127 -18.300   3.880  1.00  0.00    -0.360 OA
HETATM   40  H   UNL     1      43.945 -19.113   4.380  1.00  0.00     0.217 HD
ENDBRANCH  32  39
BRANCH  33  41
HETATM   41  C   UNL     1      42.599 -16.865   1.908  1.00  0.00    -0.021 C 
HETATM   42  C   UNL     1      42.088 -15.621   1.147  1.00  0.00     0.019 C 
HETATM   43  C   UNL     1      44.049 -17.110   1.410  1.00  0.00     0.019 C 
HETATM   44  C   UNL     1      41.794 -18.113   1.483  1.00  0.00     0.019 C 
ENDBRANCH  33  41
ENDBRANCH  28  29
ENDBRANCH  27  28
ENDBRANCH  24  27
ENDBRANCH   1  23
TORSDOF 10
ENDMDL
MODEL 10
REMARK VINA RESULT:      -8.9      4.876      7.347
REMARK  10 active torsions:
REMARK  status: ('A' for Active; 'I' for Inactive)
REMARK    1  A    between atoms: N_15  and  C_16 
REMARK    2  A    between atoms: C_16  and  C_17 
REMARK    3  A    between atoms: C_17  and  N_18 
REMARK       I    between atoms: N_18  and  C_19 
REMARK    4  A    between atoms: C_19  and  C_20 
REMARK    5  A    between atoms: C_20  and  C_21 
REMARK    6  A    between atoms: C_21  and  C_22 
REMARK    7  A    between atoms: C_24  and  C_25 
REMARK    8  A    between atoms: C_29  and  O_30 
REMARK    9  A    between atoms: C_31  and  C_32 
REMARK   10  A    between atoms: C_38  and  O_39 
ROOT
HETATM    1  C   UNL     1      41.838 -13.404  -1.180  1.00  0.00     0.142 C 
ENDROOT
BRANCH   1   2
HETATM    2  C   UNL     1      40.757 -12.408  -0.741  1.00  0.00     0.151 C 
BRANCH   2   3
HETATM    3  N   UNL     1      40.256 -12.630   0.621  1.00  0.00    -0.291 N 
HETATM    4  C   UNL     1      38.958 -13.055   0.821  1.00  0.00     0.366 C 
HETATM    5  O   UNL     1      38.579 -12.790   2.108  1.00  0.00    -0.287 OA
HETATM    6  O   UNL     1      38.222 -13.571  -0.002  1.00  0.00    -0.238 OA
HETATM    7  C   UNL     1      39.759 -12.418   2.881  1.00  0.00     0.126 C 
HETATM    8  C   UNL     1      39.247 -11.479   3.984  1.00  0.00     0.082 C 
HETATM    9  C   UNL     1      40.650 -11.829   1.750  1.00  0.00     0.166 C 
HETATM   10  C   UNL     1      40.252 -13.748   3.506  1.00  0.00     0.082 C 
HETATM   11  C   UNL     1      40.167 -11.276   5.193  1.00  0.00     0.122 C 
HETATM   12  N   UNL     1      40.588 -12.626   5.721  1.00  0.00    -0.059 N 
HETATM   13  C   UNL     1      39.363 -10.611   6.331  1.00  0.00     0.046 C 
HETATM   14  C   UNL     1      41.389 -10.397   4.934  1.00  0.00     0.046 C 
HETATM   15  C   UNL     1      41.107 -13.690   4.783  1.00  0.00     0.122 C 
HETATM   16  H   UNL     1      39.769 -13.026   6.206  1.00  0.00     0.279 HD
HETATM   17  H   UNL     1      41.277 -12.489   6.477  1.00  0.00     0.279 HD
HETATM   18  C   UNL     1      40.939 -15.030   5.540  1.00  0.00     0.046 C 
HETATM   19  C   UNL     1      42.612 -13.505   4.565  1.00  0.00     0.046 C 
HETATM   20  C   UNL     1      40.432 -10.336   1.469  1.00  0.00     0.074 C 
BRANCH   9  21
HETATM   21  O   UNL     1      42.012 -12.072   2.018  1.00  0.00    -0.368 OA
HETATM   22  H   UNL     1      42.292 -11.453   2.715  1.00  0.00     0.212 HD
ENDBRANCH   9  21
ENDBRANCH   2   3
ENDBRANCH   1   2
BRANCH   1  23
HETATM   23  N   UNL     1      42.088 -14.460  -0.220  1.00  0.00    -0.359 N 
HETATM   24  C   UNL     1      41.495 -15.693  -0.348  1.00  0.00     0.217 C 
HETATM   25  O   UNL     1      40.682 -15.939  -1.237  1.00  0.00    -0.274 OA
HETATM   26  H   UNL     1      42.764 -14.286   0.521  1.00  0.00     0.162 HD
BRANCH  24  27
HETATM   27  C   UNL     1      41.993 -16.793   0.570  1.00  0.00     0.107 C 
BRANCH  27  28
HETATM   28  C   UNL     1      42.960 -16.390   1.679  1.00  0.00     0.048 C 
BRANCH  28  29
HETATM   29  C   UNL     1      43.300 -17.451   2.700  1.00  0.00    -0.057 A 
HETATM   30  C   UNL     1      43.579 -18.771   2.328  1.00  0.00     0.018 A 
HETATM   31  C   UNL     1      43.985 -19.753   3.256  1.00  0.00    -0.016 A 
HETATM   32  C   UNL     1      44.144 -19.317   4.593  1.00  0.00     0.079 A 
HETATM   33  C   UNL     1      43.897 -17.989   5.021  1.00  0.00    -0.016 A 
HETATM   34  C   UNL     1      43.461 -17.081   4.040  1.00  0.00     0.018 A 
BRANCH  31  35
HETATM   35  C   UNL     1      44.343 -21.171   2.737  1.00  0.00    -0.021 C 
HETATM   36  C   UNL     1      45.727 -21.089   2.060  1.00  0.00     0.019 C 
HETATM   37  C   UNL     1      44.403 -22.279   3.814  1.00  0.00     0.019 C 
HETATM   38  C   UNL     1      43.318 -21.685   1.691  1.00  0.00     0.019 C 
ENDBRANCH  31  35
BRANCH  32  39
HETATM   39  O   UNL     1      44.599 -20.197   5.533  1.00  0.00    -0.360 OA
HETATM   40  H   UNL     1      43.828 -20.734   5.782  1.00  0.00     0.217 HD
ENDBRANCH  32  39
BRANCH  33  41
HETATM   41  C   UNL     1      44.135 -17.518   6.478  1.00  0.00    -0.021 C 
HETATM   42  C   UNL     1      45.449 -18.122   7.022  1.00  0.00     0.019 C 
HETATM   43  C   UNL     1      44.275 -15.979   6.621  1.00  0.00     0.019 C 
HETATM   44  C   UNL     1      42.953 -17.919   7.389  1.00  0.00     0.019 C 
ENDBRANCH  33  41
ENDBRANCH  28  29
ENDBRANCH  27  28
ENDBRANCH  24  27
ENDBRANCH   1  23
TORSDOF 10
ENDMDL
