MODEL 1
REMARK VINA RESULT:      -8.2      0.000      0.000
REMARK  9 active torsions:
REMARK  status: ('A' for Active; 'I' for Inactive)
REMARK    1  A    between atoms: C_2  and  O_3 
REMARK    2  A    between atoms: O_3  and  C_4 
REMARK    3  A    between atoms: C_7  and  N_8 
REMARK       I    between atoms: N_8  and  C_9 
REMARK    4  A    between atoms: C_9  and  C_10 
REMARK    5  A    between atoms: C_11  and  N_12 
REMARK       I    between atoms: N_12  and  C_13 
REMARK    6  A    between atoms: C_13  and  C_14 
REMARK    7  A    between atoms: C_14  and  N_15 
REMARK    8  A    between atoms: N_15  and  C_18 
REMARK    9  A    between atoms: C_18  and  C_19 
ROOT
HETATM    1  C   UNL     1      42.931 -12.704   6.865  1.00  0.00     0.073 A 
HETATM    2  C   UNL     1      41.823 -12.071   6.307  1.00  0.00     0.093 A 
HETATM    3  S   UNL     1      41.362 -10.682   7.162  1.00  0.00    -0.075 SA
HETATM    4  C   UNL     1      42.517 -10.956   8.370  1.00  0.00    -0.008 A 
HETATM    5  C   UNL     1      43.281 -12.085   8.131  1.00  0.00    -0.026 A 
HETATM    6  C   UNL     1      44.303 -12.542   9.138  1.00  0.00     0.041 C 
HETATM    7  C   UNL     1      44.063 -11.927  10.525  1.00  0.00     0.009 C 
HETATM    8  C   UNL     1      43.850 -10.404  10.423  1.00  0.00    -0.014 C 
HETATM    9  C   UNL     1      43.746  -9.776  11.811  1.00  0.00     0.010 C 
HETATM   10  C   UNL     1      42.594 -10.079   9.586  1.00  0.00     0.051 C 
ENDROOT
BRANCH   2  11
HETATM   11  N   UNL     1      41.135 -12.490   5.173  1.00  0.00    -0.319 N 
HETATM   12  C   UNL     1      40.375 -13.630   5.043  1.00  0.00     0.248 C 
HETATM   13  O   UNL     1      40.093 -14.471   5.896  1.00  0.00    -0.271 OA
HETATM   14  H   UNL     1      41.314 -11.897   4.358  1.00  0.00     0.169 HD
BRANCH  12  15
HETATM   15  C   UNL     1      39.824 -13.850   3.632  1.00  0.00     0.335 C 
BRANCH  15  16
HETATM   16  N   UNL     1      39.776 -15.325   3.318  1.00  0.00    -0.063 N 
HETATM   17  H   UNL     1      40.314 -15.883   3.990  1.00  0.00     0.278 HD
HETATM   18  H   UNL     1      38.787 -15.608   3.424  1.00  0.00     0.278 HD
BRANCH  16  19
HETATM   19  C   UNL     1      40.161 -15.686   1.926  1.00  0.00     0.271 C 
BRANCH  19  20
HETATM   20  C   UNL     1      41.480 -16.402   1.908  1.00  0.00    -0.033 A 
HETATM   21  C   UNL     1      41.545 -17.759   1.551  1.00  0.00     0.009 A 
HETATM   22  C   UNL     1      42.765 -18.434   1.564  1.00  0.00     0.001 A 
HETATM   23  C   UNL     1      43.928 -17.768   1.943  1.00  0.00     0.000 A 
HETATM   24  C   UNL     1      43.875 -16.425   2.309  1.00  0.00     0.001 A 
HETATM   25  C   UNL     1      42.657 -15.743   2.296  1.00  0.00     0.009 A 
ENDBRANCH  19  20
ENDBRANCH  16  19
ENDBRANCH  15  16
ENDBRANCH  12  15
ENDBRANCH   2  11
BRANCH   1  26
HETATM   26  C   UNL     1      43.546 -13.878   6.217  1.00  0.00     0.259 C 
HETATM   27  N   UNL     1      43.186 -15.078   6.786  1.00  0.00    -0.323 N 
HETATM   28  H   UNL     1      42.706 -15.026   7.673  1.00  0.00     0.169 HD
HETATM   29  O   UNL     1      44.366 -13.721   5.315  1.00  0.00    -0.267 OA
BRANCH  27  30
HETATM   30  C   UNL     1      43.432 -16.381   6.315  1.00  0.00     0.035 A 
HETATM   31  C   UNL     1      42.478 -17.187   5.699  1.00  0.00     0.032 A 
HETATM   32  C   UNL     1      42.802 -18.498   5.325  1.00  0.00     0.039 A 
HETATM   33  C   UNL     1      44.076 -19.021   5.563  1.00  0.00     0.068 A 
HETATM   34  C   UNL     1      45.036 -18.210   6.161  1.00  0.00     0.039 A 
HETATM   35  C   UNL     1      44.714 -16.901   6.536  1.00  0.00     0.032 A 
BRANCH  33  36
HETATM   36  O   UNL     1      44.250 -20.320   5.175  1.00  0.00    -0.352 OA
BRANCH  36  37
HETATM   37  C   UNL     1      45.046 -20.547   4.010  1.00  0.00     0.171 C 
HETATM   38  C   UNL     1      44.550 -21.813   3.336  1.00  0.00     0.034 C 
ENDBRANCH  36  37
ENDBRANCH  33  36
ENDBRANCH  27  30
ENDBRANCH   1  26
TORSDOF 9
ENDMDL
MODEL 2
REMARK VINA RESULT:      -8.2      1.810      7.172
REMARK  9 active torsions:
REMARK  status: ('A' for Active; 'I' for Inactive)
REMARK    1  A    between atoms: C_2  and  O_3 
REMARK    2  A    between atoms: O_3  and  C_4 
REMARK    3  A    between atoms: C_7  and  N_8 
REMARK       I    between atoms: N_8  and  C_9 
REMARK    4  A    between atoms: C_9  and  C_10 
REMARK    5  A    between atoms: C_11  and  N_12 
REMARK       I    between atoms: N_12  and  C_13 
REMARK    6  A    between atoms: C_13  and  C_14 
REMARK    7  A    between atoms: C_14  and  N_15 
REMARK    8  A    between atoms: N_15  and  C_18 
REMARK    9  A    between atoms: C_18  and  C_19 
ROOT
HETATM    1  C   UNL     1      40.830 -14.711   4.192  1.00  0.00     0.073 A 
HETATM    2  C   UNL     1      41.341 -13.679   4.975  1.00  0.00     0.093 A 
HETATM    3  S   UNL     1      40.583 -12.193   4.673  1.00  0.00    -0.075 SA
HETATM    4  C   UNL     1      39.665 -12.838   3.405  1.00  0.00    -0.008 A 
HETATM    5  C   UNL     1      39.899 -14.187   3.209  1.00  0.00    -0.026 A 
HETATM    6  C   UNL     1      39.240 -14.919   2.070  1.00  0.00     0.041 C 
HETATM    7  C   UNL     1      38.713 -13.958   0.993  1.00  0.00     0.009 C 
HETATM    8  C   UNL     1      37.895 -12.816   1.626  1.00  0.00    -0.014 C 
HETATM    9  C   UNL     1      37.262 -11.940   0.547  1.00  0.00     0.010 C 
HETATM   10  C   UNL     1      38.774 -11.966   2.568  1.00  0.00     0.051 C 
ENDROOT
BRANCH   2  11
HETATM   11  N   UNL     1      42.357 -13.800   5.916  1.00  0.00    -0.319 N 
HETATM   12  C   UNL     1      43.710 -13.844   5.668  1.00  0.00     0.248 C 
HETATM   13  O   UNL     1      44.303 -13.722   4.597  1.00  0.00    -0.271 OA
HETATM   14  H   UNL     1      42.004 -13.953   6.865  1.00  0.00     0.169 HD
BRANCH  12  15
HETATM   15  C   UNL     1      44.562 -14.076   6.918  1.00  0.00     0.335 C 
BRANCH  15  16
HETATM   16  N   UNL     1      44.000 -13.296   8.081  1.00  0.00    -0.063 N 
HETATM   17  H   UNL     1      43.139 -12.795   7.833  1.00  0.00     0.278 HD
HETATM   18  H   UNL     1      43.739 -13.996   8.796  1.00  0.00     0.278 HD
BRANCH  16  19
HETATM   19  C   UNL     1      44.960 -12.370   8.742  1.00  0.00     0.271 C 
BRANCH  19  20
HETATM   20  C   UNL     1      44.239 -11.411   9.644  1.00  0.00    -0.033 A 
HETATM   21  C   UNL     1      44.756 -11.111  10.915  1.00  0.00     0.009 A 
HETATM   22  C   UNL     1      44.071 -10.246  11.769  1.00  0.00     0.001 A 
HETATM   23  C   UNL     1      42.863  -9.682  11.369  1.00  0.00     0.000 A 
HETATM   24  C   UNL     1      42.335  -9.980  10.115  1.00  0.00     0.001 A 
HETATM   25  C   UNL     1      43.016 -10.843   9.255  1.00  0.00     0.009 A 
ENDBRANCH  19  20
ENDBRANCH  16  19
ENDBRANCH  15  16
ENDBRANCH  12  15
ENDBRANCH   2  11
BRANCH   1  26
HETATM   26  C   UNL     1      41.290 -16.102   4.370  1.00  0.00     0.259 C 
HETATM   27  N   UNL     1      42.069 -16.566   3.334  1.00  0.00    -0.323 N 
HETATM   28  H   UNL     1      42.089 -15.995   2.500  1.00  0.00     0.169 HD
HETATM   29  O   UNL     1      40.901 -16.758   5.334  1.00  0.00    -0.267 OA
BRANCH  27  30
HETATM   30  C   UNL     1      42.815 -17.756   3.262  1.00  0.00     0.035 A 
HETATM   31  C   UNL     1      43.817 -18.110   4.161  1.00  0.00     0.032 A 
HETATM   32  C   UNL     1      44.551 -19.287   3.966  1.00  0.00     0.039 A 
HETATM   33  C   UNL     1      44.299 -20.121   2.874  1.00  0.00     0.068 A 
HETATM   34  C   UNL     1      43.284 -19.779   1.985  1.00  0.00     0.039 A 
HETATM   35  C   UNL     1      42.550 -18.603   2.177  1.00  0.00     0.032 A 
BRANCH  33  36
HETATM   36  O   UNL     1      45.106 -21.221   2.787  1.00  0.00    -0.352 OA
BRANCH  36  37
HETATM   37  C   UNL     1      44.528 -22.478   3.145  1.00  0.00     0.171 C 
HETATM   38  C   UNL     1      44.699 -22.670   4.641  1.00  0.00     0.034 C 
ENDBRANCH  36  37
ENDBRANCH  33  36
ENDBRANCH  27  30
ENDBRANCH   1  26
TORSDOF 9
ENDMDL
MODEL 3
REMARK VINA RESULT:      -7.8      3.279      7.524
REMARK  9 active torsions:
REMARK  status: ('A' for Active; 'I' for Inactive)
REMARK    1  A    between atoms: C_2  and  O_3 
REMARK    2  A    between atoms: O_3  and  C_4 
REMARK    3  A    between atoms: C_7  and  N_8 
REMARK       I    between atoms: N_8  and  C_9 
REMARK    4  A    between atoms: C_9  and  C_10 
REMARK    5  A    between atoms: C_11  and  N_12 
REMARK       I    between atoms: N_12  and  C_13 
REMARK    6  A    between atoms: C_13  and  C_14 
REMARK    7  A    between atoms: C_14  and  N_15 
REMARK    8  A    between atoms: N_15  and  C_18 
REMARK    9  A    between atoms: C_18  and  C_19 
ROOT
HETATM    1  C   UNL     1      43.199 -16.026   3.940  1.00  0.00     0.073 A 
HETATM    2  C   UNL     1      42.809 -15.635   5.219  1.00  0.00     0.093 A 
HETATM    3  S   UNL     1      43.181 -16.794   6.399  1.00  0.00    -0.075 SA
HETATM    4  C   UNL     1      43.734 -17.900   5.241  1.00  0.00    -0.008 A 
HETATM    5  C   UNL     1      43.668 -17.401   3.953  1.00  0.00    -0.026 A 
HETATM    6  C   UNL     1      44.034 -18.268   2.778  1.00  0.00     0.041 C 
HETATM    7  C   UNL     1      44.025 -19.762   3.138  1.00  0.00     0.009 C 
HETATM    8  C   UNL     1      44.810 -20.020   4.439  1.00  0.00    -0.014 C 
HETATM    9  C   UNL     1      44.914 -21.517   4.722  1.00  0.00     0.010 C 
HETATM   10  C   UNL     1      44.157 -19.287   5.630  1.00  0.00     0.051 C 
ENDROOT
BRANCH   2  11
HETATM   11  N   UNL     1      42.182 -14.438   5.546  1.00  0.00    -0.319 N 
HETATM   12  C   UNL     1      40.830 -14.229   5.697  1.00  0.00     0.248 C 
HETATM   13  O   UNL     1      39.912 -15.046   5.641  1.00  0.00    -0.271 OA
HETATM   14  H   UNL     1      42.831 -13.648   5.585  1.00  0.00     0.169 HD
BRANCH  12  15
HETATM   15  C   UNL     1      40.456 -12.770   5.969  1.00  0.00     0.335 C 
BRANCH  15  16
HETATM   16  N   UNL     1      39.409 -12.311   4.984  1.00  0.00    -0.063 N 
HETATM   17  H   UNL     1      38.621 -12.965   4.921  1.00  0.00     0.278 HD
HETATM   18  H   UNL     1      39.029 -11.426   5.361  1.00  0.00     0.278 HD
BRANCH  16  19
HETATM   19  C   UNL     1      39.920 -11.993   3.622  1.00  0.00     0.271 C 
BRANCH  19  20
HETATM   20  C   UNL     1      39.098 -12.678   2.571  1.00  0.00    -0.033 A 
HETATM   21  C   UNL     1      38.212 -11.937   1.771  1.00  0.00     0.009 A 
HETATM   22  C   UNL     1      37.422 -12.577   0.815  1.00  0.00     0.001 A 
HETATM   23  C   UNL     1      37.500 -13.958   0.656  1.00  0.00     0.000 A 
HETATM   24  C   UNL     1      38.367 -14.704   1.450  1.00  0.00     0.001 A 
HETATM   25  C   UNL     1      39.162 -14.071   2.407  1.00  0.00     0.009 A 
ENDBRANCH  19  20
ENDBRANCH  16  19
ENDBRANCH  15  16
ENDBRANCH  12  15
ENDBRANCH   2  11
BRANCH   1  26
HETATM   26  C   UNL     1      43.048 -15.119   2.787  1.00  0.00     0.259 C 
HETATM   27  N   UNL     1      42.380 -15.680   1.722  1.00  0.00    -0.323 N 
HETATM   28  H   UNL     1      42.232 -16.678   1.764  1.00  0.00     0.169 HD
HETATM   29  O   UNL     1      43.575 -14.008   2.807  1.00  0.00    -0.267 OA
BRANCH  27  30
HETATM   30  C   UNL     1      41.905 -15.054   0.555  1.00  0.00     0.035 A 
HETATM   31  C   UNL     1      41.871 -13.675   0.363  1.00  0.00     0.032 A 
HETATM   32  C   UNL     1      41.317 -13.144  -0.809  1.00  0.00     0.039 A 
HETATM   33  C   UNL     1      40.788 -13.977  -1.798  1.00  0.00     0.068 A 
HETATM   34  C   UNL     1      40.840 -15.356  -1.616  1.00  0.00     0.039 A 
HETATM   35  C   UNL     1      41.392 -15.889  -0.446  1.00  0.00     0.032 A 
BRANCH  33  36
HETATM   36  O   UNL     1      40.253 -13.328  -2.876  1.00  0.00    -0.352 OA
BRANCH  36  37
HETATM   37  C   UNL     1      38.972 -12.722  -2.696  1.00  0.00     0.171 C 
HETATM   38  C   UNL     1      37.911 -13.717  -3.129  1.00  0.00     0.034 C 
ENDBRANCH  36  37
ENDBRANCH  33  36
ENDBRANCH  27  30
ENDBRANCH   1  26
TORSDOF 9
ENDMDL
MODEL 4
REMARK VINA RESULT:      -7.8      3.345      7.894
REMARK  9 active torsions:
REMARK  status: ('A' for Active; 'I' for Inactive)
REMARK    1  A    between atoms: C_2  and  O_3 
REMARK    2  A    between atoms: O_3  and  C_4 
REMARK    3  A    between atoms: C_7  and  N_8 
REMARK       I    between atoms: N_8  and  C_9 
REMARK    4  A    between atoms: C_9  and  C_10 
REMARK    5  A    between atoms: C_11  and  N_12 
REMARK       I    between atoms: N_12  and  C_13 
REMARK    6  A    between atoms: C_13  and  C_14 
REMARK    7  A    between atoms: C_14  and  N_15 
REMARK    8  A    between atoms: N_15  and  C_18 
REMARK    9  A    between atoms: C_18  and  C_19 
ROOT
HETATM    1  C   UNL     1      43.577 -17.321   3.364  1.00  0.00     0.073 A 
HETATM    2  C   UNL     1      43.137 -16.684   4.521  1.00  0.00     0.093 A 
HETATM    3  S   UNL     1      43.418 -17.599   5.920  1.00  0.00    -0.075 SA
HETATM    4  C   UNL     1      43.995 -18.918   5.028  1.00  0.00    -0.008 A 
HETATM    5  C   UNL     1      44.006 -18.676   3.666  1.00  0.00    -0.026 A 
HETATM    6  C   UNL     1      44.405 -19.761   2.700  1.00  0.00     0.041 C 
HETATM    7  C   UNL     1      44.336 -21.156   3.340  1.00  0.00     0.009 C 
HETATM    8  C   UNL     1      45.049 -21.172   4.707  1.00  0.00    -0.014 C 
HETATM    9  C   UNL     1      45.097 -22.588   5.277  1.00  0.00     0.010 C 
HETATM   10  C   UNL     1      44.359 -20.211   5.698  1.00  0.00     0.051 C 
ENDROOT
BRANCH   2  11
HETATM   11  N   UNL     1      42.529 -15.435   4.578  1.00  0.00    -0.319 N 
HETATM   12  C   UNL     1      43.123 -14.243   4.926  1.00  0.00     0.248 C 
HETATM   13  O   UNL     1      44.304 -14.018   5.190  1.00  0.00    -0.271 OA
HETATM   14  H   UNL     1      41.519 -15.476   4.419  1.00  0.00     0.169 HD
BRANCH  12  15
HETATM   15  C   UNL     1      42.154 -13.060   4.982  1.00  0.00     0.335 C 
BRANCH  15  16
HETATM   16  N   UNL     1      40.789 -13.486   4.500  1.00  0.00    -0.063 N 
HETATM   17  H   UNL     1      40.833 -14.294   3.870  1.00  0.00     0.278 HD
HETATM   18  H   UNL     1      40.273 -13.796   5.342  1.00  0.00     0.278 HD
BRANCH  16  19
HETATM   19  C   UNL     1      39.969 -12.403   3.889  1.00  0.00     0.271 C 
BRANCH  19  20
HETATM   20  C   UNL     1      39.193 -12.922   2.715  1.00  0.00    -0.033 A 
HETATM   21  C   UNL     1      38.547 -12.030   1.843  1.00  0.00     0.009 A 
HETATM   22  C   UNL     1      37.798 -12.511   0.770  1.00  0.00     0.001 A 
HETATM   23  C   UNL     1      37.677 -13.882   0.561  1.00  0.00     0.000 A 
HETATM   24  C   UNL     1      38.305 -14.777   1.424  1.00  0.00     0.001 A 
HETATM   25  C   UNL     1      39.058 -14.303   2.500  1.00  0.00     0.009 A 
ENDBRANCH  19  20
ENDBRANCH  16  19
ENDBRANCH  15  16
ENDBRANCH  12  15
ENDBRANCH   2  11
BRANCH   1  26
HETATM   26  C   UNL     1      43.510 -16.652   2.051  1.00  0.00     0.259 C 
HETATM   27  N   UNL     1      42.259 -16.169   1.738  1.00  0.00    -0.323 N 
HETATM   28  H   UNL     1      41.501 -16.476   2.330  1.00  0.00     0.169 HD
HETATM   29  O   UNL     1      44.495 -16.642   1.316  1.00  0.00    -0.267 OA
BRANCH  27  30
HETATM   30  C   UNL     1      41.884 -15.330   0.673  1.00  0.00     0.035 A 
HETATM   31  C   UNL     1      41.994 -13.942   0.690  1.00  0.00     0.032 A 
HETATM   32  C   UNL     1      41.530 -13.188  -0.396  1.00  0.00     0.039 A 
HETATM   33  C   UNL     1      40.949 -13.806  -1.506  1.00  0.00     0.068 A 
HETATM   34  C   UNL     1      40.856 -15.194  -1.534  1.00  0.00     0.039 A 
HETATM   35  C   UNL     1      41.318 -15.949  -0.450  1.00  0.00     0.032 A 
BRANCH  33  36
HETATM   36  O   UNL     1      40.514 -12.952  -2.481  1.00  0.00    -0.352 OA
BRANCH  36  37
HETATM   37  C   UNL     1      39.626 -13.490  -3.463  1.00  0.00     0.171 C 
HETATM   38  C   UNL     1      38.204 -13.158  -3.050  1.00  0.00     0.034 C 
ENDBRANCH  36  37
ENDBRANCH  33  36
ENDBRANCH  27  30
ENDBRANCH   1  26
TORSDOF 9
ENDMDL
MODEL 5
REMARK VINA RESULT:      -7.8      2.968      9.018
REMARK  9 active torsions:
REMARK  status: ('A' for Active; 'I' for Inactive)
REMARK    1  A    between atoms: C_2  and  O_3 
REMARK    2  A    between atoms: O_3  and  C_4 
REMARK    3  A    between atoms: C_7  and  N_8 
REMARK       I    between atoms: N_8  and  C_9 
REMARK    4  A    between atoms: C_9  and  C_10 
REMARK    5  A    between atoms: C_11  and  N_12 
REMARK       I    between atoms: N_12  and  C_13 
REMARK    6  A    between atoms: C_13  and  C_14 
REMARK    7  A    between atoms: C_14  and  N_15 
REMARK    8  A    between atoms: N_15  and  C_18 
REMARK    9  A    between atoms: C_18  and  C_19 
ROOT
HETATM    1  C   UNL     1      42.894 -16.585   3.337  1.00  0.00     0.073 A 
HETATM    2  C   UNL     1      42.847 -16.291   4.697  1.00  0.00     0.093 A 
HETATM    3  S   UNL     1      43.507 -17.524   5.656  1.00  0.00    -0.075 SA
HETATM    4  C   UNL     1      43.740 -18.537   4.319  1.00  0.00    -0.008 A 
HETATM    5  C   UNL     1      43.346 -17.949   3.130  1.00  0.00    -0.026 A 
HETATM    6  C   UNL     1      43.396 -18.726   1.841  1.00  0.00     0.041 C 
HETATM    7  C   UNL     1      43.476 -20.242   2.083  1.00  0.00     0.009 C 
HETATM    8  C   UNL     1      44.568 -20.578   3.117  1.00  0.00    -0.014 C 
HETATM    9  C   UNL     1      44.737 -22.089   3.256  1.00  0.00     0.010 C 
HETATM   10  C   UNL     1      44.245 -19.941   4.485  1.00  0.00     0.051 C 
ENDROOT
BRANCH   2  11
HETATM   11  N   UNL     1      42.329 -15.130   5.260  1.00  0.00    -0.319 N 
HETATM   12  C   UNL     1      43.009 -13.960   5.512  1.00  0.00     0.248 C 
HETATM   13  O   UNL     1      44.174 -13.672   5.241  1.00  0.00    -0.271 OA
HETATM   14  H   UNL     1      41.362 -15.239   5.577  1.00  0.00     0.169 HD
BRANCH  12  15
HETATM   15  C   UNL     1      42.171 -12.898   6.226  1.00  0.00     0.335 C 
BRANCH  15  16
HETATM   16  N   UNL     1      42.939 -12.332   7.396  1.00  0.00    -0.063 N 
HETATM   17  H   UNL     1      43.046 -13.013   8.156  1.00  0.00     0.278 HD
HETATM   18  H   UNL     1      43.890 -12.131   7.043  1.00  0.00     0.278 HD
BRANCH  16  19
HETATM   19  C   UNL     1      42.416 -11.045   7.930  1.00  0.00     0.271 C 
BRANCH  19  20
HETATM   20  C   UNL     1      42.946 -10.788   9.311  1.00  0.00    -0.033 A 
HETATM   21  C   UNL     1      42.171 -10.083  10.246  1.00  0.00     0.009 A 
HETATM   22  C   UNL     1      42.674  -9.814  11.519  1.00  0.00     0.001 A 
HETATM   23  C   UNL     1      43.954 -10.236  11.868  1.00  0.00     0.000 A 
HETATM   24  C   UNL     1      44.736 -10.927  10.945  1.00  0.00     0.001 A 
HETATM   25  C   UNL     1      44.238 -11.200   9.670  1.00  0.00     0.009 A 
ENDBRANCH  19  20
ENDBRANCH  16  19
ENDBRANCH  15  16
ENDBRANCH  12  15
ENDBRANCH   2  11
BRANCH   1  26
HETATM   26  C   UNL     1      42.454 -15.601   2.329  1.00  0.00     0.259 C 
HETATM   27  N   UNL     1      41.371 -16.014   1.586  1.00  0.00    -0.323 N 
HETATM   28  H   UNL     1      41.115 -16.987   1.672  1.00  0.00     0.169 HD
HETATM   29  O   UNL     1      43.098 -14.567   2.159  1.00  0.00    -0.267 OA
BRANCH  27  30
HETATM   30  C   UNL     1      40.590 -15.268   0.684  1.00  0.00     0.035 A 
HETATM   31  C   UNL     1      39.407 -14.617   1.022  1.00  0.00     0.032 A 
HETATM   32  C   UNL     1      38.664 -13.954   0.036  1.00  0.00     0.039 A 
HETATM   33  C   UNL     1      39.089 -13.935  -1.295  1.00  0.00     0.068 A 
HETATM   34  C   UNL     1      40.281 -14.569  -1.631  1.00  0.00     0.039 A 
HETATM   35  C   UNL     1      41.024 -15.232  -0.648  1.00  0.00     0.032 A 
BRANCH  33  36
HETATM   36  O   UNL     1      38.257 -13.279  -2.158  1.00  0.00    -0.352 OA
BRANCH  36  37
HETATM   37  C   UNL     1      38.210 -13.758  -3.503  1.00  0.00     0.171 C 
HETATM   38  C   UNL     1      37.296 -14.968  -3.545  1.00  0.00     0.034 C 
ENDBRANCH  36  37
ENDBRANCH  33  36
ENDBRANCH  27  30
ENDBRANCH   1  26
TORSDOF 9
ENDMDL
MODEL 6
REMARK VINA RESULT:      -7.7      1.717      2.364
REMARK  9 active torsions:
REMARK  status: ('A' for Active; 'I' for Inactive)
REMARK    1  A    between atoms: C_2  and  O_3 
REMARK    2  A    between atoms: O_3  and  C_4 
REMARK    3  A    between atoms: C_7  and  N_8 
REMARK       I    between atoms: N_8  and  C_9 
REMARK    4  A    between atoms: C_9  and  C_10 
REMARK    5  A    between atoms: C_11  and  N_12 
REMARK       I    between atoms: N_12  and  C_13 
REMARK    6  A    between atoms: C_13  and  C_14 
REMARK    7  A    between atoms: C_14  and  N_15 
REMARK    8  A    between atoms: N_15  and  C_18 
REMARK    9  A    between atoms: C_18  and  C_19 
ROOT
HETATM    1  C   UNL     1      41.208 -12.686   5.402  1.00  0.00     0.073 A 
HETATM    2  C   UNL     1      40.008 -12.617   4.699  1.00  0.00     0.093 A 
HETATM    3  S   UNL     1      39.139 -11.199   5.026  1.00  0.00    -0.075 SA
HETATM    4  C   UNL     1      40.247 -10.706   6.208  1.00  0.00    -0.008 A 
HETATM    5  C   UNL     1      41.299 -11.592   6.354  1.00  0.00    -0.026 A 
HETATM    6  C   UNL     1      42.342 -11.371   7.418  1.00  0.00     0.041 C 
HETATM    7  C   UNL     1      41.859 -10.400   8.506  1.00  0.00     0.009 C 
HETATM    8  C   UNL     1      41.251  -9.129   7.882  1.00  0.00    -0.014 C 
HETATM    9  C   UNL     1      40.896  -8.110   8.962  1.00  0.00     0.010 C 
HETATM   10  C   UNL     1      40.010  -9.474   7.032  1.00  0.00     0.051 C 
ENDROOT
BRANCH   2  11
HETATM   11  N   UNL     1      39.530 -13.576   3.813  1.00  0.00    -0.319 N 
HETATM   12  C   UNL     1      39.674 -13.580   2.444  1.00  0.00     0.248 C 
HETATM   13  O   UNL     1      40.297 -12.793   1.732  1.00  0.00    -0.271 OA
HETATM   14  H   UNL     1      38.948 -14.283   4.269  1.00  0.00     0.169 HD
BRANCH  12  15
HETATM   15  C   UNL     1      38.948 -14.733   1.748  1.00  0.00     0.335 C 
BRANCH  15  16
HETATM   16  N   UNL     1      39.950 -15.685   1.142  1.00  0.00    -0.063 N 
HETATM   17  H   UNL     1      39.730 -15.910   0.165  1.00  0.00     0.278 HD
HETATM   18  H   UNL     1      40.854 -15.182   1.133  1.00  0.00     0.278 HD
BRANCH  16  19
HETATM   19  C   UNL     1      40.182 -16.935   1.917  1.00  0.00     0.271 C 
BRANCH  19  20
HETATM   20  C   UNL     1      41.631 -17.321   1.883  1.00  0.00    -0.033 A 
HETATM   21  C   UNL     1      42.002 -18.674   1.830  1.00  0.00     0.009 A 
HETATM   22  C   UNL     1      43.350 -19.037   1.832  1.00  0.00     0.001 A 
HETATM   23  C   UNL     1      44.336 -18.056   1.896  1.00  0.00     0.000 A 
HETATM   24  C   UNL     1      43.981 -16.711   1.959  1.00  0.00     0.001 A 
HETATM   25  C   UNL     1      42.635 -16.342   1.956  1.00  0.00     0.009 A 
ENDBRANCH  19  20
ENDBRANCH  16  19
ENDBRANCH  15  16
ENDBRANCH  12  15
ENDBRANCH   2  11
BRANCH   1  26
HETATM   26  C   UNL     1      42.155 -13.796   5.188  1.00  0.00     0.259 C 
HETATM   27  N   UNL     1      42.128 -14.749   6.180  1.00  0.00    -0.323 N 
HETATM   28  H   UNL     1      41.619 -14.507   7.018  1.00  0.00     0.169 HD
HETATM   29  O   UNL     1      42.933 -13.764   4.235  1.00  0.00    -0.267 OA
BRANCH  27  30
HETATM   30  C   UNL     1      42.751 -16.011   6.203  1.00  0.00     0.035 A 
HETATM   31  C   UNL     1      44.017 -16.251   6.731  1.00  0.00     0.032 A 
HETATM   32  C   UNL     1      44.580 -17.531   6.647  1.00  0.00     0.039 A 
HETATM   33  C   UNL     1      43.894 -18.582   6.033  1.00  0.00     0.068 A 
HETATM   34  C   UNL     1      42.620 -18.348   5.523  1.00  0.00     0.039 A 
HETATM   35  C   UNL     1      42.056 -17.070   5.605  1.00  0.00     0.032 A 
BRANCH  33  36
HETATM   36  O   UNL     1      44.569 -19.770   5.994  1.00  0.00    -0.352 OA
BRANCH  36  37
HETATM   37  C   UNL     1      45.126 -20.156   4.735  1.00  0.00     0.171 C 
HETATM   38  C   UNL     1      44.814 -21.624   4.509  1.00  0.00     0.034 C 
ENDBRANCH  36  37
ENDBRANCH  33  36
ENDBRANCH  27  30
ENDBRANCH   1  26
TORSDOF 9
ENDMDL
MODEL 7
REMARK VINA RESULT:      -7.6      2.782      6.789
REMARK  9 active torsions:
REMARK  status: ('A' for Active; 'I' for Inactive)
REMARK    1  A    between atoms: C_2  and  O_3 
REMARK    2  A    between atoms: O_3  and  C_4 
REMARK    3  A    between atoms: C_7  and  N_8 
REMARK       I    between atoms: N_8  and  C_9 
REMARK    4  A    between atoms: C_9  and  C_10 
REMARK    5  A    between atoms: C_11  and  N_12 
REMARK       I    between atoms: N_12  and  C_13 
REMARK    6  A    between atoms: C_13  and  C_14 
REMARK    7  A    between atoms: C_14  and  N_15 
REMARK    8  A    between atoms: N_15  and  C_18 
REMARK    9  A    between atoms: C_18  and  C_19 
ROOT
HETATM    1  C   UNL     1      41.012 -14.053   1.412  1.00  0.00     0.073 A 
HETATM    2  C   UNL     1      40.602 -12.944   2.147  1.00  0.00     0.093 A 
HETATM    3  S   UNL     1      39.320 -12.111   1.415  1.00  0.00    -0.075 SA
HETATM    4  C   UNL     1      39.364 -13.103   0.043  1.00  0.00    -0.008 A 
HETATM    5  C   UNL     1      40.330 -14.090   0.130  1.00  0.00    -0.026 A 
HETATM    6  C   UNL     1      40.581 -15.018  -1.029  1.00  0.00     0.041 C 
HETATM    7  C   UNL     1      40.013 -14.464  -2.345  1.00  0.00     0.009 C 
HETATM    8  C   UNL     1      38.558 -13.989  -2.162  1.00  0.00    -0.014 C 
HETATM    9  C   UNL     1      37.953 -13.565  -3.498  1.00  0.00     0.010 C 
HETATM   10  C   UNL     1      38.480 -12.835  -1.140  1.00  0.00     0.051 C 
ENDROOT
BRANCH   2  11
HETATM   11  N   UNL     1      41.149 -12.522   3.354  1.00  0.00    -0.319 N 
HETATM   12  C   UNL     1      40.842 -12.995   4.609  1.00  0.00     0.248 C 
HETATM   13  O   UNL     1      40.086 -13.913   4.924  1.00  0.00    -0.271 OA
HETATM   14  H   UNL     1      41.776 -11.720   3.247  1.00  0.00     0.169 HD
BRANCH  12  15
HETATM   15  C   UNL     1      41.555 -12.253   5.742  1.00  0.00     0.335 C 
BRANCH  15  16
HETATM   16  N   UNL     1      42.366 -13.223   6.566  1.00  0.00    -0.063 N 
HETATM   17  H   UNL     1      42.830 -12.766   7.359  1.00  0.00     0.278 HD
HETATM   18  H   UNL     1      41.689 -13.894   6.967  1.00  0.00     0.278 HD
BRANCH  16  19
HETATM   19  C   UNL     1      43.347 -14.037   5.797  1.00  0.00     0.271 C 
BRANCH  19  20
HETATM   20  C   UNL     1      43.402 -15.441   6.323  1.00  0.00    -0.033 A 
HETATM   21  C   UNL     1      42.225 -16.091   6.729  1.00  0.00     0.009 A 
HETATM   22  C   UNL     1      42.277 -17.385   7.249  1.00  0.00     0.001 A 
HETATM   23  C   UNL     1      43.501 -18.036   7.379  1.00  0.00     0.000 A 
HETATM   24  C   UNL     1      44.676 -17.398   6.990  1.00  0.00     0.001 A 
HETATM   25  C   UNL     1      44.631 -16.104   6.467  1.00  0.00     0.009 A 
ENDBRANCH  19  20
ENDBRANCH  16  19
ENDBRANCH  15  16
ENDBRANCH  12  15
ENDBRANCH   2  11
BRANCH   1  26
HETATM   26  C   UNL     1      42.053 -14.965   1.924  1.00  0.00     0.259 C 
HETATM   27  N   UNL     1      41.609 -16.251   2.134  1.00  0.00    -0.323 N 
HETATM   28  H   UNL     1      40.610 -16.391   2.099  1.00  0.00     0.169 HD
HETATM   29  O   UNL     1      43.168 -14.528   2.202  1.00  0.00    -0.267 OA
BRANCH  27  30
HETATM   30  C   UNL     1      42.363 -17.401   2.433  1.00  0.00     0.035 A 
HETATM   31  C   UNL     1      42.449 -17.976   3.698  1.00  0.00     0.032 A 
HETATM   32  C   UNL     1      43.281 -19.084   3.911  1.00  0.00     0.039 A 
HETATM   33  C   UNL     1      44.038 -19.626   2.869  1.00  0.00     0.068 A 
HETATM   34  C   UNL     1      43.938 -19.065   1.600  1.00  0.00     0.039 A 
HETATM   35  C   UNL     1      43.108 -17.958   1.386  1.00  0.00     0.032 A 
BRANCH  33  36
HETATM   36  O   UNL     1      44.828 -20.686   3.220  1.00  0.00    -0.352 OA
BRANCH  36  37
HETATM   37  C   UNL     1      45.130 -20.837   4.608  1.00  0.00     0.171 C 
HETATM   38  C   UNL     1      44.943 -22.296   4.978  1.00  0.00     0.034 C 
ENDBRANCH  36  37
ENDBRANCH  33  36
ENDBRANCH  27  30
ENDBRANCH   1  26
TORSDOF 9
ENDMDL
MODEL 8
REMARK VINA RESULT:      -7.6      2.690      8.284
REMARK  9 active torsions:
REMARK  status: ('A' for Active; 'I' for Inactive)
REMARK    1  A    between atoms: C_2  and  O_3 
REMARK    2  A    between atoms: O_3  and  C_4 
REMARK    3  A    between atoms: C_7  and  N_8 
REMARK       I    between atoms: N_8  and  C_9 
REMARK    4  A    between atoms: C_9  and  C_10 
REMARK    5  A    between atoms: C_11  and  N_12 
REMARK       I    between atoms: N_12  and  C_13 
REMARK    6  A    between atoms: C_13  and  C_14 
REMARK    7  A    between atoms: C_14  and  N_15 
REMARK    8  A    between atoms: N_15  and  C_18 
REMARK    9  A    between atoms: C_18  and  C_19 
ROOT
HETATM    1  C   UNL     1      43.144 -16.172   4.176  1.00  0.00     0.073 A 
HETATM    2  C   UNL     1      43.006 -15.714   5.483  1.00  0.00     0.093 A 
HETATM    3  S   UNL     1      43.621 -16.804   6.627  1.00  0.00    -0.075 SA
HETATM    4  C   UNL     1      43.955 -17.968   5.443  1.00  0.00    -0.008 A 
HETATM    5  C   UNL     1      43.629 -17.541   4.168  1.00  0.00    -0.026 A 
HETATM    6  C   UNL     1      43.772 -18.470   2.991  1.00  0.00     0.041 C 
HETATM    7  C   UNL     1      43.859 -19.941   3.424  1.00  0.00     0.009 C 
HETATM    8  C   UNL     1      44.888 -20.123   4.558  1.00  0.00    -0.014 C 
HETATM    9  C   UNL     1      45.070 -21.602   4.893  1.00  0.00     0.010 C 
HETATM   10  C   UNL     1      44.469 -19.330   5.813  1.00  0.00     0.051 C 
ENDROOT
BRANCH   2  11
HETATM   11  N   UNL     1      42.436 -14.505   5.864  1.00  0.00    -0.319 N 
HETATM   12  C   UNL     1      41.109 -14.150   5.766  1.00  0.00     0.248 C 
HETATM   13  O   UNL     1      40.155 -14.830   5.393  1.00  0.00    -0.271 OA
HETATM   14  H   UNL     1      43.130 -13.814   6.162  1.00  0.00     0.169 HD
BRANCH  12  15
HETATM   15  C   UNL     1      40.821 -12.707   6.187  1.00  0.00     0.335 C 
BRANCH  15  16
HETATM   16  N   UNL     1      42.061 -12.082   6.777  1.00  0.00    -0.063 N 
HETATM   17  H   UNL     1      42.656 -12.770   7.251  1.00  0.00     0.278 HD
HETATM   18  H   UNL     1      42.608 -11.721   5.976  1.00  0.00     0.278 HD
BRANCH  16  19
HETATM   19  C   UNL     1      41.816 -10.914   7.667  1.00  0.00     0.271 C 
BRANCH  19  20
HETATM   20  C   UNL     1      42.766 -10.922   8.829  1.00  0.00    -0.033 A 
HETATM   21  C   UNL     1      42.522 -10.111   9.949  1.00  0.00     0.009 A 
HETATM   22  C   UNL     1      43.421 -10.093  11.016  1.00  0.00     0.001 A 
HETATM   23  C   UNL     1      44.573 -10.873  10.971  1.00  0.00     0.000 A 
HETATM   24  C   UNL     1      44.832 -11.673   9.861  1.00  0.00     0.001 A 
HETATM   25  C   UNL     1      43.936 -11.698   8.791  1.00  0.00     0.009 A 
ENDBRANCH  19  20
ENDBRANCH  16  19
ENDBRANCH  15  16
ENDBRANCH  12  15
ENDBRANCH   2  11
BRANCH   1  26
HETATM   26  C   UNL     1      42.756 -15.330   3.028  1.00  0.00     0.259 C 
HETATM   27  N   UNL     1      41.796 -15.899   2.222  1.00  0.00    -0.323 N 
HETATM   28  H   UNL     1      41.600 -16.877   2.383  1.00  0.00     0.169 HD
HETATM   29  O   UNL     1      43.341 -14.269   2.820  1.00  0.00    -0.267 OA
BRANCH  27  30
HETATM   30  C   UNL     1      41.074 -15.310   1.168  1.00  0.00     0.035 A 
HETATM   31  C   UNL     1      41.554 -15.172  -0.132  1.00  0.00     0.032 A 
HETATM   32  C   UNL     1      40.784 -14.510  -1.098  1.00  0.00     0.039 A 
HETATM   33  C   UNL     1      39.533 -13.975  -0.779  1.00  0.00     0.068 A 
HETATM   34  C   UNL     1      39.043 -14.130   0.514  1.00  0.00     0.039 A 
HETATM   35  C   UNL     1      39.811 -14.791   1.481  1.00  0.00     0.032 A 
BRANCH  33  36
HETATM   36  O   UNL     1      38.901 -13.330  -1.805  1.00  0.00    -0.352 OA
BRANCH  36  37
HETATM   37  C   UNL     1      38.898 -13.983  -3.076  1.00  0.00     0.171 C 
HETATM   38  C   UNL     1      37.659 -14.855  -3.159  1.00  0.00     0.034 C 
ENDBRANCH  36  37
ENDBRANCH  33  36
ENDBRANCH  27  30
ENDBRANCH   1  26
TORSDOF 9
ENDMDL
MODEL 9
REMARK VINA RESULT:      -7.6      3.409      6.730
REMARK  9 active torsions:
REMARK  status: ('A' for Active; 'I' for Inactive)
REMARK    1  A    between atoms: C_2  and  O_3 
REMARK    2  A    between atoms: O_3  and  C_4 
REMARK    3  A    between atoms: C_7  and  N_8 
REMARK       I    between atoms: N_8  and  C_9 
REMARK    4  A    between atoms: C_9  and  C_10 
REMARK    5  A    between atoms: C_11  and  N_12 
REMARK       I    between atoms: N_12  and  C_13 
REMARK    6  A    between atoms: C_13  and  C_14 
REMARK    7  A    between atoms: C_14  and  N_15 
REMARK    8  A    between atoms: N_15  and  C_18 
REMARK    9  A    between atoms: C_18  and  C_19 
ROOT
HETATM    1  C   UNL     1      41.516 -13.454   0.802  1.00  0.00     0.073 A 
HETATM    2  C   UNL     1      41.327 -12.403   1.696  1.00  0.00     0.093 A 
HETATM    3  S   UNL     1      41.228 -10.897   0.923  1.00  0.00    -0.075 SA
HETATM    4  C   UNL     1      41.573 -11.571  -0.591  1.00  0.00    -0.008 A 
HETATM    5  C   UNL     1      41.744 -12.943  -0.538  1.00  0.00    -0.026 A 
HETATM    6  C   UNL     1      42.143 -13.711  -1.770  1.00  0.00     0.041 C 
HETATM    7  C   UNL     1      42.739 -12.798  -2.852  1.00  0.00     0.009 C 
HETATM    8  C   UNL     1      41.845 -11.564  -3.086  1.00  0.00    -0.014 C 
HETATM    9  C   UNL     1      42.367 -10.729  -4.253  1.00  0.00     0.010 C 
HETATM   10  C   UNL     1      41.746 -10.707  -1.806  1.00  0.00     0.051 C 
ENDROOT
BRANCH   2  11
HETATM   11  N   UNL     1      41.223 -12.521   3.077  1.00  0.00    -0.319 N 
HETATM   12  C   UNL     1      40.065 -12.520   3.821  1.00  0.00     0.248 C 
HETATM   13  O   UNL     1      38.898 -12.483   3.432  1.00  0.00    -0.271 OA
HETATM   14  H   UNL     1      42.133 -12.520   3.546  1.00  0.00     0.169 HD
BRANCH  12  15
HETATM   15  C   UNL     1      40.298 -12.573   5.332  1.00  0.00     0.335 C 
BRANCH  15  16
HETATM   16  N   UNL     1      39.806 -13.887   5.887  1.00  0.00    -0.063 N 
HETATM   17  H   UNL     1      39.911 -13.942   6.906  1.00  0.00     0.278 HD
HETATM   18  H   UNL     1      38.790 -13.917   5.693  1.00  0.00     0.278 HD
BRANCH  16  19
HETATM   19  C   UNL     1      40.385 -15.099   5.245  1.00  0.00     0.271 C 
BRANCH  19  20
HETATM   20  C   UNL     1      41.544 -15.621   6.042  1.00  0.00    -0.033 A 
HETATM   21  C   UNL     1      42.734 -14.879   6.129  1.00  0.00     0.009 A 
HETATM   22  C   UNL     1      43.825 -15.377   6.842  1.00  0.00     0.001 A 
HETATM   23  C   UNL     1      43.743 -16.620   7.465  1.00  0.00     0.000 A 
HETATM   24  C   UNL     1      42.572 -17.369   7.377  1.00  0.00     0.001 A 
HETATM   25  C   UNL     1      41.477 -16.876   6.666  1.00  0.00     0.009 A 
ENDBRANCH  19  20
ENDBRANCH  16  19
ENDBRANCH  15  16
ENDBRANCH  12  15
ENDBRANCH   2  11
BRANCH   1  26
HETATM   26  C   UNL     1      41.535 -14.855   1.265  1.00  0.00     0.259 C 
HETATM   27  N   UNL     1      42.787 -15.425   1.256  1.00  0.00    -0.323 N 
HETATM   28  H   UNL     1      43.510 -14.910   0.773  1.00  0.00     0.169 HD
HETATM   29  O   UNL     1      40.480 -15.427   1.533  1.00  0.00    -0.267 OA
BRANCH  27  30
HETATM   30  C   UNL     1      43.194 -16.659   1.799  1.00  0.00     0.035 A 
HETATM   31  C   UNL     1      43.288 -17.842   1.072  1.00  0.00     0.032 A 
HETATM   32  C   UNL     1      43.639 -19.036   1.718  1.00  0.00     0.039 A 
HETATM   33  C   UNL     1      43.893 -19.064   3.091  1.00  0.00     0.068 A 
HETATM   34  C   UNL     1      43.818 -17.878   3.815  1.00  0.00     0.039 A 
HETATM   35  C   UNL     1      43.468 -16.685   3.172  1.00  0.00     0.032 A 
BRANCH  33  36
HETATM   36  O   UNL     1      44.195 -20.297   3.598  1.00  0.00    -0.352 OA
BRANCH  36  37
HETATM   37  C   UNL     1      44.455 -21.339   2.656  1.00  0.00     0.171 C 
HETATM   38  C   UNL     1      44.611 -22.641   3.419  1.00  0.00     0.034 C 
ENDBRANCH  36  37
ENDBRANCH  33  36
ENDBRANCH  27  30
ENDBRANCH   1  26
TORSDOF 9
ENDMDL
MODEL 10
REMARK VINA RESULT:      -7.4      2.436      8.062
REMARK  9 active torsions:
REMARK  status: ('A' for Active; 'I' for Inactive)
REMARK    1  A    between atoms: C_2  and  O_3 
REMARK    2  A    between atoms: O_3  and  C_4 
REMARK    3  A    between atoms: C_7  and  N_8 
REMARK       I    between atoms: N_8  and  C_9 
REMARK    4  A    between atoms: C_9  and  C_10 
REMARK    5  A    between atoms: C_11  and  N_12 
REMARK       I    between atoms: N_12  and  C_13 
REMARK    6  A    between atoms: C_13  and  C_14 
REMARK    7  A    between atoms: C_14  and  N_15 
REMARK    8  A    between atoms: N_15  and  C_18 
REMARK    9  A    between atoms: C_18  and  C_19 
ROOT
HETATM    1  C   UNL     1      42.530 -16.756   4.152  1.00  0.00     0.073 A 
HETATM    2  C   UNL     1      41.835 -16.202   3.080  1.00  0.00     0.093 A 
HETATM    3  S   UNL     1      41.702 -17.266   1.767  1.00  0.00    -0.075 SA
HETATM    4  C   UNL     1      42.677 -18.429   2.519  1.00  0.00    -0.008 A 
HETATM    5  C   UNL     1      43.095 -18.040   3.779  1.00  0.00    -0.026 A 
HETATM    6  C   UNL     1      44.041 -18.905   4.570  1.00  0.00     0.041 C 
HETATM    7  C   UNL     1      44.772 -19.924   3.682  1.00  0.00     0.009 C 
HETATM    8  C   UNL     1      43.781 -20.669   2.767  1.00  0.00    -0.014 C 
HETATM    9  C   UNL     1      44.489 -21.772   1.984  1.00  0.00     0.010 C 
HETATM   10  C   UNL     1      43.076 -19.689   1.806  1.00  0.00     0.051 C 
ENDROOT
BRANCH   2  11
HETATM   11  N   UNL     1      41.290 -14.924   3.039  1.00  0.00    -0.319 N 
HETATM   12  C   UNL     1      41.972 -13.741   2.863  1.00  0.00     0.248 C 
HETATM   13  O   UNL     1      43.169 -13.566   2.644  1.00  0.00    -0.271 OA
HETATM   14  H   UNL     1      40.289 -14.912   3.250  1.00  0.00     0.169 HD
BRANCH  12  15
HETATM   15  C   UNL     1      41.087 -12.496   2.960  1.00  0.00     0.335 C 
BRANCH  15  16
HETATM   16  N   UNL     1      40.266 -12.541   4.226  1.00  0.00    -0.063 N 
HETATM   17  H   UNL     1      39.598 -13.319   4.228  1.00  0.00     0.278 HD
HETATM   18  H   UNL     1      40.935 -12.723   4.994  1.00  0.00     0.278 HD
BRANCH  16  19
HETATM   19  C   UNL     1      39.575 -11.269   4.575  1.00  0.00     0.271 C 
BRANCH  19  20
HETATM   20  C   UNL     1      39.731 -10.962   6.035  1.00  0.00    -0.033 A 
HETATM   21  C   UNL     1      39.316 -11.892   7.002  1.00  0.00     0.009 A 
HETATM   22  C   UNL     1      39.431 -11.595   8.361  1.00  0.00     0.001 A 
HETATM   23  C   UNL     1      39.949 -10.368   8.766  1.00  0.00     0.000 A 
HETATM   24  C   UNL     1      40.354  -9.433   7.816  1.00  0.00     0.001 A 
HETATM   25  C   UNL     1      40.244  -9.725   6.455  1.00  0.00     0.009 A 
ENDBRANCH  19  20
ENDBRANCH  16  19
ENDBRANCH  15  16
ENDBRANCH  12  15
ENDBRANCH   2  11
BRANCH   1  26
HETATM   26  C   UNL     1      42.674 -16.025   5.426  1.00  0.00     0.259 C 
HETATM   27  N   UNL     1      43.622 -15.028   5.390  1.00  0.00    -0.323 N 
HETATM   28  H   UNL     1      44.233 -15.021   4.585  1.00  0.00     0.169 HD
HETATM   29  O   UNL     1      42.040 -16.386   6.415  1.00  0.00    -0.267 OA
BRANCH  27  30
HETATM   30  C   UNL     1      43.885 -14.032   6.348  1.00  0.00     0.035 A 
HETATM   31  C   UNL     1      44.998 -14.021   7.184  1.00  0.00     0.032 A 
HETATM   32  C   UNL     1      45.137 -13.019   8.154  1.00  0.00     0.039 A 
HETATM   33  C   UNL     1      44.170 -12.023   8.305  1.00  0.00     0.068 A 
HETATM   34  C   UNL     1      43.066 -12.021   7.457  1.00  0.00     0.039 A 
HETATM   35  C   UNL     1      42.925 -13.021   6.487  1.00  0.00     0.032 A 
BRANCH  33  36
HETATM   36  O   UNL     1      44.414 -11.126   9.307  1.00  0.00    -0.352 OA
BRANCH  36  37
HETATM   37  C   UNL     1      43.795 -11.381  10.569  1.00  0.00     0.171 C 
HETATM   38  C   UNL     1      43.811 -10.094  11.374  1.00  0.00     0.034 C 
ENDBRANCH  36  37
ENDBRANCH  33  36
ENDBRANCH  27  30
ENDBRANCH   1  26
TORSDOF 9
ENDMDL
