MODEL 1
REMARK VINA RESULT:      -8.2      0.000      0.000
REMARK  8 active torsions:
REMARK  status: ('A' for Active; 'I' for Inactive)
REMARK    1  A    between atoms: C_2  and  N_3 
REMARK    2  A    between atoms: C_2  and  C_23 
REMARK       I    between atoms: N_3  and  C_4 
REMARK    3  A    between atoms: N_3  and  C_16 
REMARK    4  A    between atoms: C_4  and  C_5 
REMARK    5  A    between atoms: C_5  and  N_6 
REMARK    6  A    between atoms: C_16  and  C_17 
REMARK       I    between atoms: C_23  and  N_24 
REMARK    7  A    between atoms: N_24  and  C_25 
REMARK    8  A    between atoms: C_28  and  O_29 
ROOT
HETATM    1  N   UNL     1      41.489 -14.325   4.542  1.00  0.00    -0.333 N 
HETATM    2  C   UNL     1      40.129 -14.017   4.574  1.00  0.00     0.240 C 
HETATM    3  O   UNL     1      39.406 -14.265   3.604  1.00  0.00    -0.271 OA
ENDROOT
BRANCH   1   4
HETATM    4  C   UNL     1      42.048 -14.881   3.281  1.00  0.00     0.176 C 
HETATM    5  C   UNL     1      43.399 -14.266   2.906  1.00  0.00     0.042 C 
BRANCH   4   6
HETATM    6  C   UNL     1      42.085 -16.433   3.155  1.00  0.00     0.244 C 
HETATM    7  N   UNL     1      43.358 -16.976   3.091  1.00  0.00    -0.325 N 
HETATM    8  H   UNL     1      44.126 -16.326   2.962  1.00  0.00     0.169 HD
HETATM    9  O   UNL     1      41.043 -17.080   3.271  1.00  0.00    -0.271 OA
BRANCH   7  10
HETATM   10  C   UNL     1      43.695 -18.349   3.036  1.00  0.00     0.035 A 
HETATM   11  C   UNL     1      44.342 -19.036   4.065  1.00  0.00     0.032 A 
HETATM   12  C   UNL     1      44.632 -20.399   3.941  1.00  0.00     0.039 A 
HETATM   13  C   UNL     1      44.270 -21.104   2.795  1.00  0.00     0.068 A 
HETATM   14  C   UNL     1      43.641 -20.425   1.754  1.00  0.00     0.039 A 
HETATM   15  C   UNL     1      43.358 -19.055   1.875  1.00  0.00     0.032 A 
BRANCH  13  16
HETATM   16  O   UNL     1      44.603 -22.430   2.803  1.00  0.00    -0.356 OA
HETATM   17  C   UNL     1      44.720 -23.039   4.083  1.00  0.00     0.210 C 
ENDBRANCH  13  16
ENDBRANCH   7  10
ENDBRANCH   4   6
ENDBRANCH   1   4
BRANCH   1  18
HETATM   18  C   UNL     1      42.422 -14.166   5.670  1.00  0.00     0.165 C 
BRANCH  18  19
HETATM   19  C   UNL     1      42.938 -15.450   6.279  1.00  0.00    -0.040 A 
HETATM   20  C   UNL     1      44.306 -15.699   6.460  1.00  0.00     0.009 A 
HETATM   21  C   UNL     1      44.745 -16.894   7.036  1.00  0.00     0.001 A 
HETATM   22  C   UNL     1      43.823 -17.851   7.452  1.00  0.00     0.000 A 
HETATM   23  C   UNL     1      42.461 -17.608   7.305  1.00  0.00     0.001 A 
HETATM   24  C   UNL     1      42.022 -16.412   6.735  1.00  0.00     0.009 A 
ENDBRANCH  18  19
ENDBRANCH   1  18
BRANCH   2  25
HETATM   25  C   UNL     1      39.492 -13.397   5.803  1.00  0.00     0.250 C 
BRANCH  25  26
HETATM   26  N   UNL     1      39.341 -11.961   5.742  1.00  0.00    -0.263 N 
HETATM   27  N   UNL     1      38.401 -11.390   4.959  1.00  0.00     0.006 NA
HETATM   28  N   UNL     1      38.573 -10.075   5.021  1.00  0.00    -0.158 NA
HETATM   29  C   UNL     1      39.606  -9.821   5.885  1.00  0.00     0.102 A 
HETATM   30  C   UNL     1      40.106 -11.018   6.382  1.00  0.00     0.079 A 
HETATM   31  C   UNL     1      40.186  -8.610   6.289  1.00  0.00     0.035 A 
HETATM   32  C   UNL     1      41.166 -11.082   7.294  1.00  0.00     0.033 A 
HETATM   33  C   UNL     1      41.733  -9.865   7.688  1.00  0.00     0.002 A 
HETATM   34  C   UNL     1      41.256  -8.649   7.193  1.00  0.00     0.002 A 
ENDBRANCH  25  26
ENDBRANCH   2  25
TORSDOF 8
ENDMDL
MODEL 2
REMARK VINA RESULT:      -8.2      4.161      6.668
REMARK  8 active torsions:
REMARK  status: ('A' for Active; 'I' for Inactive)
REMARK    1  A    between atoms: C_2  and  N_3 
REMARK    2  A    between atoms: C_2  and  C_23 
REMARK       I    between atoms: N_3  and  C_4 
REMARK    3  A    between atoms: N_3  and  C_16 
REMARK    4  A    between atoms: C_4  and  C_5 
REMARK    5  A    between atoms: C_5  and  N_6 
REMARK    6  A    between atoms: C_16  and  C_17 
REMARK       I    between atoms: C_23  and  N_24 
REMARK    7  A    between atoms: N_24  and  C_25 
REMARK    8  A    between atoms: C_28  and  O_29 
ROOT
HETATM    1  N   UNL     1      41.273 -14.217   1.560  1.00  0.00    -0.333 N 
HETATM    2  C   UNL     1      41.823 -13.201   0.776  1.00  0.00     0.240 C 
HETATM    3  O   UNL     1      42.231 -12.159   1.298  1.00  0.00    -0.271 OA
ENDROOT
BRANCH   1   4
HETATM    4  C   UNL     1      41.121 -13.969   3.018  1.00  0.00     0.176 C 
HETATM    5  C   UNL     1      39.667 -14.047   3.488  1.00  0.00     0.042 C 
BRANCH   4   6
HETATM    6  C   UNL     1      42.062 -14.770   3.967  1.00  0.00     0.244 C 
HETATM    7  N   UNL     1      41.475 -15.878   4.558  1.00  0.00    -0.325 N 
HETATM    8  H   UNL     1      40.469 -15.969   4.461  1.00  0.00     0.169 HD
HETATM    9  O   UNL     1      43.260 -14.488   4.020  1.00  0.00    -0.271 OA
BRANCH   7  10
HETATM   10  C   UNL     1      42.101 -16.818   5.409  1.00  0.00     0.035 A 
HETATM   11  C   UNL     1      42.602 -18.049   4.980  1.00  0.00     0.032 A 
HETATM   12  C   UNL     1      43.219 -18.923   5.882  1.00  0.00     0.039 A 
HETATM   13  C   UNL     1      43.361 -18.578   7.224  1.00  0.00     0.068 A 
HETATM   14  C   UNL     1      42.850 -17.361   7.668  1.00  0.00     0.039 A 
HETATM   15  C   UNL     1      42.223 -16.488   6.765  1.00  0.00     0.032 A 
BRANCH  13  16
HETATM   16  O   UNL     1      43.989 -19.515   7.997  1.00  0.00    -0.356 OA
HETATM   17  C   UNL     1      43.629 -20.869   7.757  1.00  0.00     0.210 C 
ENDBRANCH  13  16
ENDBRANCH   7  10
ENDBRANCH   4   6
ENDBRANCH   1   4
BRANCH   1  18
HETATM   18  C   UNL     1      40.847 -15.536   1.062  1.00  0.00     0.165 C 
BRANCH  18  19
HETATM   19  C   UNL     1      41.851 -16.653   1.225  1.00  0.00    -0.040 A 
HETATM   20  C   UNL     1      43.234 -16.439   1.142  1.00  0.00     0.009 A 
HETATM   21  C   UNL     1      44.133 -17.496   1.308  1.00  0.00     0.001 A 
HETATM   22  C   UNL     1      43.663 -18.779   1.574  1.00  0.00     0.000 A 
HETATM   23  C   UNL     1      42.295 -19.005   1.687  1.00  0.00     0.001 A 
HETATM   24  C   UNL     1      41.397 -17.948   1.526  1.00  0.00     0.009 A 
ENDBRANCH  18  19
ENDBRANCH   1  18
BRANCH   2  25
HETATM   25  C   UNL     1      41.961 -13.355  -0.725  1.00  0.00     0.250 C 
BRANCH  25  26
HETATM   26  N   UNL     1      40.710 -13.333  -1.450  1.00  0.00    -0.263 N 
HETATM   27  N   UNL     1      39.843 -12.307  -1.314  1.00  0.00     0.006 NA
HETATM   28  N   UNL     1      38.751 -12.613  -2.003  1.00  0.00    -0.158 NA
HETATM   29  C   UNL     1      38.954 -13.825  -2.609  1.00  0.00     0.102 A 
HETATM   30  C   UNL     1      40.219 -14.303  -2.288  1.00  0.00     0.079 A 
HETATM   31  C   UNL     1      38.116 -14.591  -3.432  1.00  0.00     0.035 A 
HETATM   32  C   UNL     1      40.718 -15.520  -2.763  1.00  0.00     0.033 A 
HETATM   33  C   UNL     1      39.870 -16.271  -3.584  1.00  0.00     0.002 A 
HETATM   34  C   UNL     1      38.591 -15.819  -3.912  1.00  0.00     0.002 A 
ENDBRANCH  25  26
ENDBRANCH   2  25
TORSDOF 8
ENDMDL
MODEL 3
REMARK VINA RESULT:      -8.1      3.656      6.318
REMARK  8 active torsions:
REMARK  status: ('A' for Active; 'I' for Inactive)
REMARK    1  A    between atoms: C_2  and  N_3 
REMARK    2  A    between atoms: C_2  and  C_23 
REMARK       I    between atoms: N_3  and  C_4 
REMARK    3  A    between atoms: N_3  and  C_16 
REMARK    4  A    between atoms: C_4  and  C_5 
REMARK    5  A    between atoms: C_5  and  N_6 
REMARK    6  A    between atoms: C_16  and  C_17 
REMARK       I    between atoms: C_23  and  N_24 
REMARK    7  A    between atoms: N_24  and  C_25 
REMARK    8  A    between atoms: C_28  and  O_29 
ROOT
HETATM    1  N   UNL     1      41.093 -13.080   3.545  1.00  0.00    -0.333 N 
HETATM    2  C   UNL     1      41.991 -12.687   2.552  1.00  0.00     0.240 C 
HETATM    3  O   UNL     1      43.090 -13.240   2.446  1.00  0.00    -0.271 OA
ENDROOT
BRANCH   1   4
HETATM    4  C   UNL     1      41.534 -14.119   4.513  1.00  0.00     0.176 C 
HETATM    5  C   UNL     1      40.718 -14.114   5.808  1.00  0.00     0.042 C 
BRANCH   4   6
HETATM    6  C   UNL     1      41.700 -15.566   3.961  1.00  0.00     0.244 C 
HETATM    7  N   UNL     1      42.999 -16.049   3.991  1.00  0.00    -0.325 N 
HETATM    8  H   UNL     1      43.731 -15.378   4.201  1.00  0.00     0.169 HD
HETATM    9  O   UNL     1      40.702 -16.233   3.686  1.00  0.00    -0.271 OA
BRANCH   7  10
HETATM   10  C   UNL     1      43.435 -17.340   3.615  1.00  0.00     0.035 A 
HETATM   11  C   UNL     1      43.468 -17.801   2.297  1.00  0.00     0.032 A 
HETATM   12  C   UNL     1      43.924 -19.091   2.002  1.00  0.00     0.039 A 
HETATM   13  C   UNL     1      44.367 -19.939   3.015  1.00  0.00     0.068 A 
HETATM   14  C   UNL     1      44.322 -19.497   4.335  1.00  0.00     0.039 A 
HETATM   15  C   UNL     1      43.857 -18.206   4.631  1.00  0.00     0.032 A 
BRANCH  13  16
HETATM   16  O   UNL     1      44.794 -21.167   2.594  1.00  0.00    -0.356 OA
HETATM   17  C   UNL     1      43.985 -21.811   1.617  1.00  0.00     0.210 C 
ENDBRANCH  13  16
ENDBRANCH   7  10
ENDBRANCH   4   6
ENDBRANCH   1   4
BRANCH   1  18
HETATM   18  C   UNL     1      39.723 -12.563   3.703  1.00  0.00     0.165 C 
BRANCH  18  19
HETATM   19  C   UNL     1      38.800 -12.784   2.527  1.00  0.00    -0.040 A 
HETATM   20  C   UNL     1      38.628 -14.042   1.932  1.00  0.00     0.009 A 
HETATM   21  C   UNL     1      37.758 -14.210   0.852  1.00  0.00     0.001 A 
HETATM   22  C   UNL     1      37.036 -13.126   0.360  1.00  0.00     0.000 A 
HETATM   23  C   UNL     1      37.173 -11.876   0.957  1.00  0.00     0.001 A 
HETATM   24  C   UNL     1      38.039 -11.709   2.039  1.00  0.00     0.009 A 
ENDBRANCH  18  19
ENDBRANCH   1  18
BRANCH   2  25
HETATM   25  C   UNL     1      41.637 -11.597   1.560  1.00  0.00     0.250 C 
BRANCH  25  26
HETATM   26  N   UNL     1      42.229 -11.760   0.251  1.00  0.00    -0.263 N 
HETATM   27  N   UNL     1      43.201 -10.931  -0.185  1.00  0.00     0.006 NA
HETATM   28  N   UNL     1      43.465 -11.251  -1.445  1.00  0.00    -0.158 NA
HETATM   29  C   UNL     1      42.678 -12.319  -1.788  1.00  0.00     0.102 A 
HETATM   30  C   UNL     1      41.886 -12.683  -0.705  1.00  0.00     0.079 A 
HETATM   31  C   UNL     1      42.565 -13.026  -2.993  1.00  0.00     0.035 A 
HETATM   32  C   UNL     1      40.978 -13.746  -0.748  1.00  0.00     0.033 A 
HETATM   33  C   UNL     1      40.879 -14.442  -1.958  1.00  0.00     0.002 A 
HETATM   34  C   UNL     1      41.655 -14.089  -3.064  1.00  0.00     0.002 A 
ENDBRANCH  25  26
ENDBRANCH   2  25
TORSDOF 8
ENDMDL
MODEL 4
REMARK VINA RESULT:      -8.0      3.399      8.540
REMARK  8 active torsions:
REMARK  status: ('A' for Active; 'I' for Inactive)
REMARK    1  A    between atoms: C_2  and  N_3 
REMARK    2  A    between atoms: C_2  and  C_23 
REMARK       I    between atoms: N_3  and  C_4 
REMARK    3  A    between atoms: N_3  and  C_16 
REMARK    4  A    between atoms: C_4  and  C_5 
REMARK    5  A    between atoms: C_5  and  N_6 
REMARK    6  A    between atoms: C_16  and  C_17 
REMARK       I    between atoms: C_23  and  N_24 
REMARK    7  A    between atoms: N_24  and  C_25 
REMARK    8  A    between atoms: C_28  and  O_29 
ROOT
HETATM    1  N   UNL     1      41.713 -12.418   5.275  1.00  0.00    -0.333 N 
HETATM    2  C   UNL     1      41.612 -12.305   3.887  1.00  0.00     0.240 C 
HETATM    3  O   UNL     1      40.837 -11.488   3.380  1.00  0.00    -0.271 OA
ENDROOT
BRANCH   1   4
HETATM    4  C   UNL     1      40.806 -11.587   6.110  1.00  0.00     0.176 C 
HETATM    5  C   UNL     1      39.611 -12.373   6.655  1.00  0.00     0.042 C 
BRANCH   4   6
HETATM    6  C   UNL     1      41.472 -10.731   7.228  1.00  0.00     0.244 C 
HETATM    7  N   UNL     1      41.454 -11.312   8.487  1.00  0.00    -0.325 N 
HETATM    8  H   UNL     1      40.875 -12.138   8.600  1.00  0.00     0.169 HD
HETATM    9  O   UNL     1      42.088  -9.708   6.929  1.00  0.00    -0.271 OA
BRANCH   7  10
HETATM   10  C   UNL     1      42.034 -10.797   9.669  1.00  0.00     0.035 A 
HETATM   11  C   UNL     1      41.401  -9.885  10.517  1.00  0.00     0.032 A 
HETATM   12  C   UNL     1      42.037  -9.429  11.677  1.00  0.00     0.039 A 
HETATM   13  C   UNL     1      43.308  -9.885  12.020  1.00  0.00     0.068 A 
HETATM   14  C   UNL     1      43.956 -10.781  11.172  1.00  0.00     0.039 A 
HETATM   15  C   UNL     1      43.322 -11.232  10.004  1.00  0.00     0.032 A 
BRANCH  13  16
HETATM   16  O   UNL     1      43.813  -9.369  13.181  1.00  0.00    -0.356 OA
HETATM   17  C   UNL     1      42.944  -9.391  14.306  1.00  0.00     0.210 C 
ENDBRANCH  13  16
ENDBRANCH   7  10
ENDBRANCH   4   6
ENDBRANCH   1   4
BRANCH   1  18
HETATM   18  C   UNL     1      42.669 -13.282   5.988  1.00  0.00     0.165 C 
BRANCH  18  19
HETATM   19  C   UNL     1      42.407 -14.768   5.890  1.00  0.00    -0.040 A 
HETATM   20  C   UNL     1      41.112 -15.300   5.816  1.00  0.00     0.009 A 
HETATM   21  C   UNL     1      40.910 -16.679   5.717  1.00  0.00     0.001 A 
HETATM   22  C   UNL     1      42.000 -17.545   5.675  1.00  0.00     0.000 A 
HETATM   23  C   UNL     1      43.292 -17.032   5.719  1.00  0.00     0.001 A 
HETATM   24  C   UNL     1      43.495 -15.654   5.814  1.00  0.00     0.009 A 
ENDBRANCH  18  19
ENDBRANCH   1  18
BRANCH   2  25
HETATM   25  C   UNL     1      42.463 -13.156   2.966  1.00  0.00     0.250 C 
BRANCH  25  26
HETATM   26  N   UNL     1      41.832 -14.380   2.525  1.00  0.00    -0.263 N 
HETATM   27  N   UNL     1      40.493 -14.461   2.375  1.00  0.00     0.006 NA
HETATM   28  N   UNL     1      40.199 -15.720   2.074  1.00  0.00    -0.158 NA
HETATM   29  C   UNL     1      41.371 -16.424   1.995  1.00  0.00     0.102 A 
HETATM   30  C   UNL     1      42.443 -15.580   2.260  1.00  0.00     0.079 A 
HETATM   31  C   UNL     1      41.611 -17.778   1.720  1.00  0.00     0.035 A 
HETATM   32  C   UNL     1      43.774 -16.011   2.250  1.00  0.00     0.033 A 
HETATM   33  C   UNL     1      43.996 -17.364   1.972  1.00  0.00     0.002 A 
HETATM   34  C   UNL     1      42.936 -18.235   1.714  1.00  0.00     0.002 A 
ENDBRANCH  25  26
ENDBRANCH   2  25
TORSDOF 8
ENDMDL
MODEL 5
REMARK VINA RESULT:      -7.9      2.757      5.562
REMARK  8 active torsions:
REMARK  status: ('A' for Active; 'I' for Inactive)
REMARK    1  A    between atoms: C_2  and  N_3 
REMARK    2  A    between atoms: C_2  and  C_23 
REMARK       I    between atoms: N_3  and  C_4 
REMARK    3  A    between atoms: N_3  and  C_16 
REMARK    4  A    between atoms: C_4  and  C_5 
REMARK    5  A    between atoms: C_5  and  N_6 
REMARK    6  A    between atoms: C_16  and  C_17 
REMARK       I    between atoms: C_23  and  N_24 
REMARK    7  A    between atoms: N_24  and  C_25 
REMARK    8  A    between atoms: C_28  and  O_29 
ROOT
HETATM    1  N   UNL     1      41.364 -14.098   2.680  1.00  0.00    -0.333 N 
HETATM    2  C   UNL     1      42.556 -13.690   3.281  1.00  0.00     0.240 C 
HETATM    3  O   UNL     1      43.630 -13.802   2.683  1.00  0.00    -0.271 OA
ENDROOT
BRANCH   1   4
HETATM    4  C   UNL     1      41.443 -14.741   1.342  1.00  0.00     0.176 C 
HETATM    5  C   UNL     1      41.964 -13.796   0.256  1.00  0.00     0.042 C 
BRANCH   4   6
HETATM    6  C   UNL     1      42.155 -16.125   1.270  1.00  0.00     0.244 C 
HETATM    7  N   UNL     1      42.431 -16.696   2.502  1.00  0.00    -0.325 N 
HETATM    8  H   UNL     1      42.307 -16.104   3.317  1.00  0.00     0.169 HD
HETATM    9  O   UNL     1      42.288 -16.687   0.182  1.00  0.00    -0.271 OA
BRANCH   7  10
HETATM   10  C   UNL     1      43.009 -17.964   2.741  1.00  0.00     0.035 A 
HETATM   11  C   UNL     1      42.914 -19.044   1.862  1.00  0.00     0.032 A 
HETATM   12  C   UNL     1      43.524 -20.267   2.164  1.00  0.00     0.039 A 
HETATM   13  C   UNL     1      44.251 -20.429   3.341  1.00  0.00     0.068 A 
HETATM   14  C   UNL     1      44.338 -19.364   4.235  1.00  0.00     0.039 A 
HETATM   15  C   UNL     1      43.719 -18.141   3.936  1.00  0.00     0.032 A 
BRANCH  13  16
HETATM   16  O   UNL     1      44.804 -21.668   3.512  1.00  0.00    -0.356 OA
HETATM   17  C   UNL     1      45.047 -22.065   4.856  1.00  0.00     0.210 C 
ENDBRANCH  13  16
ENDBRANCH   7  10
ENDBRANCH   4   6
ENDBRANCH   1   4
BRANCH   1  18
HETATM   18  C   UNL     1      40.020 -13.923   3.256  1.00  0.00     0.165 C 
BRANCH  18  19
HETATM   19  C   UNL     1      38.956 -13.436   2.300  1.00  0.00    -0.040 A 
HETATM   20  C   UNL     1      38.247 -14.305   1.458  1.00  0.00     0.009 A 
HETATM   21  C   UNL     1      37.263 -13.819   0.594  1.00  0.00     0.001 A 
HETATM   22  C   UNL     1      36.963 -12.459   0.568  1.00  0.00     0.000 A 
HETATM   23  C   UNL     1      37.638 -11.587   1.416  1.00  0.00     0.001 A 
HETATM   24  C   UNL     1      38.618 -12.073   2.283  1.00  0.00     0.009 A 
ENDBRANCH  18  19
ENDBRANCH   1  18
BRANCH   2  25
HETATM   25  C   UNL     1      42.566 -13.076   4.667  1.00  0.00     0.250 C 
BRANCH  25  26
HETATM   26  N   UNL     1      43.225 -13.877   5.675  1.00  0.00    -0.263 N 
HETATM   27  N   UNL     1      44.418 -13.510   6.189  1.00  0.00     0.006 NA
HETATM   28  N   UNL     1      44.822 -14.483   6.996  1.00  0.00    -0.158 NA
HETATM   29  C   UNL     1      43.851 -15.449   7.019  1.00  0.00     0.102 A 
HETATM   30  C   UNL     1      42.798 -15.074   6.192  1.00  0.00     0.079 A 
HETATM   31  C   UNL     1      43.791 -16.673   7.699  1.00  0.00     0.035 A 
HETATM   32  C   UNL     1      41.654 -15.858   6.012  1.00  0.00     0.033 A 
HETATM   33  C   UNL     1      41.609 -17.076   6.700  1.00  0.00     0.002 A 
HETATM   34  C   UNL     1      42.659 -17.481   7.527  1.00  0.00     0.002 A 
ENDBRANCH  25  26
ENDBRANCH   2  25
TORSDOF 8
ENDMDL
MODEL 6
REMARK VINA RESULT:      -7.7      3.287      7.927
REMARK  8 active torsions:
REMARK  status: ('A' for Active; 'I' for Inactive)
REMARK    1  A    between atoms: C_2  and  N_3 
REMARK    2  A    between atoms: C_2  and  C_23 
REMARK       I    between atoms: N_3  and  C_4 
REMARK    3  A    between atoms: N_3  and  C_16 
REMARK    4  A    between atoms: C_4  and  C_5 
REMARK    5  A    between atoms: C_5  and  N_6 
REMARK    6  A    between atoms: C_16  and  C_17 
REMARK       I    between atoms: C_23  and  N_24 
REMARK    7  A    between atoms: N_24  and  C_25 
REMARK    8  A    between atoms: C_28  and  O_29 
ROOT
HETATM    1  N   UNL     1      41.925 -16.947   3.084  1.00  0.00    -0.333 N 
HETATM    2  C   UNL     1      41.068 -16.614   2.035  1.00  0.00     0.240 C 
HETATM    3  O   UNL     1      39.898 -16.288   2.261  1.00  0.00    -0.271 OA
ENDROOT
BRANCH   1   4
HETATM    4  C   UNL     1      41.365 -16.975   4.461  1.00  0.00     0.176 C 
HETATM    5  C   UNL     1      41.764 -18.230   5.241  1.00  0.00     0.042 C 
BRANCH   4   6
HETATM    6  C   UNL     1      41.560 -15.693   5.323  1.00  0.00     0.244 C 
HETATM    7  N   UNL     1      40.773 -14.617   4.942  1.00  0.00    -0.325 N 
HETATM    8  H   UNL     1      40.283 -14.700   4.057  1.00  0.00     0.169 HD
HETATM    9  O   UNL     1      42.248 -15.742   6.343  1.00  0.00    -0.271 OA
BRANCH   7  10
HETATM   10  C   UNL     1      40.695 -13.355   5.575  1.00  0.00     0.035 A 
HETATM   11  C   UNL     1      41.663 -12.356   5.451  1.00  0.00     0.032 A 
HETATM   12  C   UNL     1      41.508 -11.127   6.101  1.00  0.00     0.039 A 
HETATM   13  C   UNL     1      40.379 -10.867   6.875  1.00  0.00     0.068 A 
HETATM   14  C   UNL     1      39.415 -11.862   7.021  1.00  0.00     0.039 A 
HETATM   15  C   UNL     1      39.575 -13.098   6.376  1.00  0.00     0.032 A 
BRANCH  13  16
HETATM   16  O   UNL     1      40.346  -9.626   7.448  1.00  0.00    -0.356 OA
HETATM   17  C   UNL     1      41.492  -9.254   8.203  1.00  0.00     0.210 C 
ENDBRANCH  13  16
ENDBRANCH   7  10
ENDBRANCH   4   6
ENDBRANCH   1   4
BRANCH   1  18
HETATM   18  C   UNL     1      43.359 -17.253   2.943  1.00  0.00     0.165 C 
BRANCH  18  19
HETATM   19  C   UNL     1      43.711 -18.721   2.868  1.00  0.00    -0.040 A 
HETATM   20  C   UNL     1      43.237 -19.558   1.848  1.00  0.00     0.009 A 
HETATM   21  C   UNL     1      43.592 -20.908   1.806  1.00  0.00     0.001 A 
HETATM   22  C   UNL     1      44.437 -21.440   2.777  1.00  0.00     0.000 A 
HETATM   23  C   UNL     1      44.938 -20.618   3.781  1.00  0.00     0.001 A 
HETATM   24  C   UNL     1      44.588 -19.267   3.820  1.00  0.00     0.009 A 
ENDBRANCH  18  19
ENDBRANCH   1  18
BRANCH   2  25
HETATM   25  C   UNL     1      41.548 -16.615   0.597  1.00  0.00     0.250 C 
BRANCH  25  26
HETATM   26  N   UNL     1      41.584 -15.310  -0.025  1.00  0.00    -0.263 N 
HETATM   27  N   UNL     1      41.981 -14.219   0.663  1.00  0.00     0.006 NA
HETATM   28  N   UNL     1      41.804 -13.164  -0.122  1.00  0.00    -0.158 NA
HETATM   29  C   UNL     1      41.330 -13.606  -1.329  1.00  0.00     0.102 A 
HETATM   30  C   UNL     1      41.199 -14.989  -1.303  1.00  0.00     0.079 A 
HETATM   31  C   UNL     1      40.975 -12.901  -2.489  1.00  0.00     0.035 A 
HETATM   32  C   UNL     1      40.740 -15.733  -2.395  1.00  0.00     0.033 A 
HETATM   33  C   UNL     1      40.391 -15.015  -3.545  1.00  0.00     0.002 A 
HETATM   34  C   UNL     1      40.503 -13.624  -3.593  1.00  0.00     0.002 A 
ENDBRANCH  25  26
ENDBRANCH   2  25
TORSDOF 8
ENDMDL
MODEL 7
REMARK VINA RESULT:      -7.7      4.761      6.893
REMARK  8 active torsions:
REMARK  status: ('A' for Active; 'I' for Inactive)
REMARK    1  A    between atoms: C_2  and  N_3 
REMARK    2  A    between atoms: C_2  and  C_23 
REMARK       I    between atoms: N_3  and  C_4 
REMARK    3  A    between atoms: N_3  and  C_16 
REMARK    4  A    between atoms: C_4  and  C_5 
REMARK    5  A    between atoms: C_5  and  N_6 
REMARK    6  A    between atoms: C_16  and  C_17 
REMARK       I    between atoms: C_23  and  N_24 
REMARK    7  A    between atoms: N_24  and  C_25 
REMARK    8  A    between atoms: C_28  and  O_29 
ROOT
HETATM    1  N   UNL     1      41.293 -13.983   1.144  1.00  0.00    -0.333 N 
HETATM    2  C   UNL     1      41.518 -12.641   1.452  1.00  0.00     0.240 C 
HETATM    3  O   UNL     1      41.226 -12.196   2.567  1.00  0.00    -0.271 OA
ENDROOT
BRANCH   1   4
HETATM    4  C   UNL     1      40.621 -14.830   2.164  1.00  0.00     0.176 C 
HETATM    5  C   UNL     1      39.094 -14.773   2.075  1.00  0.00     0.042 C 
BRANCH   4   6
HETATM    6  C   UNL     1      41.120 -16.299   2.295  1.00  0.00     0.244 C 
HETATM    7  N   UNL     1      42.385 -16.431   2.847  1.00  0.00    -0.325 N 
HETATM    8  H   UNL     1      42.928 -15.580   2.954  1.00  0.00     0.169 HD
HETATM    9  O   UNL     1      40.348 -17.230   2.062  1.00  0.00    -0.271 OA
BRANCH   7  10
HETATM   10  C   UNL     1      43.063 -17.637   3.141  1.00  0.00     0.035 A 
HETATM   11  C   UNL     1      43.469 -18.560   2.176  1.00  0.00     0.032 A 
HETATM   12  C   UNL     1      44.146 -19.728   2.544  1.00  0.00     0.039 A 
HETATM   13  C   UNL     1      44.442 -19.989   3.880  1.00  0.00     0.068 A 
HETATM   14  C   UNL     1      44.026 -19.084   4.855  1.00  0.00     0.039 A 
HETATM   15  C   UNL     1      43.339 -17.917   4.485  1.00  0.00     0.032 A 
BRANCH  13  16
HETATM   16  O   UNL     1      45.114 -21.158   4.106  1.00  0.00    -0.356 OA
HETATM   17  C   UNL     1      44.758 -21.867   5.286  1.00  0.00     0.210 C 
ENDBRANCH  13  16
ENDBRANCH   7  10
ENDBRANCH   4   6
ENDBRANCH   1   4
BRANCH   1  18
HETATM   18  C   UNL     1      41.691 -14.644  -0.111  1.00  0.00     0.165 C 
BRANCH  18  19
HETATM   19  C   UNL     1      40.666 -14.611  -1.222  1.00  0.00    -0.040 A 
HETATM   20  C   UNL     1      39.394 -14.046  -1.055  1.00  0.00     0.009 A 
HETATM   21  C   UNL     1      38.477 -14.025  -2.108  1.00  0.00     0.001 A 
HETATM   22  C   UNL     1      38.822 -14.557  -3.348  1.00  0.00     0.000 A 
HETATM   23  C   UNL     1      40.090 -15.097  -3.539  1.00  0.00     0.001 A 
HETATM   24  C   UNL     1      41.009 -15.113  -2.488  1.00  0.00     0.009 A 
ENDBRANCH  18  19
ENDBRANCH   1  18
BRANCH   2  25
HETATM   25  C   UNL     1      42.150 -11.699   0.446  1.00  0.00     0.250 C 
BRANCH  25  26
HETATM   26  N   UNL     1      41.235 -11.178  -0.545  1.00  0.00    -0.263 N 
HETATM   27  N   UNL     1      40.067 -10.604  -0.185  1.00  0.00     0.006 NA
HETATM   28  N   UNL     1      39.397 -10.328  -1.297  1.00  0.00    -0.158 NA
HETATM   29  C   UNL     1      40.173 -10.694  -2.365  1.00  0.00     0.102 A 
HETATM   30  C   UNL     1      41.375 -11.226  -1.910  1.00  0.00     0.079 A 
HETATM   31  C   UNL     1      39.929 -10.623  -3.744  1.00  0.00     0.035 A 
HETATM   32  C   UNL     1      42.379 -11.686  -2.768  1.00  0.00     0.033 A 
HETATM   33  C   UNL     1      42.119 -11.607  -4.141  1.00  0.00     0.002 A 
HETATM   34  C   UNL     1      40.916 -11.088  -4.623  1.00  0.00     0.002 A 
ENDBRANCH  25  26
ENDBRANCH   2  25
TORSDOF 8
ENDMDL
MODEL 8
REMARK VINA RESULT:      -7.6      3.562      7.198
REMARK  8 active torsions:
REMARK  status: ('A' for Active; 'I' for Inactive)
REMARK    1  A    between atoms: C_2  and  N_3 
REMARK    2  A    between atoms: C_2  and  C_23 
REMARK       I    between atoms: N_3  and  C_4 
REMARK    3  A    between atoms: N_3  and  C_16 
REMARK    4  A    between atoms: C_4  and  C_5 
REMARK    5  A    between atoms: C_5  and  N_6 
REMARK    6  A    between atoms: C_16  and  C_17 
REMARK       I    between atoms: C_23  and  N_24 
REMARK    7  A    between atoms: N_24  and  C_25 
REMARK    8  A    between atoms: C_28  and  O_29 
ROOT
HETATM    1  N   UNL     1      42.586 -14.398   4.018  1.00  0.00    -0.333 N 
HETATM    2  C   UNL     1      42.827 -14.554   5.384  1.00  0.00     0.240 C 
HETATM    3  O   UNL     1      42.000 -14.166   6.215  1.00  0.00    -0.271 OA
ENDROOT
BRANCH   1   4
HETATM    4  C   UNL     1      41.350 -13.681   3.605  1.00  0.00     0.176 C 
HETATM    5  C   UNL     1      41.513 -12.159   3.613  1.00  0.00     0.042 C 
BRANCH   4   6
HETATM    6  C   UNL     1      40.665 -14.166   2.293  1.00  0.00     0.244 C 
HETATM    7  N   UNL     1      41.377 -13.892   1.136  1.00  0.00    -0.325 N 
HETATM    8  H   UNL     1      42.172 -13.268   1.226  1.00  0.00     0.169 HD
HETATM    9  O   UNL     1      39.655 -14.869   2.355  1.00  0.00    -0.271 OA
BRANCH   7  10
HETATM   10  C   UNL     1      41.031 -14.266  -0.183  1.00  0.00     0.035 A 
HETATM   11  C   UNL     1      41.322 -15.511  -0.744  1.00  0.00     0.032 A 
HETATM   12  C   UNL     1      40.936 -15.811  -2.056  1.00  0.00     0.039 A 
HETATM   13  C   UNL     1      40.242 -14.881  -2.825  1.00  0.00     0.068 A 
HETATM   14  C   UNL     1      39.962 -13.628  -2.283  1.00  0.00     0.039 A 
HETATM   15  C   UNL     1      40.356 -13.324  -0.971  1.00  0.00     0.032 A 
BRANCH  13  16
HETATM   16  O   UNL     1      39.917 -15.301  -4.085  1.00  0.00    -0.356 OA
HETATM   17  C   UNL     1      38.632 -15.891  -4.237  1.00  0.00     0.210 C 
ENDBRANCH  13  16
ENDBRANCH   7  10
ENDBRANCH   4   6
ENDBRANCH   1   4
BRANCH   1  18
HETATM   18  C   UNL     1      43.450 -14.909   2.941  1.00  0.00     0.165 C 
BRANCH  18  19
HETATM   19  C   UNL     1      43.237 -16.356   2.560  1.00  0.00    -0.040 A 
HETATM   20  C   UNL     1      42.099 -17.076   2.950  1.00  0.00     0.009 A 
HETATM   21  C   UNL     1      41.931 -18.410   2.571  1.00  0.00     0.001 A 
HETATM   22  C   UNL     1      42.892 -19.040   1.783  1.00  0.00     0.000 A 
HETATM   23  C   UNL     1      44.014 -18.332   1.364  1.00  0.00     0.001 A 
HETATM   24  C   UNL     1      44.179 -16.997   1.739  1.00  0.00     0.009 A 
ENDBRANCH  18  19
ENDBRANCH   1  18
BRANCH   2  25
HETATM   25  C   UNL     1      44.089 -15.226   5.887  1.00  0.00     0.250 C 
BRANCH  25  26
HETATM   26  N   UNL     1      43.862 -16.344   6.775  1.00  0.00    -0.263 N 
HETATM   27  N   UNL     1      43.597 -16.154   8.085  1.00  0.00     0.006 NA
HETATM   28  N   UNL     1      43.547 -17.349   8.660  1.00  0.00    -0.158 NA
HETATM   29  C   UNL     1      43.742 -18.297   7.692  1.00  0.00     0.102 A 
HETATM   30  C   UNL     1      43.926 -17.678   6.461  1.00  0.00     0.079 A 
HETATM   31  C   UNL     1      43.792 -19.696   7.775  1.00  0.00     0.035 A 
HETATM   32  C   UNL     1      44.145 -18.389   5.275  1.00  0.00     0.033 A 
HETATM   33  C   UNL     1      44.190 -19.784   5.376  1.00  0.00     0.002 A 
HETATM   34  C   UNL     1      44.020 -20.429   6.602  1.00  0.00     0.002 A 
ENDBRANCH  25  26
ENDBRANCH   2  25
TORSDOF 8
ENDMDL
MODEL 9
REMARK VINA RESULT:      -7.6      3.514      5.447
REMARK  8 active torsions:
REMARK  status: ('A' for Active; 'I' for Inactive)
REMARK    1  A    between atoms: C_2  and  N_3 
REMARK    2  A    between atoms: C_2  and  C_23 
REMARK       I    between atoms: N_3  and  C_4 
REMARK    3  A    between atoms: N_3  and  C_16 
REMARK    4  A    between atoms: C_4  and  C_5 
REMARK    5  A    between atoms: C_5  and  N_6 
REMARK    6  A    between atoms: C_16  and  C_17 
REMARK       I    between atoms: C_23  and  N_24 
REMARK    7  A    between atoms: N_24  and  C_25 
REMARK    8  A    between atoms: C_28  and  O_29 
ROOT
HETATM    1  N   UNL     1      40.487 -13.589   3.385  1.00  0.00    -0.333 N 
HETATM    2  C   UNL     1      40.792 -12.239   3.205  1.00  0.00     0.240 C 
HETATM    3  O   UNL     1      41.692 -11.706   3.863  1.00  0.00    -0.271 OA
ENDROOT
BRANCH   1   4
HETATM    4  C   UNL     1      41.219 -14.333   4.444  1.00  0.00     0.176 C 
HETATM    5  C   UNL     1      40.289 -14.936   5.500  1.00  0.00     0.042 C 
BRANCH   4   6
HETATM    6  C   UNL     1      42.274 -15.374   3.967  1.00  0.00     0.244 C 
HETATM    7  N   UNL     1      41.872 -16.696   4.079  1.00  0.00    -0.325 N 
HETATM    8  H   UNL     1      41.023 -16.872   4.606  1.00  0.00     0.169 HD
HETATM    9  O   UNL     1      43.296 -14.990   3.397  1.00  0.00    -0.271 OA
BRANCH   7  10
HETATM   10  C   UNL     1      42.593 -17.842   3.669  1.00  0.00     0.035 A 
HETATM   11  C   UNL     1      42.428 -18.467   2.431  1.00  0.00     0.032 A 
HETATM   12  C   UNL     1      43.188 -19.592   2.093  1.00  0.00     0.039 A 
HETATM   13  C   UNL     1      44.134 -20.105   2.977  1.00  0.00     0.068 A 
HETATM   14  C   UNL     1      44.295 -19.502   4.222  1.00  0.00     0.039 A 
HETATM   15  C   UNL     1      43.527 -18.378   4.565  1.00  0.00     0.032 A 
BRANCH  13  16
HETATM   16  O   UNL     1      44.814 -21.201   2.523  1.00  0.00    -0.356 OA
HETATM   17  C   UNL     1      44.175 -21.956   1.501  1.00  0.00     0.210 C 
ENDBRANCH  13  16
ENDBRANCH   7  10
ENDBRANCH   4   6
ENDBRANCH   1   4
BRANCH   1  18
HETATM   18  C   UNL     1      39.508 -14.350   2.592  1.00  0.00     0.165 C 
BRANCH  18  19
HETATM   19  C   UNL     1      39.864 -14.559   1.138  1.00  0.00    -0.040 A 
HETATM   20  C   UNL     1      39.148 -13.957   0.094  1.00  0.00     0.009 A 
HETATM   21  C   UNL     1      39.513 -14.166  -1.238  1.00  0.00     0.001 A 
HETATM   22  C   UNL     1      40.608 -14.969  -1.546  1.00  0.00     0.000 A 
HETATM   23  C   UNL     1      41.347 -15.552  -0.522  1.00  0.00     0.001 A 
HETATM   24  C   UNL     1      40.986 -15.339   0.810  1.00  0.00     0.009 A 
ENDBRANCH  18  19
ENDBRANCH   1  18
BRANCH   2  25
HETATM   25  C   UNL     1      40.054 -11.396   2.183  1.00  0.00     0.250 C 
BRANCH  25  26
HETATM   26  N   UNL     1      40.867 -10.393   1.532  1.00  0.00    -0.263 N 
HETATM   27  N   UNL     1      40.803  -9.096   1.901  1.00  0.00     0.006 NA
HETATM   28  N   UNL     1      41.566  -8.404   1.063  1.00  0.00    -0.158 NA
HETATM   29  C   UNL     1      42.144  -9.285   0.187  1.00  0.00     0.102 A 
HETATM   30  C   UNL     1      41.728 -10.578   0.480  1.00  0.00     0.079 A 
HETATM   31  C   UNL     1      43.018  -9.069  -0.888  1.00  0.00     0.035 A 
HETATM   32  C   UNL     1      42.155 -11.699  -0.241  1.00  0.00     0.033 A 
HETATM   33  C   UNL     1      43.028 -11.465  -1.309  1.00  0.00     0.002 A 
HETATM   34  C   UNL     1      43.451 -10.175  -1.632  1.00  0.00     0.002 A 
ENDBRANCH  25  26
ENDBRANCH   2  25
TORSDOF 8
ENDMDL
MODEL 10
REMARK VINA RESULT:      -7.6      5.574      9.077
REMARK  8 active torsions:
REMARK  status: ('A' for Active; 'I' for Inactive)
REMARK    1  A    between atoms: C_2  and  N_3 
REMARK    2  A    between atoms: C_2  and  C_23 
REMARK       I    between atoms: N_3  and  C_4 
REMARK    3  A    between atoms: N_3  and  C_16 
REMARK    4  A    between atoms: C_4  and  C_5 
REMARK    5  A    between atoms: C_5  and  N_6 
REMARK    6  A    between atoms: C_16  and  C_17 
REMARK       I    between atoms: C_23  and  N_24 
REMARK    7  A    between atoms: N_24  and  C_25 
REMARK    8  A    between atoms: C_28  and  O_29 
ROOT
HETATM    1  N   UNL     1      40.706 -12.820   1.450  1.00  0.00    -0.333 N 
HETATM    2  C   UNL     1      40.683 -13.394   2.722  1.00  0.00     0.240 C 
HETATM    3  O   UNL     1      39.648 -13.381   3.397  1.00  0.00    -0.271 OA
ENDROOT
BRANCH   1   4
HETATM    4  C   UNL     1      39.479 -12.128   0.975  1.00  0.00     0.176 C 
HETATM    5  C   UNL     1      39.759 -10.729   0.421  1.00  0.00     0.042 C 
BRANCH   4   6
HETATM    6  C   UNL     1      38.546 -12.932   0.022  1.00  0.00     0.244 C 
HETATM    7  N   UNL     1      38.530 -12.477  -1.288  1.00  0.00    -0.325 N 
HETATM    8  H   UNL     1      38.978 -11.584  -1.466  1.00  0.00     0.169 HD
HETATM    9  O   UNL     1      38.018 -13.972   0.417  1.00  0.00    -0.271 OA
BRANCH   7  10
HETATM   10  C   UNL     1      37.829 -13.045  -2.377  1.00  0.00     0.035 A 
HETATM   11  C   UNL     1      37.865 -14.402  -2.707  1.00  0.00     0.032 A 
HETATM   12  C   UNL     1      37.135 -14.892  -3.795  1.00  0.00     0.039 A 
HETATM   13  C   UNL     1      36.345 -14.041  -4.564  1.00  0.00     0.068 A 
HETATM   14  C   UNL     1      36.315 -12.682  -4.256  1.00  0.00     0.039 A 
HETATM   15  C   UNL     1      37.055 -12.189  -3.170  1.00  0.00     0.032 A 
BRANCH  13  16
HETATM   16  O   UNL     1      35.676 -14.645  -5.592  1.00  0.00    -0.356 OA
HETATM   17  C   UNL     1      35.316 -13.808  -6.683  1.00  0.00     0.210 C 
ENDBRANCH  13  16
ENDBRANCH   7  10
ENDBRANCH   4   6
ENDBRANCH   1   4
BRANCH   1  18
HETATM   18  C   UNL     1      41.847 -12.863   0.521  1.00  0.00     0.165 C 
BRANCH  18  19
HETATM   19  C   UNL     1      41.666 -13.735  -0.700  1.00  0.00    -0.040 A 
HETATM   20  C   UNL     1      41.239 -15.068  -0.615  1.00  0.00     0.009 A 
HETATM   21  C   UNL     1      41.073 -15.841  -1.767  1.00  0.00     0.001 A 
HETATM   22  C   UNL     1      41.318 -15.288  -3.022  1.00  0.00     0.000 A 
HETATM   23  C   UNL     1      41.715 -13.959  -3.126  1.00  0.00     0.001 A 
HETATM   24  C   UNL     1      41.876 -13.185  -1.975  1.00  0.00     0.009 A 
ENDBRANCH  18  19
ENDBRANCH   1  18
BRANCH   2  25
HETATM   25  C   UNL     1      41.910 -14.071   3.301  1.00  0.00     0.250 C 
BRANCH  25  26
HETATM   26  N   UNL     1      41.823 -15.512   3.373  1.00  0.00    -0.263 N 
HETATM   27  N   UNL     1      40.974 -16.119   4.230  1.00  0.00     0.006 NA
HETATM   28  N   UNL     1      41.194 -17.425   4.153  1.00  0.00    -0.158 NA
HETATM   29  C   UNL     1      42.162 -17.640   3.208  1.00  0.00     0.102 A 
HETATM   30  C   UNL     1      42.571 -16.424   2.672  1.00  0.00     0.079 A 
HETATM   31  C   UNL     1      42.756 -18.827   2.757  1.00  0.00     0.035 A 
HETATM   32  C   UNL     1      43.549 -16.320   1.677  1.00  0.00     0.033 A 
HETATM   33  C   UNL     1      44.131 -17.514   1.238  1.00  0.00     0.002 A 
HETATM   34  C   UNL     1      43.746 -18.747   1.768  1.00  0.00     0.002 A 
ENDBRANCH  25  26
ENDBRANCH   2  25
TORSDOF 8
ENDMDL
