MODEL 1
REMARK VINA RESULT:      -9.1      0.000      0.000
REMARK  6 active torsions:
REMARK  status: ('A' for Active; 'I' for Inactive)
REMARK    1  A    between atoms: C_4  and  C_5 
REMARK    2  A    between atoms: C_5  and  O_6 
REMARK    3  A    between atoms: O_6  and  C_7 
REMARK    4  A    between atoms: C_10  and  C_11 
REMARK    5  A    between atoms: C_17  and  C_18 
REMARK    6  A    between atoms: C_26  and  N_27 
ROOT
HETATM    1  C   UNL     1      40.904 -14.529   5.465  1.00  0.00     0.072 A 
HETATM    2  N   UNL     1      39.932 -14.047   6.317  1.00  0.00    -0.274 N 
HETATM    3  H   UNL     1      39.648 -14.431   7.211  1.00  0.00     0.189 HD
HETATM    4  N   UNL     1      39.303 -12.941   5.867  1.00  0.00    -0.148 NA
HETATM    5  C   UNL     1      39.917 -12.717   4.713  1.00  0.00     0.199 A 
HETATM    6  C   UNL     1      40.913 -13.642   4.402  1.00  0.00     0.040 A 
HETATM    7  C   UNL     1      41.672 -13.554   3.123  1.00  0.00     0.108 A 
HETATM    8  C   UNL     1      41.228 -12.327   2.324  1.00  0.00     0.081 A 
HETATM    9  C   UNL     1      41.951 -12.048   1.125  1.00  0.00     0.100 C 
HETATM   10  N   UNL     1      42.541 -11.827   0.150  1.00  0.00    -0.191 NA
HETATM   11  C   UNL     1      40.238 -11.491   2.734  1.00  0.00     0.140 A 
HETATM   12  O   UNL     1      39.543 -11.686   3.936  1.00  0.00    -0.277 OA
ENDROOT
BRANCH   7  13
HETATM   13  C   UNL     1      41.551 -14.820   2.314  1.00  0.00    -0.020 A 
HETATM   14  C   UNL     1      40.412 -15.376   1.763  1.00  0.00     0.149 A 
HETATM   15  O   UNL     1      40.701 -16.528   1.108  1.00  0.00    -0.334 OA
HETATM   16  C   UNL     1      42.037 -16.728   1.231  1.00  0.00     0.142 A 
HETATM   17  C   UNL     1      42.609 -15.711   1.959  1.00  0.00     0.034 A 
ENDBRANCH   7  13
BRANCH  11  18
HETATM   18  N   UNL     1      39.805 -10.375   2.050  1.00  0.00    -0.282 NA
HETATM   19  H   UNL     1      38.887 -10.448   1.618  1.00  0.00     0.126 HD
HETATM   20  H   UNL     1      39.920  -9.525   2.600  1.00  0.00     0.126 HD
ENDBRANCH  11  18
BRANCH   1  21
HETATM   21  C   UNL     1      41.651 -15.754   5.715  1.00  0.00    -0.007 A 
HETATM   22  C   UNL     1      41.117 -16.994   5.346  1.00  0.00     0.016 A 
HETATM   23  C   UNL     1      41.859 -18.170   5.510  1.00  0.00     0.037 A 
HETATM   24  C   UNL     1      43.148 -18.114   6.038  1.00  0.00     0.069 A 
HETATM   25  C   UNL     1      43.668 -16.884   6.445  1.00  0.00     0.037 A 
HETATM   26  C   UNL     1      42.928 -15.710   6.281  1.00  0.00     0.016 A 
BRANCH  24  27
HETATM   27  O   UNL     1      43.984 -19.183   6.209  1.00  0.00    -0.347 OA
BRANCH  27  28
HETATM   28  C   UNL     1      45.039 -19.316   5.253  1.00  0.00     0.214 C 
BRANCH  28  29
HETATM   29  C   UNL     1      44.590 -20.162   4.083  1.00  0.00    -0.034 A 
HETATM   30  C   UNL     1      44.051 -19.550   2.941  1.00  0.00     0.009 A 
HETATM   31  C   UNL     1      43.690 -20.313   1.829  1.00  0.00     0.001 A 
HETATM   32  C   UNL     1      43.872 -21.694   1.841  1.00  0.00     0.000 A 
HETATM   33  C   UNL     1      44.417 -22.314   2.963  1.00  0.00     0.001 A 
HETATM   34  C   UNL     1      44.781 -21.552   4.075  1.00  0.00     0.009 A 
ENDBRANCH  28  29
ENDBRANCH  27  28
ENDBRANCH  24  27
ENDBRANCH   1  21
TORSDOF 6
ENDMDL
MODEL 2
REMARK VINA RESULT:      -8.7      2.038      4.376
REMARK  6 active torsions:
REMARK  status: ('A' for Active; 'I' for Inactive)
REMARK    1  A    between atoms: C_4  and  C_5 
REMARK    2  A    between atoms: C_5  and  O_6 
REMARK    3  A    between atoms: O_6  and  C_7 
REMARK    4  A    between atoms: C_10  and  C_11 
REMARK    5  A    between atoms: C_17  and  C_18 
REMARK    6  A    between atoms: C_26  and  N_27 
ROOT
HETATM    1  C   UNL     1      41.756 -15.749   0.606  1.00  0.00     0.072 A 
HETATM    2  N   UNL     1      41.741 -15.434  -0.737  1.00  0.00    -0.274 N 
HETATM    3  H   UNL     1      42.117 -15.981  -1.504  1.00  0.00     0.189 HD
HETATM    4  N   UNL     1      41.159 -14.250  -1.019  1.00  0.00    -0.148 NA
HETATM    5  C   UNL     1      40.782 -13.827   0.180  1.00  0.00     0.199 A 
HETATM    6  C   UNL     1      41.106 -14.693   1.223  1.00  0.00     0.040 A 
HETATM    7  C   UNL     1      40.786 -14.349   2.637  1.00  0.00     0.108 A 
HETATM    8  C   UNL     1      40.044 -13.012   2.704  1.00  0.00     0.081 A 
HETATM    9  C   UNL     1      39.570 -12.606   3.988  1.00  0.00     0.100 C 
HETATM   10  N   UNL     1      39.188 -12.281   5.034  1.00  0.00    -0.191 NA
HETATM   11  C   UNL     1      39.783 -12.251   1.608  1.00  0.00     0.140 A 
HETATM   12  O   UNL     1      40.171 -12.638   0.318  1.00  0.00    -0.277 OA
ENDROOT
BRANCH   7  13
HETATM   13  C   UNL     1      42.018 -14.347   3.504  1.00  0.00    -0.020 A 
HETATM   14  C   UNL     1      43.111 -13.504   3.433  1.00  0.00     0.149 A 
HETATM   15  O   UNL     1      44.030 -13.817   4.380  1.00  0.00    -0.334 OA
HETATM   16  C   UNL     1      43.535 -14.871   5.076  1.00  0.00     0.142 A 
HETATM   17  C   UNL     1      42.304 -15.236   4.584  1.00  0.00     0.034 A 
ENDBRANCH   7  13
BRANCH  11  18
HETATM   18  N   UNL     1      39.119 -11.043   1.619  1.00  0.00    -0.282 NA
HETATM   19  H   UNL     1      38.127 -11.081   1.395  1.00  0.00     0.126 HD
HETATM   20  H   UNL     1      39.316 -10.508   2.463  1.00  0.00     0.126 HD
ENDBRANCH  11  18
BRANCH   1  21
HETATM   21  C   UNL     1      42.402 -16.939   1.142  1.00  0.00    -0.007 A 
HETATM   22  C   UNL     1      43.785 -16.957   1.355  1.00  0.00     0.016 A 
HETATM   23  C   UNL     1      44.404 -18.066   1.942  1.00  0.00     0.037 A 
HETATM   24  C   UNL     1      43.642 -19.168   2.330  1.00  0.00     0.069 A 
HETATM   25  C   UNL     1      42.269 -19.171   2.081  1.00  0.00     0.037 A 
HETATM   26  C   UNL     1      41.649 -18.063   1.496  1.00  0.00     0.016 A 
BRANCH  24  27
HETATM   27  O   UNL     1      44.123 -20.289   2.946  1.00  0.00    -0.347 OA
BRANCH  27  28
HETATM   28  C   UNL     1      45.219 -20.093   3.845  1.00  0.00     0.214 C 
BRANCH  28  29
HETATM   29  C   UNL     1      44.717 -19.673   5.208  1.00  0.00    -0.034 A 
HETATM   30  C   UNL     1      44.052 -20.599   6.026  1.00  0.00     0.009 A 
HETATM   31  C   UNL     1      43.639 -20.245   7.311  1.00  0.00     0.001 A 
HETATM   32  C   UNL     1      43.892 -18.963   7.798  1.00  0.00     0.000 A 
HETATM   33  C   UNL     1      44.562 -18.038   7.001  1.00  0.00     0.001 A 
HETATM   34  C   UNL     1      44.978 -18.392   5.716  1.00  0.00     0.009 A 
ENDBRANCH  28  29
ENDBRANCH  27  28
ENDBRANCH  24  27
ENDBRANCH   1  21
TORSDOF 6
ENDMDL
MODEL 3
REMARK VINA RESULT:      -8.6      0.892      1.414
REMARK  6 active torsions:
REMARK  status: ('A' for Active; 'I' for Inactive)
REMARK    1  A    between atoms: C_4  and  C_5 
REMARK    2  A    between atoms: C_5  and  O_6 
REMARK    3  A    between atoms: O_6  and  C_7 
REMARK    4  A    between atoms: C_10  and  C_11 
REMARK    5  A    between atoms: C_17  and  C_18 
REMARK    6  A    between atoms: C_26  and  N_27 
ROOT
HETATM    1  C   UNL     1      40.650 -14.036   5.772  1.00  0.00     0.072 A 
HETATM    2  N   UNL     1      39.782 -13.696   6.789  1.00  0.00    -0.274 N 
HETATM    3  H   UNL     1      39.630 -14.189   7.662  1.00  0.00     0.189 HD
HETATM    4  N   UNL     1      39.064 -12.579   6.551  1.00  0.00    -0.148 NA
HETATM    5  C   UNL     1      39.513 -12.202   5.362  1.00  0.00     0.199 A 
HETATM    6  C   UNL     1      40.490 -13.039   4.824  1.00  0.00     0.040 A 
HETATM    7  C   UNL     1      41.072 -12.777   3.478  1.00  0.00     0.108 A 
HETATM    8  C   UNL     1      40.488 -11.491   2.887  1.00  0.00     0.081 A 
HETATM    9  C   UNL     1      41.038 -11.050   1.646  1.00  0.00     0.100 C 
HETATM   10  N   UNL     1      41.488 -10.696   0.636  1.00  0.00    -0.191 NA
HETATM   11  C   UNL     1      39.533 -10.753   3.511  1.00  0.00     0.140 A 
HETATM   12  O   UNL     1      39.008 -11.111   4.761  1.00  0.00    -0.277 OA
ENDROOT
BRANCH   7  13
HETATM   13  C   UNL     1      40.888 -13.951   2.552  1.00  0.00    -0.020 A 
HETATM   14  C   UNL     1      41.854 -14.633   1.836  1.00  0.00     0.149 A 
HETATM   15  O   UNL     1      41.301 -15.632   1.104  1.00  0.00    -0.334 OA
HETATM   16  C   UNL     1      39.966 -15.605   1.342  1.00  0.00     0.142 A 
HETATM   17  C   UNL     1      39.658 -14.596   2.224  1.00  0.00     0.034 A 
ENDBRANCH   7  13
BRANCH  11  18
HETATM   18  N   UNL     1      38.978  -9.591   3.019  1.00  0.00    -0.282 NA
HETATM   19  H   UNL     1      39.481  -8.734   3.236  1.00  0.00     0.126 HD
HETATM   20  H   UNL     1      38.737  -9.673   2.033  1.00  0.00     0.126 HD
ENDBRANCH  11  18
BRANCH   1  21
HETATM   21  C   UNL     1      41.463 -15.244   5.783  1.00  0.00    -0.007 A 
HETATM   22  C   UNL     1      42.785 -15.201   6.240  1.00  0.00     0.016 A 
HETATM   23  C   UNL     1      43.549 -16.370   6.329  1.00  0.00     0.037 A 
HETATM   24  C   UNL     1      42.994 -17.597   5.968  1.00  0.00     0.069 A 
HETATM   25  C   UNL     1      41.690 -17.638   5.473  1.00  0.00     0.037 A 
HETATM   26  C   UNL     1      40.925 -16.471   5.385  1.00  0.00     0.016 A 
BRANCH  24  27
HETATM   27  O   UNL     1      43.623 -18.808   6.048  1.00  0.00    -0.347 OA
BRANCH  27  28
HETATM   28  C   UNL     1      44.748 -18.991   5.183  1.00  0.00     0.214 C 
BRANCH  28  29
HETATM   29  C   UNL     1      44.409 -19.954   4.069  1.00  0.00    -0.034 A 
HETATM   30  C   UNL     1      43.794 -19.483   2.898  1.00  0.00     0.009 A 
HETATM   31  C   UNL     1      43.532 -20.349   1.835  1.00  0.00     0.001 A 
HETATM   32  C   UNL     1      43.888 -21.693   1.925  1.00  0.00     0.000 A 
HETATM   33  C   UNL     1      44.509 -22.172   3.076  1.00  0.00     0.001 A 
HETATM   34  C   UNL     1      44.775 -21.307   4.139  1.00  0.00     0.009 A 
ENDBRANCH  28  29
ENDBRANCH  27  28
ENDBRANCH  24  27
ENDBRANCH   1  21
TORSDOF 6
ENDMDL
MODEL 4
REMARK VINA RESULT:      -8.6      2.107      4.055
REMARK  6 active torsions:
REMARK  status: ('A' for Active; 'I' for Inactive)
REMARK    1  A    between atoms: C_4  and  C_5 
REMARK    2  A    between atoms: C_5  and  O_6 
REMARK    3  A    between atoms: O_6  and  C_7 
REMARK    4  A    between atoms: C_10  and  C_11 
REMARK    5  A    between atoms: C_17  and  C_18 
REMARK    6  A    between atoms: C_26  and  N_27 
ROOT
HETATM    1  C   UNL     1      39.945 -14.373   1.508  1.00  0.00     0.072 A 
HETATM    2  N   UNL     1      39.421 -13.761   0.388  1.00  0.00    -0.274 N 
HETATM    3  H   UNL     1      39.481 -14.078  -0.574  1.00  0.00     0.189 HD
HETATM    4  N   UNL     1      38.772 -12.606   0.643  1.00  0.00    -0.148 NA
HETATM    5  C   UNL     1      38.876 -12.509   1.961  1.00  0.00     0.199 A 
HETATM    6  C   UNL     1      39.574 -13.555   2.562  1.00  0.00     0.040 A 
HETATM    7  C   UNL     1      39.813 -13.577   4.033  1.00  0.00     0.108 A 
HETATM    8  C   UNL     1      39.147 -12.370   4.697  1.00  0.00     0.081 A 
HETATM    9  C   UNL     1      39.194 -12.318   6.123  1.00  0.00     0.100 C 
HETATM   10  N   UNL     1      39.236 -12.280   7.282  1.00  0.00    -0.191 NA
HETATM   11  C   UNL     1      38.488 -11.407   4.000  1.00  0.00     0.140 A 
HETATM   12  O   UNL     1      38.359 -11.448   2.605  1.00  0.00    -0.277 OA
ENDROOT
BRANCH   7  13
HETATM   13  C   UNL     1      41.282 -13.654   4.359  1.00  0.00    -0.020 A 
HETATM   14  C   UNL     1      42.292 -12.801   3.955  1.00  0.00     0.149 A 
HETATM   15  O   UNL     1      43.491 -13.202   4.446  1.00  0.00    -0.334 OA
HETATM   16  C   UNL     1      43.265 -14.323   5.175  1.00  0.00     0.142 A 
HETATM   17  C   UNL     1      41.929 -14.644   5.158  1.00  0.00     0.034 A 
ENDBRANCH   7  13
BRANCH  11  18
HETATM   18  N   UNL     1      37.873 -10.304   4.554  1.00  0.00    -0.282 NA
HETATM   19  H   UNL     1      38.406  -9.811   5.266  1.00  0.00     0.126 HD
HETATM   20  H   UNL     1      37.492  -9.684   3.841  1.00  0.00     0.126 HD
ENDBRANCH  11  18
BRANCH   1  21
HETATM   21  C   UNL     1      40.750 -15.586   1.455  1.00  0.00    -0.007 A 
HETATM   22  C   UNL     1      42.067 -15.539   0.983  1.00  0.00     0.016 A 
HETATM   23  C   UNL     1      42.874 -16.683   1.001  1.00  0.00     0.037 A 
HETATM   24  C   UNL     1      42.372 -17.884   1.501  1.00  0.00     0.069 A 
HETATM   25  C   UNL     1      41.046 -17.944   1.933  1.00  0.00     0.037 A 
HETATM   26  C   UNL     1      40.240 -16.802   1.917  1.00  0.00     0.016 A 
BRANCH  24  27
HETATM   27  O   UNL     1      43.071 -19.054   1.608  1.00  0.00    -0.347 OA
BRANCH  27  28
HETATM   28  C   UNL     1      44.304 -18.986   2.330  1.00  0.00     0.214 C 
BRANCH  28  29
HETATM   29  C   UNL     1      44.497 -20.232   3.166  1.00  0.00    -0.034 A 
HETATM   30  C   UNL     1      44.619 -20.128   4.560  1.00  0.00     0.009 A 
HETATM   31  C   UNL     1      44.735 -21.273   5.351  1.00  0.00     0.001 A 
HETATM   32  C   UNL     1      44.721 -22.534   4.759  1.00  0.00     0.000 A 
HETATM   33  C   UNL     1      44.588 -22.652   3.377  1.00  0.00     0.001 A 
HETATM   34  C   UNL     1      44.470 -21.508   2.586  1.00  0.00     0.009 A 
ENDBRANCH  28  29
ENDBRANCH  27  28
ENDBRANCH  24  27
ENDBRANCH   1  21
TORSDOF 6
ENDMDL
MODEL 5
REMARK VINA RESULT:      -8.1      3.498      7.566
REMARK  6 active torsions:
REMARK  status: ('A' for Active; 'I' for Inactive)
REMARK    1  A    between atoms: C_4  and  C_5 
REMARK    2  A    between atoms: C_5  and  O_6 
REMARK    3  A    between atoms: O_6  and  C_7 
REMARK    4  A    between atoms: C_10  and  C_11 
REMARK    5  A    between atoms: C_17  and  C_18 
REMARK    6  A    between atoms: C_26  and  N_27 
ROOT
HETATM    1  C   UNL     1      42.830 -16.050   4.713  1.00  0.00     0.072 A 
HETATM    2  N   UNL     1      43.124 -14.822   5.269  1.00  0.00    -0.274 N 
HETATM    3  H   UNL     1      43.027 -13.909   4.837  1.00  0.00     0.189 HD
HETATM    4  N   UNL     1      43.602 -14.887   6.529  1.00  0.00    -0.148 NA
HETATM    5  C   UNL     1      43.585 -16.190   6.771  1.00  0.00     0.199 A 
HETATM    6  C   UNL     1      43.119 -16.966   5.710  1.00  0.00     0.040 A 
HETATM    7  C   UNL     1      43.072 -18.452   5.807  1.00  0.00     0.108 A 
HETATM    8  C   UNL     1      43.532 -18.910   7.193  1.00  0.00     0.081 A 
HETATM    9  C   UNL     1      43.431 -20.307   7.472  1.00  0.00     0.100 C 
HETATM   10  N   UNL     1      43.348 -21.443   7.693  1.00  0.00    -0.191 NA
HETATM   11  C   UNL     1      43.968 -18.052   8.153  1.00  0.00     0.140 A 
HETATM   12  O   UNL     1      44.024 -16.666   7.949  1.00  0.00    -0.277 OA
ENDROOT
BRANCH   7  13
HETATM   13  C   UNL     1      43.868 -19.108   4.709  1.00  0.00    -0.020 A 
HETATM   14  C   UNL     1      45.182 -19.538   4.747  1.00  0.00     0.149 A 
HETATM   15  O   UNL     1      45.552 -20.074   3.557  1.00  0.00    -0.334 OA
HETATM   16  C   UNL     1      44.475 -19.996   2.737  1.00  0.00     0.142 A 
HETATM   17  C   UNL     1      43.415 -19.415   3.391  1.00  0.00     0.034 A 
ENDBRANCH   7  13
BRANCH  11  18
HETATM   18  N   UNL     1      44.391 -18.417   9.414  1.00  0.00    -0.282 NA
HETATM   19  H   UNL     1      43.977 -19.265   9.791  1.00  0.00     0.126 HD
HETATM   20  H   UNL     1      45.406 -18.399   9.493  1.00  0.00     0.126 HD
ENDBRANCH  11  18
BRANCH   1  21
HETATM   21  C   UNL     1      42.378 -16.219   3.339  1.00  0.00    -0.007 A 
HETATM   22  C   UNL     1      41.044 -16.548   3.071  1.00  0.00     0.016 A 
HETATM   23  C   UNL     1      40.580 -16.636   1.753  1.00  0.00     0.037 A 
HETATM   24  C   UNL     1      41.447 -16.389   0.690  1.00  0.00     0.069 A 
HETATM   25  C   UNL     1      42.787 -16.102   0.952  1.00  0.00     0.037 A 
HETATM   26  C   UNL     1      43.251 -16.012   2.268  1.00  0.00     0.016 A 
BRANCH  24  27
HETATM   27  O   UNL     1      41.105 -16.405  -0.634  1.00  0.00    -0.347 OA
BRANCH  27  28
HETATM   28  C   UNL     1      41.078 -15.135  -1.293  1.00  0.00     0.214 C 
BRANCH  28  29
HETATM   29  C   UNL     1      39.947 -15.083  -2.294  1.00  0.00    -0.034 A 
HETATM   30  C   UNL     1      39.917 -15.988  -3.366  1.00  0.00     0.009 A 
HETATM   31  C   UNL     1      38.847 -15.993  -4.263  1.00  0.00     0.001 A 
HETATM   32  C   UNL     1      37.790 -15.100  -4.095  1.00  0.00     0.000 A 
HETATM   33  C   UNL     1      37.801 -14.204  -3.028  1.00  0.00     0.001 A 
HETATM   34  C   UNL     1      38.869 -14.200  -2.129  1.00  0.00     0.009 A 
ENDBRANCH  28  29
ENDBRANCH  27  28
ENDBRANCH  24  27
ENDBRANCH   1  21
TORSDOF 6
ENDMDL
MODEL 6
REMARK VINA RESULT:      -8.1      2.719      4.705
REMARK  6 active torsions:
REMARK  status: ('A' for Active; 'I' for Inactive)
REMARK    1  A    between atoms: C_4  and  C_5 
REMARK    2  A    between atoms: C_5  and  O_6 
REMARK    3  A    between atoms: O_6  and  C_7 
REMARK    4  A    between atoms: C_10  and  C_11 
REMARK    5  A    between atoms: C_17  and  C_18 
REMARK    6  A    between atoms: C_26  and  N_27 
ROOT
HETATM    1  C   UNL     1      40.946 -15.463  -0.535  1.00  0.00     0.072 A 
HETATM    2  N   UNL     1      41.444 -15.621  -1.811  1.00  0.00    -0.274 N 
HETATM    3  H   UNL     1      42.152 -16.278  -2.121  1.00  0.00     0.189 HD
HETATM    4  N   UNL     1      40.909 -14.779  -2.720  1.00  0.00    -0.148 NA
HETATM    5  C   UNL     1      40.039 -14.093  -1.992  1.00  0.00     0.199 A 
HETATM    6  C   UNL     1      39.999 -14.459  -0.647  1.00  0.00     0.040 A 
HETATM    7  C   UNL     1      39.101 -13.760   0.314  1.00  0.00     0.108 A 
HETATM    8  C   UNL     1      38.264 -12.704  -0.412  1.00  0.00     0.081 A 
HETATM    9  C   UNL     1      37.272 -12.030   0.363  1.00  0.00     0.100 C 
HETATM   10  N   UNL     1      36.468 -11.484   0.998  1.00  0.00    -0.191 NA
HETATM   11  C   UNL     1      38.393 -12.436  -1.738  1.00  0.00     0.140 A 
HETATM   12  O   UNL     1      39.307 -13.116  -2.554  1.00  0.00    -0.277 OA
ENDROOT
BRANCH   7  13
HETATM   13  C   UNL     1      39.870 -13.167   1.466  1.00  0.00    -0.020 A 
HETATM   14  C   UNL     1      39.705 -13.408   2.818  1.00  0.00     0.149 A 
HETATM   15  O   UNL     1      40.583 -12.680   3.552  1.00  0.00    -0.334 OA
HETATM   16  C   UNL     1      41.328 -11.960   2.677  1.00  0.00     0.142 A 
HETATM   17  C   UNL     1      40.936 -12.221   1.385  1.00  0.00     0.034 A 
ENDBRANCH   7  13
BRANCH  11  18
HETATM   18  N   UNL     1      37.662 -11.496  -2.434  1.00  0.00    -0.282 NA
HETATM   19  H   UNL     1      37.120 -11.849  -3.219  1.00  0.00     0.126 HD
HETATM   20  H   UNL     1      37.119 -10.900  -1.811  1.00  0.00     0.126 HD
ENDBRANCH  11  18
BRANCH   1  21
HETATM   21  C   UNL     1      41.438 -16.211   0.614  1.00  0.00    -0.007 A 
HETATM   22  C   UNL     1      42.813 -16.341   0.837  1.00  0.00     0.016 A 
HETATM   23  C   UNL     1      43.295 -16.990   1.979  1.00  0.00     0.037 A 
HETATM   24  C   UNL     1      42.402 -17.509   2.916  1.00  0.00     0.069 A 
HETATM   25  C   UNL     1      41.030 -17.418   2.677  1.00  0.00     0.037 A 
HETATM   26  C   UNL     1      40.548 -16.769   1.537  1.00  0.00     0.016 A 
BRANCH  24  27
HETATM   27  O   UNL     1      42.748 -18.127   4.086  1.00  0.00    -0.347 OA
BRANCH  27  28
HETATM   28  C   UNL     1      44.135 -18.441   4.246  1.00  0.00     0.214 C 
BRANCH  28  29
HETATM   29  C   UNL     1      44.374 -19.917   4.017  1.00  0.00    -0.034 A 
HETATM   30  C   UNL     1      44.687 -20.752   5.101  1.00  0.00     0.009 A 
HETATM   31  C   UNL     1      44.848 -22.126   4.916  1.00  0.00     0.001 A 
HETATM   32  C   UNL     1      44.690 -22.684   3.649  1.00  0.00     0.000 A 
HETATM   33  C   UNL     1      44.367 -21.868   2.567  1.00  0.00     0.001 A 
HETATM   34  C   UNL     1      44.203 -20.494   2.750  1.00  0.00     0.009 A 
ENDBRANCH  28  29
ENDBRANCH  27  28
ENDBRANCH  24  27
ENDBRANCH   1  21
TORSDOF 6
ENDMDL
MODEL 7
REMARK VINA RESULT:      -8.0      1.337      1.932
REMARK  6 active torsions:
REMARK  status: ('A' for Active; 'I' for Inactive)
REMARK    1  A    between atoms: C_4  and  C_5 
REMARK    2  A    between atoms: C_5  and  O_6 
REMARK    3  A    between atoms: O_6  and  C_7 
REMARK    4  A    between atoms: C_10  and  C_11 
REMARK    5  A    between atoms: C_17  and  C_18 
REMARK    6  A    between atoms: C_26  and  N_27 
ROOT
HETATM    1  C   UNL     1      40.525 -13.686   5.677  1.00  0.00     0.072 A 
HETATM    2  N   UNL     1      39.625 -13.223   6.614  1.00  0.00    -0.274 N 
HETATM    3  H   UNL     1      39.564 -13.483   7.593  1.00  0.00     0.189 HD
HETATM    4  N   UNL     1      38.735 -12.332   6.131  1.00  0.00    -0.148 NA
HETATM    5  C   UNL     1      39.105 -12.221   4.863  1.00  0.00     0.199 A 
HETATM    6  C   UNL     1      40.198 -13.014   4.511  1.00  0.00     0.040 A 
HETATM    7  C   UNL     1      40.715 -13.034   3.114  1.00  0.00     0.108 A 
HETATM    8  C   UNL     1      39.926 -12.057   2.240  1.00  0.00     0.081 A 
HETATM    9  C   UNL     1      40.385 -11.883   0.899  1.00  0.00     0.100 C 
HETATM   10  N   UNL     1      40.761 -11.747  -0.190  1.00  0.00    -0.191 NA
HETATM   11  C   UNL     1      38.872 -11.332   2.700  1.00  0.00     0.140 A 
HETATM   12  O   UNL     1      38.425 -11.419   4.026  1.00  0.00    -0.277 OA
ENDROOT
BRANCH   7  13
HETATM   13  C   UNL     1      40.712 -14.426   2.538  1.00  0.00    -0.020 A 
HETATM   14  C   UNL     1      41.784 -15.153   2.054  1.00  0.00     0.149 A 
HETATM   15  O   UNL     1      41.384 -16.370   1.609  1.00  0.00    -0.334 OA
HETATM   16  C   UNL     1      40.044 -16.442   1.805  1.00  0.00     0.142 A 
HETATM   17  C   UNL     1      39.579 -15.280   2.374  1.00  0.00     0.034 A 
ENDBRANCH   7  13
BRANCH  11  18
HETATM   18  N   UNL     1      38.133 -10.441   1.952  1.00  0.00    -0.282 NA
HETATM   19  H   UNL     1      37.737  -9.655   2.462  1.00  0.00     0.126 HD
HETATM   20  H   UNL     1      38.623 -10.158   1.104  1.00  0.00     0.126 HD
ENDBRANCH  11  18
BRANCH   1  21
HETATM   21  C   UNL     1      41.521 -14.710   5.960  1.00  0.00    -0.007 A 
HETATM   22  C   UNL     1      42.885 -14.396   5.928  1.00  0.00     0.016 A 
HETATM   23  C   UNL     1      43.847 -15.352   6.275  1.00  0.00     0.037 A 
HETATM   24  C   UNL     1      43.452 -16.630   6.666  1.00  0.00     0.069 A 
HETATM   25  C   UNL     1      42.096 -16.959   6.659  1.00  0.00     0.037 A 
HETATM   26  C   UNL     1      41.134 -16.005   6.314  1.00  0.00     0.016 A 
BRANCH  24  27
HETATM   27  O   UNL     1      44.291 -17.634   7.065  1.00  0.00    -0.347 OA
BRANCH  27  28
HETATM   28  C   UNL     1      43.679 -18.903   7.316  1.00  0.00     0.214 C 
BRANCH  28  29
HETATM   29  C   UNL     1      44.083 -19.904   6.258  1.00  0.00    -0.034 A 
HETATM   30  C   UNL     1      44.599 -19.458   5.031  1.00  0.00     0.009 A 
HETATM   31  C   UNL     1      45.034 -20.370   4.068  1.00  0.00     0.001 A 
HETATM   32  C   UNL     1      44.968 -21.739   4.323  1.00  0.00     0.000 A 
HETATM   33  C   UNL     1      44.470 -22.195   5.542  1.00  0.00     0.001 A 
HETATM   34  C   UNL     1      44.036 -21.284   6.506  1.00  0.00     0.009 A 
ENDBRANCH  28  29
ENDBRANCH  27  28
ENDBRANCH  24  27
ENDBRANCH   1  21
TORSDOF 6
ENDMDL
MODEL 8
REMARK VINA RESULT:      -7.9      3.669      7.502
REMARK  6 active torsions:
REMARK  status: ('A' for Active; 'I' for Inactive)
REMARK    1  A    between atoms: C_4  and  C_5 
REMARK    2  A    between atoms: C_5  and  O_6 
REMARK    3  A    between atoms: O_6  and  C_7 
REMARK    4  A    between atoms: C_10  and  C_11 
REMARK    5  A    between atoms: C_17  and  C_18 
REMARK    6  A    between atoms: C_26  and  N_27 
ROOT
HETATM    1  C   UNL     1      42.275 -16.985   2.582  1.00  0.00     0.072 A 
HETATM    2  N   UNL     1      42.465 -18.291   2.179  1.00  0.00    -0.274 N 
HETATM    3  H   UNL     1      42.127 -18.730   1.329  1.00  0.00     0.189 HD
HETATM    4  N   UNL     1      43.178 -19.038   3.047  1.00  0.00    -0.148 NA
HETATM    5  C   UNL     1      43.457 -18.167   4.006  1.00  0.00     0.199 A 
HETATM    6  C   UNL     1      42.945 -16.888   3.790  1.00  0.00     0.040 A 
HETATM    7  C   UNL     1      43.139 -15.802   4.791  1.00  0.00     0.108 A 
HETATM    8  C   UNL     1      43.986 -16.304   5.963  1.00  0.00     0.081 A 
HETATM    9  C   UNL     1      44.351 -15.338   6.949  1.00  0.00     0.100 C 
HETATM   10  N   UNL     1      44.644 -14.548   7.747  1.00  0.00    -0.191 NA
HETATM   11  C   UNL     1      44.432 -17.584   6.064  1.00  0.00     0.140 A 
HETATM   12  O   UNL     1      44.154 -18.553   5.090  1.00  0.00    -0.277 OA
ENDROOT
BRANCH   7  13
HETATM   13  C   UNL     1      41.824 -15.232   5.257  1.00  0.00    -0.020 A 
HETATM   14  C   UNL     1      40.811 -15.872   5.946  1.00  0.00     0.149 A 
HETATM   15  O   UNL     1      39.776 -15.029   6.183  1.00  0.00    -0.334 OA
HETATM   16  C   UNL     1      40.112 -13.829   5.646  1.00  0.00     0.142 A 
HETATM   17  C   UNL     1      41.358 -13.896   5.068  1.00  0.00     0.034 A 
ENDBRANCH   7  13
BRANCH  11  18
HETATM   18  N   UNL     1      45.196 -18.081   7.098  1.00  0.00    -0.282 NA
HETATM   19  H   UNL     1      46.204 -18.002   6.981  1.00  0.00     0.126 HD
HETATM   20  H   UNL     1      44.873 -17.745   8.005  1.00  0.00     0.126 HD
ENDBRANCH  11  18
BRANCH   1  21
HETATM   21  C   UNL     1      41.471 -16.026   1.838  1.00  0.00    -0.007 A 
HETATM   22  C   UNL     1      40.087 -15.962   2.035  1.00  0.00     0.016 A 
HETATM   23  C   UNL     1      39.315 -14.992   1.384  1.00  0.00     0.037 A 
HETATM   24  C   UNL     1      39.925 -14.071   0.533  1.00  0.00     0.069 A 
HETATM   25  C   UNL     1      41.298 -14.158   0.301  1.00  0.00     0.037 A 
HETATM   26  C   UNL     1      42.069 -15.126   0.952  1.00  0.00     0.016 A 
BRANCH  24  27
HETATM   27  O   UNL     1      39.288 -13.057  -0.127  1.00  0.00    -0.347 OA
BRANCH  27  28
HETATM   28  C   UNL     1      39.712 -12.817  -1.472  1.00  0.00     0.214 C 
BRANCH  28  29
HETATM   29  C   UNL     1      39.237 -13.926  -2.383  1.00  0.00    -0.034 A 
HETATM   30  C   UNL     1      37.868 -14.067  -2.661  1.00  0.00     0.009 A 
HETATM   31  C   UNL     1      37.420 -15.046  -3.549  1.00  0.00     0.001 A 
HETATM   32  C   UNL     1      38.334 -15.891  -4.176  1.00  0.00     0.000 A 
HETATM   33  C   UNL     1      39.696 -15.755  -3.918  1.00  0.00     0.001 A 
HETATM   34  C   UNL     1      40.146 -14.774  -3.032  1.00  0.00     0.009 A 
ENDBRANCH  28  29
ENDBRANCH  27  28
ENDBRANCH  24  27
ENDBRANCH   1  21
TORSDOF 6
ENDMDL
MODEL 9
REMARK VINA RESULT:      -7.9      1.773      2.318
REMARK  6 active torsions:
REMARK  status: ('A' for Active; 'I' for Inactive)
REMARK    1  A    between atoms: C_4  and  C_5 
REMARK    2  A    between atoms: C_5  and  O_6 
REMARK    3  A    between atoms: O_6  and  C_7 
REMARK    4  A    between atoms: C_10  and  C_11 
REMARK    5  A    between atoms: C_17  and  C_18 
REMARK    6  A    between atoms: C_26  and  N_27 
ROOT
HETATM    1  C   UNL     1      40.224 -13.681   4.929  1.00  0.00     0.072 A 
HETATM    2  N   UNL     1      39.531 -13.615   6.121  1.00  0.00    -0.274 N 
HETATM    3  H   UNL     1      39.554 -14.281   6.886  1.00  0.00     0.189 HD
HETATM    4  N   UNL     1      38.737 -12.531   6.238  1.00  0.00    -0.148 NA
HETATM    5  C   UNL     1      38.958 -11.895   5.096  1.00  0.00     0.199 A 
HETATM    6  C   UNL     1      39.861 -12.533   4.246  1.00  0.00     0.040 A 
HETATM    7  C   UNL     1      40.190 -11.967   2.908  1.00  0.00     0.108 A 
HETATM    8  C   UNL     1      39.459 -10.639   2.698  1.00  0.00     0.081 A 
HETATM    9  C   UNL     1      39.767  -9.921   1.503  1.00  0.00     0.100 C 
HETATM   10  N   UNL     1      40.020  -9.342   0.530  1.00  0.00    -0.191 NA
HETATM   11  C   UNL     1      38.596 -10.113   3.607  1.00  0.00     0.140 A 
HETATM   12  O   UNL     1      38.310 -10.748   4.823  1.00  0.00    -0.277 OA
ENDROOT
BRANCH   7  13
HETATM   13  C   UNL     1      39.898 -12.946   1.801  1.00  0.00    -0.020 A 
HETATM   14  C   UNL     1      38.685 -13.516   1.463  1.00  0.00     0.149 A 
HETATM   15  O   UNL     1      38.821 -14.359   0.409  1.00  0.00    -0.334 OA
HETATM   16  C   UNL     1      40.130 -14.341   0.055  1.00  0.00     0.142 A 
HETATM   17  C   UNL     1      40.836 -13.490   0.873  1.00  0.00     0.034 A 
ENDBRANCH   7  13
BRANCH  11  18
HETATM   18  N   UNL     1      37.916  -8.922   3.462  1.00  0.00    -0.282 NA
HETATM   19  H   UNL     1      38.136  -8.200   4.144  1.00  0.00     0.126 HD
HETATM   20  H   UNL     1      37.943  -8.584   2.501  1.00  0.00     0.126 HD
ENDBRANCH  11  18
BRANCH   1  21
HETATM   21  C   UNL     1      41.076 -14.803   4.560  1.00  0.00    -0.007 A 
HETATM   22  C   UNL     1      40.582 -15.827   3.744  1.00  0.00     0.016 A 
HETATM   23  C   UNL     1      41.416 -16.868   3.319  1.00  0.00     0.037 A 
HETATM   24  C   UNL     1      42.756 -16.889   3.701  1.00  0.00     0.069 A 
HETATM   25  C   UNL     1      43.242 -15.893   4.549  1.00  0.00     0.037 A 
HETATM   26  C   UNL     1      42.411 -14.852   4.972  1.00  0.00     0.016 A 
BRANCH  24  27
HETATM   27  O   UNL     1      43.676 -17.827   3.321  1.00  0.00    -0.347 OA
BRANCH  27  28
HETATM   28  C   UNL     1      44.342 -18.522   4.379  1.00  0.00     0.214 C 
BRANCH  28  29
HETATM   29  C   UNL     1      44.488 -19.988   4.041  1.00  0.00    -0.034 A 
HETATM   30  C   UNL     1      44.749 -20.919   5.059  1.00  0.00     0.009 A 
HETATM   31  C   UNL     1      44.824 -22.283   4.772  1.00  0.00     0.001 A 
HETATM   32  C   UNL     1      44.630 -22.734   3.467  1.00  0.00     0.000 A 
HETATM   33  C   UNL     1      44.358 -21.822   2.450  1.00  0.00     0.001 A 
HETATM   34  C   UNL     1      44.281 -20.458   2.736  1.00  0.00     0.009 A 
ENDBRANCH  28  29
ENDBRANCH  27  28
ENDBRANCH  24  27
ENDBRANCH   1  21
TORSDOF 6
ENDMDL
MODEL 10
REMARK VINA RESULT:      -7.5      2.292      3.173
REMARK  6 active torsions:
REMARK  status: ('A' for Active; 'I' for Inactive)
REMARK    1  A    between atoms: C_4  and  C_5 
REMARK    2  A    between atoms: C_5  and  O_6 
REMARK    3  A    between atoms: O_6  and  C_7 
REMARK    4  A    between atoms: C_10  and  C_11 
REMARK    5  A    between atoms: C_17  and  C_18 
REMARK    6  A    between atoms: C_26  and  N_27 
ROOT
HETATM    1  C   UNL     1      40.342 -13.534   2.661  1.00  0.00     0.072 A 
HETATM    2  N   UNL     1      39.599 -13.138   3.754  1.00  0.00    -0.274 N 
HETATM    3  H   UNL     1      39.377 -13.683   4.580  1.00  0.00     0.189 HD
HETATM    4  N   UNL     1      39.124 -11.878   3.670  1.00  0.00    -0.148 NA
HETATM    5  C   UNL     1      39.603 -11.472   2.503  1.00  0.00     0.199 A 
HETATM    6  C   UNL     1      40.364 -12.427   1.829  1.00  0.00     0.040 A 
HETATM    7  C   UNL     1      40.943 -12.143   0.486  1.00  0.00     0.108 A 
HETATM    8  C   UNL     1      40.622 -10.708   0.062  1.00  0.00     0.081 A 
HETATM    9  C   UNL     1      41.211 -10.254  -1.157  1.00  0.00     0.100 C 
HETATM   10  N   UNL     1      41.691  -9.891  -2.149  1.00  0.00    -0.191 NA
HETATM   11  C   UNL     1      39.864  -9.863   0.810  1.00  0.00     0.140 A 
HETATM   12  O   UNL     1      39.318 -10.241   2.044  1.00  0.00    -0.277 OA
ENDROOT
BRANCH   7  13
HETATM   13  C   UNL     1      40.486 -13.145  -0.542  1.00  0.00    -0.020 A 
HETATM   14  C   UNL     1      39.217 -13.315  -1.064  1.00  0.00     0.149 A 
HETATM   15  O   UNL     1      39.194 -14.329  -1.965  1.00  0.00    -0.334 OA
HETATM   16  C   UNL     1      40.455 -14.824  -2.035  1.00  0.00     0.142 A 
HETATM   17  C   UNL     1      41.289 -14.135  -1.186  1.00  0.00     0.034 A 
ENDBRANCH   7  13
BRANCH  11  18
HETATM   18  N   UNL     1      39.549  -8.564   0.469  1.00  0.00    -0.282 NA
HETATM   19  H   UNL     1      38.627  -8.424   0.065  1.00  0.00     0.126 HD
HETATM   20  H   UNL     1      39.756  -7.913   1.225  1.00  0.00     0.126 HD
ENDBRANCH  11  18
BRANCH   1  21
HETATM   21  C   UNL     1      40.883 -14.877   2.505  1.00  0.00    -0.007 A 
HETATM   22  C   UNL     1      40.073 -15.915   2.031  1.00  0.00     0.016 A 
HETATM   23  C   UNL     1      40.603 -17.190   1.804  1.00  0.00     0.037 A 
HETATM   24  C   UNL     1      41.954 -17.437   2.042  1.00  0.00     0.069 A 
HETATM   25  C   UNL     1      42.756 -16.416   2.554  1.00  0.00     0.037 A 
HETATM   26  C   UNL     1      42.228 -15.142   2.781  1.00  0.00     0.016 A 
BRANCH  24  27
HETATM   27  O   UNL     1      42.596 -18.625   1.822  1.00  0.00    -0.347 OA
BRANCH  27  28
HETATM   28  C   UNL     1      43.974 -18.676   2.203  1.00  0.00     0.214 C 
BRANCH  28  29
HETATM   29  C   UNL     1      44.287 -19.991   2.879  1.00  0.00    -0.034 A 
HETATM   30  C   UNL     1      44.609 -20.017   4.246  1.00  0.00     0.009 A 
HETATM   31  C   UNL     1      44.839 -21.229   4.899  1.00  0.00     0.001 A 
HETATM   32  C   UNL     1      44.743 -22.429   4.198  1.00  0.00     0.000 A 
HETATM   33  C   UNL     1      44.413 -22.419   2.844  1.00  0.00     0.001 A 
HETATM   34  C   UNL     1      44.180 -21.207   2.190  1.00  0.00     0.009 A 
ENDBRANCH  28  29
ENDBRANCH  27  28
ENDBRANCH  24  27
ENDBRANCH   1  21
TORSDOF 6
ENDMDL
