MODEL 1
REMARK VINA RESULT:      -8.2      0.000      0.000
REMARK  8 active torsions:
REMARK  status: ('A' for Active; 'I' for Inactive)
REMARK    1  A    between atoms: C_2  and  C_3 
REMARK    2  A    between atoms: C_3  and  O_4 
REMARK    3  A    between atoms: O_4  and  C_5 
REMARK    4  A    between atoms: C_8  and  C_9 
REMARK       I    between atoms: C_9  and  N_10 
REMARK    5  A    between atoms: N_10  and  C_11 
REMARK    6  A    between atoms: N_12  and  C_13 
REMARK    7  A    between atoms: C_15  and  C_16 
REMARK    8  A    between atoms: C_27  and  O_28 
ROOT
HETATM    1  C   UNL     1      39.028 -13.219   0.263  1.00  0.00     0.035 A 
HETATM    2  C   UNL     1      39.789 -14.227   0.871  1.00  0.00     0.048 A 
HETATM    3  C   UNL     1      40.597 -15.110   0.128  1.00  0.00     0.052 A 
HETATM    4  C   UNL     1      40.641 -14.937  -1.262  1.00  0.00     0.080 A 
HETATM    5  C   UNL     1      39.885 -13.936  -1.881  1.00  0.00     0.040 A 
HETATM    6  C   UNL     1      39.071 -13.089  -1.121  1.00  0.00     0.032 A 
ENDROOT
BRANCH   1   7
HETATM    7  N   UNL     1      38.183 -12.469   1.109  1.00  0.00    -0.333 N 
HETATM    8  C   UNL     1      38.442 -11.750   2.221  1.00  0.00     0.179 C 
HETATM    9  S   UNL     1      37.525 -10.378   2.515  1.00  0.00    -0.040 SA
HETATM   10  H   UNL     1      37.275 -12.257   0.709  1.00  0.00     0.168 HD
BRANCH   8  11
HETATM   11  N   UNL     1      39.384 -12.082   3.139  1.00  0.00    -0.299 N 
HETATM   12  C   UNL     1      40.713 -11.670   3.137  1.00  0.00     0.257 C 
HETATM   13  O   UNL     1      41.180 -10.689   2.576  1.00  0.00    -0.267 OA
HETATM   14  H   UNL     1      39.261 -13.042   3.432  1.00  0.00     0.171 HD
BRANCH  12  15
HETATM   15  C   UNL     1      41.630 -12.578   3.883  1.00  0.00     0.032 A 
HETATM   16  C   UNL     1      42.621 -13.256   3.166  1.00  0.00     0.020 A 
HETATM   17  C   UNL     1      43.437 -14.184   3.816  1.00  0.00     0.038 A 
HETATM   18  C   UNL     1      43.293 -14.412   5.185  1.00  0.00     0.068 A 
HETATM   19  C   UNL     1      42.319 -13.721   5.908  1.00  0.00     0.038 A 
HETATM   20  C   UNL     1      41.488 -12.801   5.259  1.00  0.00     0.020 A 
BRANCH  18  21
HETATM   21  O   UNL     1      44.092 -15.386   5.715  1.00  0.00    -0.351 OA
BRANCH  21  22
HETATM   22  C   UNL     1      43.867 -15.662   7.099  1.00  0.00     0.175 C 
BRANCH  22  23
HETATM   23  C   UNL     1      43.988 -17.169   7.327  1.00  0.00     0.022 C 
HETATM   24  C   UNL     1      45.161 -17.786   6.580  1.00  0.00     0.007 C 
ENDBRANCH  22  23
ENDBRANCH  21  22
ENDBRANCH  18  21
ENDBRANCH  12  15
ENDBRANCH   8  11
ENDBRANCH   1   7
BRANCH   3  25
HETATM   25  C   UNL     1      41.319 -16.152   0.863  1.00  0.00     0.183 A 
HETATM   26  O   UNL     1      41.029 -16.317   2.193  1.00  0.00    -0.288 OA
HETATM   27  C   UNL     1      41.892 -17.290   2.612  1.00  0.00     0.112 A 
HETATM   28  C   UNL     1      42.663 -17.657   1.524  1.00  0.00     0.094 A 
HETATM   29  C   UNL     1      42.006 -17.828   3.894  1.00  0.00    -0.025 A 
HETATM   30  N   UNL     1      42.300 -16.925   0.422  1.00  0.00    -0.221 NA
HETATM   31  C   UNL     1      43.644 -18.645   1.684  1.00  0.00     0.041 A 
HETATM   32  C   UNL     1      43.810 -19.228   2.954  1.00  0.00    -0.059 A 
HETATM   33  C   UNL     1      43.001 -18.817   4.031  1.00  0.00     0.016 A 
HETATM   34  C   UNL     1      44.865 -20.279   3.146  1.00  0.00     0.048 C 
HETATM   35  C   UNL     1      41.167 -17.410   5.057  1.00  0.00     0.051 C 
ENDBRANCH   3  25
BRANCH   4  36
HETATM   36  O   UNL     1      41.425 -15.741  -2.043  1.00  0.00    -0.360 OA
HETATM   37  H   UNL     1      40.984 -16.594  -2.180  1.00  0.00     0.217 HD
ENDBRANCH   4  36
TORSDOF 8
ENDMDL
MODEL 2
REMARK VINA RESULT:      -8.1      3.813      7.597
REMARK  8 active torsions:
REMARK  status: ('A' for Active; 'I' for Inactive)
REMARK    1  A    between atoms: C_2  and  C_3 
REMARK    2  A    between atoms: C_3  and  O_4 
REMARK    3  A    between atoms: O_4  and  C_5 
REMARK    4  A    between atoms: C_8  and  C_9 
REMARK       I    between atoms: C_9  and  N_10 
REMARK    5  A    between atoms: N_10  and  C_11 
REMARK    6  A    between atoms: N_12  and  C_13 
REMARK    7  A    between atoms: C_15  and  C_16 
REMARK    8  A    between atoms: C_27  and  O_28 
ROOT
HETATM    1  C   UNL     1      40.987 -12.048   4.094  1.00  0.00     0.035 A 
HETATM    2  C   UNL     1      41.563 -11.636   5.303  1.00  0.00     0.048 A 
HETATM    3  C   UNL     1      40.959 -11.895   6.550  1.00  0.00     0.052 A 
HETATM    4  C   UNL     1      39.755 -12.610   6.553  1.00  0.00     0.080 A 
HETATM    5  C   UNL     1      39.168 -13.025   5.352  1.00  0.00     0.040 A 
HETATM    6  C   UNL     1      39.776 -12.733   4.128  1.00  0.00     0.032 A 
ENDROOT
BRANCH   1   7
HETATM    7  N   UNL     1      41.640 -11.639   2.911  1.00  0.00    -0.333 N 
HETATM    8  C   UNL     1      41.969 -12.316   1.792  1.00  0.00     0.179 C 
HETATM    9  S   UNL     1      41.952 -11.497   0.330  1.00  0.00    -0.040 SA
HETATM   10  H   UNL     1      41.683 -10.633   2.787  1.00  0.00     0.168 HD
BRANCH   8  11
HETATM   11  N   UNL     1      42.345 -13.620   1.775  1.00  0.00    -0.299 N 
HETATM   12  C   UNL     1      41.502 -14.715   1.616  1.00  0.00     0.257 C 
HETATM   13  O   UNL     1      40.390 -14.721   1.108  1.00  0.00    -0.267 OA
HETATM   14  H   UNL     1      43.087 -13.776   2.445  1.00  0.00     0.171 HD
BRANCH  12  15
HETATM   15  C   UNL     1      42.045 -15.985   2.175  1.00  0.00     0.032 A 
HETATM   16  C   UNL     1      41.441 -16.520   3.317  1.00  0.00     0.020 A 
HETATM   17  C   UNL     1      41.981 -17.657   3.921  1.00  0.00     0.038 A 
HETATM   18  C   UNL     1      43.099 -18.283   3.371  1.00  0.00     0.068 A 
HETATM   19  C   UNL     1      43.692 -17.764   2.219  1.00  0.00     0.038 A 
HETATM   20  C   UNL     1      43.165 -16.616   1.617  1.00  0.00     0.020 A 
BRANCH  18  21
HETATM   21  O   UNL     1      43.592 -19.348   4.073  1.00  0.00    -0.351 OA
BRANCH  21  22
HETATM   22  C   UNL     1      44.732 -19.979   3.486  1.00  0.00     0.175 C 
BRANCH  22  23
HETATM   23  C   UNL     1      44.379 -21.430   3.160  1.00  0.00     0.022 C 
HETATM   24  C   UNL     1      43.883 -21.609   1.732  1.00  0.00     0.007 C 
ENDBRANCH  22  23
ENDBRANCH  21  22
ENDBRANCH  18  21
ENDBRANCH  12  15
ENDBRANCH   8  11
ENDBRANCH   1   7
BRANCH   3  25
HETATM   25  C   UNL     1      41.630 -11.384   7.748  1.00  0.00     0.183 A 
HETATM   26  O   UNL     1      42.978 -11.603   7.873  1.00  0.00    -0.288 OA
HETATM   27  C   UNL     1      43.296 -11.084   9.096  1.00  0.00     0.112 A 
HETATM   28  C   UNL     1      42.132 -10.586   9.651  1.00  0.00     0.094 A 
HETATM   29  C   UNL     1      44.551 -11.055   9.704  1.00  0.00    -0.025 A 
HETATM   30  N   UNL     1      41.079 -10.788   8.795  1.00  0.00    -0.221 NA
HETATM   31  C   UNL     1      42.179  -9.998  10.922  1.00  0.00     0.041 A 
HETATM   32  C   UNL     1      43.415  -9.937  11.590  1.00  0.00    -0.059 A 
HETATM   33  C   UNL     1      44.572 -10.461  10.982  1.00  0.00     0.016 A 
HETATM   34  C   UNL     1      43.481  -9.321  12.958  1.00  0.00     0.048 C 
HETATM   35  C   UNL     1      45.796 -11.607   9.088  1.00  0.00     0.051 C 
ENDBRANCH   3  25
BRANCH   4  36
HETATM   36  O   UNL     1      39.127 -12.919   7.728  1.00  0.00    -0.360 OA
HETATM   37  H   UNL     1      38.572 -12.174   8.008  1.00  0.00     0.217 HD
ENDBRANCH   4  36
TORSDOF 8
ENDMDL
MODEL 3
REMARK VINA RESULT:      -8.0      3.037      6.199
REMARK  8 active torsions:
REMARK  status: ('A' for Active; 'I' for Inactive)
REMARK    1  A    between atoms: C_2  and  C_3 
REMARK    2  A    between atoms: C_3  and  O_4 
REMARK    3  A    between atoms: O_4  and  C_5 
REMARK    4  A    between atoms: C_8  and  C_9 
REMARK       I    between atoms: C_9  and  N_10 
REMARK    5  A    between atoms: N_10  and  C_11 
REMARK    6  A    between atoms: N_12  and  C_13 
REMARK    7  A    between atoms: C_15  and  C_16 
REMARK    8  A    between atoms: C_27  and  O_28 
ROOT
HETATM    1  C   UNL     1      40.194 -15.194   2.477  1.00  0.00     0.035 A 
HETATM    2  C   UNL     1      40.568 -14.286   1.477  1.00  0.00     0.048 A 
HETATM    3  C   UNL     1      41.165 -14.701   0.270  1.00  0.00     0.052 A 
HETATM    4  C   UNL     1      41.360 -16.075   0.080  1.00  0.00     0.080 A 
HETATM    5  C   UNL     1      40.992 -16.993   1.071  1.00  0.00     0.040 A 
HETATM    6  C   UNL     1      40.424 -16.551   2.270  1.00  0.00     0.032 A 
ENDROOT
BRANCH   1   7
HETATM    7  N   UNL     1      39.699 -14.643   3.678  1.00  0.00    -0.333 N 
HETATM    8  C   UNL     1      40.222 -14.593   4.921  1.00  0.00     0.179 C 
HETATM    9  S   UNL     1      39.882 -13.259   5.877  1.00  0.00    -0.040 SA
HETATM   10  H   UNL     1      38.928 -13.995   3.552  1.00  0.00     0.168 HD
BRANCH   8  11
HETATM   11  N   UNL     1      40.988 -15.573   5.463  1.00  0.00    -0.299 N 
HETATM   12  C   UNL     1      42.377 -15.580   5.544  1.00  0.00     0.257 C 
HETATM   13  O   UNL     1      43.122 -14.611   5.502  1.00  0.00    -0.267 OA
HETATM   14  H   UNL     1      40.592 -16.480   5.252  1.00  0.00     0.171 HD
BRANCH  12  15
HETATM   15  C   UNL     1      42.971 -16.942   5.655  1.00  0.00     0.032 A 
HETATM   16  C   UNL     1      43.502 -17.530   4.502  1.00  0.00     0.020 A 
HETATM   17  C   UNL     1      43.983 -18.840   4.549  1.00  0.00     0.038 A 
HETATM   18  C   UNL     1      43.969 -19.553   5.748  1.00  0.00     0.068 A 
HETATM   19  C   UNL     1      43.460 -18.961   6.905  1.00  0.00     0.038 A 
HETATM   20  C   UNL     1      42.962 -17.654   6.861  1.00  0.00     0.020 A 
BRANCH  18  21
HETATM   21  O   UNL     1      44.398 -20.849   5.677  1.00  0.00    -0.351 OA
BRANCH  21  22
HETATM   22  C   UNL     1      45.169 -21.164   4.515  1.00  0.00     0.175 C 
BRANCH  22  23
HETATM   23  C   UNL     1      44.481 -22.301   3.760  1.00  0.00     0.022 C 
HETATM   24  C   UNL     1      44.423 -22.063   2.258  1.00  0.00     0.007 C 
ENDBRANCH  22  23
ENDBRANCH  21  22
ENDBRANCH  18  21
ENDBRANCH  12  15
ENDBRANCH   8  11
ENDBRANCH   1   7
BRANCH   3  25
HETATM   25  C   UNL     1      41.551 -13.662  -0.688  1.00  0.00     0.183 A 
HETATM   26  O   UNL     1      42.025 -12.475  -0.192  1.00  0.00    -0.288 OA
HETATM   27  C   UNL     1      42.230 -11.700  -1.299  1.00  0.00     0.112 A 
HETATM   28  C   UNL     1      41.864 -12.449  -2.403  1.00  0.00     0.094 A 
HETATM   29  C   UNL     1      42.708 -10.391  -1.341  1.00  0.00    -0.025 A 
HETATM   30  N   UNL     1      41.427 -13.687  -2.007  1.00  0.00    -0.221 NA
HETATM   31  C   UNL     1      41.970 -11.880  -3.679  1.00  0.00     0.041 A 
HETATM   32  C   UNL     1      42.446 -10.561  -3.790  1.00  0.00    -0.059 A 
HETATM   33  C   UNL     1      42.803  -9.840  -2.635  1.00  0.00     0.016 A 
HETATM   34  C   UNL     1      42.555  -9.932  -5.149  1.00  0.00     0.048 C 
HETATM   35  C   UNL     1      43.089  -9.597  -0.133  1.00  0.00     0.051 C 
ENDBRANCH   3  25
BRANCH   4  36
HETATM   36  O   UNL     1      41.910 -16.550  -1.079  1.00  0.00    -0.360 OA
HETATM   37  H   UNL     1      42.827 -16.243  -1.155  1.00  0.00     0.217 HD
ENDBRANCH   4  36
TORSDOF 8
ENDMDL
MODEL 4
REMARK VINA RESULT:      -7.8      2.227      4.842
REMARK  8 active torsions:
REMARK  status: ('A' for Active; 'I' for Inactive)
REMARK    1  A    between atoms: C_2  and  C_3 
REMARK    2  A    between atoms: C_3  and  O_4 
REMARK    3  A    between atoms: O_4  and  C_5 
REMARK    4  A    between atoms: C_8  and  C_9 
REMARK       I    between atoms: C_9  and  N_10 
REMARK    5  A    between atoms: N_10  and  C_11 
REMARK    6  A    between atoms: N_12  and  C_13 
REMARK    7  A    between atoms: C_15  and  C_16 
REMARK    8  A    between atoms: C_27  and  O_28 
ROOT
HETATM    1  C   UNL     1      39.959 -11.549   2.576  1.00  0.00     0.035 A 
HETATM    2  C   UNL     1      40.616 -12.620   3.198  1.00  0.00     0.048 A 
HETATM    3  C   UNL     1      40.256 -13.079   4.481  1.00  0.00     0.052 A 
HETATM    4  C   UNL     1      39.188 -12.440   5.124  1.00  0.00     0.080 A 
HETATM    5  C   UNL     1      38.525 -11.368   4.514  1.00  0.00     0.040 A 
HETATM    6  C   UNL     1      38.920 -10.918   3.251  1.00  0.00     0.032 A 
ENDROOT
BRANCH   1   7
HETATM    7  N   UNL     1      40.481 -11.123   1.335  1.00  0.00    -0.333 N 
HETATM    8  C   UNL     1      40.963 -11.816   0.283  1.00  0.00     0.179 C 
HETATM    9  S   UNL     1      40.732 -11.194  -1.255  1.00  0.00    -0.040 SA
HETATM   10  H   UNL     1      40.269 -10.158   1.104  1.00  0.00     0.168 HD
BRANCH   8  11
HETATM   11  N   UNL     1      41.655 -12.979   0.391  1.00  0.00    -0.299 N 
HETATM   12  C   UNL     1      41.129 -14.261   0.263  1.00  0.00     0.257 C 
HETATM   13  O   UNL     1      40.099 -14.581  -0.313  1.00  0.00    -0.267 OA
HETATM   14  H   UNL     1      42.354 -12.901   1.118  1.00  0.00     0.171 HD
BRANCH  12  15
HETATM   15  C   UNL     1      41.927 -15.315   0.953  1.00  0.00     0.032 A 
HETATM   16  C   UNL     1      41.655 -16.654   0.655  1.00  0.00     0.020 A 
HETATM   17  C   UNL     1      42.318 -17.668   1.350  1.00  0.00     0.038 A 
HETATM   18  C   UNL     1      43.276 -17.352   2.314  1.00  0.00     0.068 A 
HETATM   19  C   UNL     1      43.564 -16.016   2.598  1.00  0.00     0.038 A 
HETATM   20  C   UNL     1      42.892 -14.995   1.916  1.00  0.00     0.020 A 
BRANCH  18  21
HETATM   21  O   UNL     1      43.818 -18.412   2.985  1.00  0.00    -0.351 OA
BRANCH  21  22
HETATM   22  C   UNL     1      43.299 -19.690   2.611  1.00  0.00     0.175 C 
BRANCH  22  23
HETATM   23  C   UNL     1      44.438 -20.709   2.626  1.00  0.00     0.022 C 
HETATM   24  C   UNL     1      44.178 -21.898   1.713  1.00  0.00     0.007 C 
ENDBRANCH  22  23
ENDBRANCH  21  22
ENDBRANCH  18  21
ENDBRANCH  12  15
ENDBRANCH   8  11
ENDBRANCH   1   7
BRANCH   3  25
HETATM   25  C   UNL     1      41.037 -14.180   5.051  1.00  0.00     0.183 A 
HETATM   26  O   UNL     1      42.256 -13.883   5.605  1.00  0.00    -0.288 OA
HETATM   27  C   UNL     1      42.764 -15.095   5.980  1.00  0.00     0.112 A 
HETATM   28  C   UNL     1      41.837 -16.060   5.629  1.00  0.00     0.094 A 
HETATM   29  C   UNL     1      43.990 -15.347   6.594  1.00  0.00    -0.025 A 
HETATM   30  N   UNL     1      40.750 -15.473   5.034  1.00  0.00    -0.221 NA
HETATM   31  C   UNL     1      42.117 -17.406   5.899  1.00  0.00     0.041 A 
HETATM   32  C   UNL     1      43.339 -17.728   6.518  1.00  0.00    -0.059 A 
HETATM   33  C   UNL     1      44.251 -16.708   6.853  1.00  0.00     0.016 A 
HETATM   34  C   UNL     1      43.660 -19.166   6.804  1.00  0.00     0.048 C 
HETATM   35  C   UNL     1      44.981 -14.289   6.956  1.00  0.00     0.051 C 
ENDBRANCH   3  25
BRANCH   4  36
HETATM   36  O   UNL     1      38.768 -12.850   6.359  1.00  0.00    -0.360 OA
HETATM   37  H   UNL     1      39.533 -12.943   6.949  1.00  0.00     0.217 HD
ENDBRANCH   4  36
TORSDOF 8
ENDMDL
MODEL 5
REMARK VINA RESULT:      -7.7      4.192      7.939
REMARK  8 active torsions:
REMARK  status: ('A' for Active; 'I' for Inactive)
REMARK    1  A    between atoms: C_2  and  C_3 
REMARK    2  A    between atoms: C_3  and  O_4 
REMARK    3  A    between atoms: O_4  and  C_5 
REMARK    4  A    between atoms: C_8  and  C_9 
REMARK       I    between atoms: C_9  and  N_10 
REMARK    5  A    between atoms: N_10  and  C_11 
REMARK    6  A    between atoms: N_12  and  C_13 
REMARK    7  A    between atoms: C_15  and  C_16 
REMARK    8  A    between atoms: C_27  and  O_28 
ROOT
HETATM    1  C   UNL     1      40.760 -10.948   4.427  1.00  0.00     0.035 A 
HETATM    2  C   UNL     1      41.352 -10.804   5.690  1.00  0.00     0.048 A 
HETATM    3  C   UNL     1      40.655 -10.263   6.789  1.00  0.00     0.052 A 
HETATM    4  C   UNL     1      39.321  -9.886   6.590  1.00  0.00     0.080 A 
HETATM    5  C   UNL     1      38.719 -10.023   5.334  1.00  0.00     0.040 A 
HETATM    6  C   UNL     1      39.441 -10.540   4.255  1.00  0.00     0.032 A 
ENDROOT
BRANCH   1   7
HETATM    7  N   UNL     1      41.596 -11.409   3.387  1.00  0.00    -0.333 N 
HETATM    8  C   UNL     1      41.832 -12.650   2.914  1.00  0.00     0.179 C 
HETATM    9  S   UNL     1      42.153 -12.833   1.280  1.00  0.00    -0.040 SA
HETATM   10  H   UNL     1      41.909 -10.682   2.752  1.00  0.00     0.168 HD
BRANCH   8  11
HETATM   11  N   UNL     1      41.857 -13.766   3.686  1.00  0.00    -0.299 N 
HETATM   12  C   UNL     1      42.842 -14.104   4.609  1.00  0.00     0.257 C 
HETATM   13  O   UNL     1      43.626 -13.345   5.161  1.00  0.00    -0.267 OA
HETATM   14  H   UNL     1      41.507 -14.558   3.163  1.00  0.00     0.171 HD
BRANCH  12  15
HETATM   15  C   UNL     1      42.932 -15.565   4.892  1.00  0.00     0.032 A 
HETATM   16  C   UNL     1      43.838 -15.998   5.865  1.00  0.00     0.020 A 
HETATM   17  C   UNL     1      44.015 -17.364   6.091  1.00  0.00     0.038 A 
HETATM   18  C   UNL     1      43.267 -18.299   5.375  1.00  0.00     0.068 A 
HETATM   19  C   UNL     1      42.348 -17.870   4.417  1.00  0.00     0.038 A 
HETATM   20  C   UNL     1      42.176 -16.502   4.176  1.00  0.00     0.020 A 
BRANCH  18  21
HETATM   21  O   UNL     1      43.562 -19.612   5.619  1.00  0.00    -0.351 OA
BRANCH  21  22
HETATM   22  C   UNL     1      44.884 -20.010   5.251  1.00  0.00     0.175 C 
BRANCH  22  23
HETATM   23  C   UNL     1      44.793 -21.157   4.246  1.00  0.00     0.022 C 
HETATM   24  C   UNL     1      44.766 -22.525   4.913  1.00  0.00     0.007 C 
ENDBRANCH  22  23
ENDBRANCH  21  22
ENDBRANCH  18  21
ENDBRANCH  12  15
ENDBRANCH   8  11
ENDBRANCH   1   7
BRANCH   3  25
HETATM   25  C   UNL     1      41.385 -10.122   8.052  1.00  0.00     0.183 A 
HETATM   26  O   UNL     1      42.631 -10.686   8.140  1.00  0.00    -0.288 OA
HETATM   27  C   UNL     1      43.020 -10.454   9.429  1.00  0.00     0.112 A 
HETATM   28  C   UNL     1      41.993  -9.773  10.056  1.00  0.00     0.094 A 
HETATM   29  C   UNL     1      44.219 -10.831  10.033  1.00  0.00    -0.025 A 
HETATM   30  N   UNL     1      40.957  -9.574   9.180  1.00  0.00    -0.221 NA
HETATM   31  C   UNL     1      42.134  -9.415  11.403  1.00  0.00     0.041 A 
HETATM   32  C   UNL     1      43.321  -9.765  12.072  1.00  0.00    -0.059 A 
HETATM   33  C   UNL     1      44.337 -10.462  11.389  1.00  0.00     0.016 A 
HETATM   34  C   UNL     1      43.483  -9.400  13.519  1.00  0.00     0.048 C 
HETATM   35  C   UNL     1      45.313 -11.574   9.338  1.00  0.00     0.051 C 
ENDBRANCH   3  25
BRANCH   4  36
HETATM   36  O   UNL     1      38.577  -9.378   7.620  1.00  0.00    -0.360 OA
HETATM   37  H   UNL     1      38.469  -8.421   7.503  1.00  0.00     0.217 HD
ENDBRANCH   4  36
TORSDOF 8
ENDMDL
MODEL 6
REMARK VINA RESULT:      -7.3      3.865      8.239
REMARK  8 active torsions:
REMARK  status: ('A' for Active; 'I' for Inactive)
REMARK    1  A    between atoms: C_2  and  C_3 
REMARK    2  A    between atoms: C_3  and  O_4 
REMARK    3  A    between atoms: O_4  and  C_5 
REMARK    4  A    between atoms: C_8  and  C_9 
REMARK       I    between atoms: C_9  and  N_10 
REMARK    5  A    between atoms: N_10  and  C_11 
REMARK    6  A    between atoms: N_12  and  C_13 
REMARK    7  A    between atoms: C_15  and  C_16 
REMARK    8  A    between atoms: C_27  and  O_28 
ROOT
HETATM    1  C   UNL     1      41.061 -13.840   0.317  1.00  0.00     0.035 A 
HETATM    2  C   UNL     1      41.618 -15.076   0.675  1.00  0.00     0.048 A 
HETATM    3  C   UNL     1      41.360 -15.682   1.921  1.00  0.00     0.052 A 
HETATM    4  C   UNL     1      40.498 -15.017   2.802  1.00  0.00     0.080 A 
HETATM    5  C   UNL     1      39.938 -13.782   2.458  1.00  0.00     0.040 A 
HETATM    6  C   UNL     1      40.230 -13.191   1.224  1.00  0.00     0.032 A 
ENDROOT
BRANCH   1   7
HETATM    7  N   UNL     1      41.478 -13.294  -0.916  1.00  0.00    -0.333 N 
HETATM    8  C   UNL     1      40.812 -12.583  -1.849  1.00  0.00     0.179 C 
HETATM    9  S   UNL     1      41.652 -11.419  -2.715  1.00  0.00    -0.040 SA
HETATM   10  H   UNL     1      42.485 -13.239  -1.028  1.00  0.00     0.168 HD
BRANCH   8  11
HETATM   11  N   UNL     1      39.503 -12.769  -2.157  1.00  0.00    -0.299 N 
HETATM   12  C   UNL     1      38.958 -13.887  -2.781  1.00  0.00     0.257 C 
HETATM   13  O   UNL     1      39.436 -15.011  -2.828  1.00  0.00    -0.267 OA
HETATM   14  H   UNL     1      39.090 -11.897  -2.460  1.00  0.00     0.171 HD
BRANCH  12  15
HETATM   15  C   UNL     1      37.671 -13.621  -3.485  1.00  0.00     0.032 A 
HETATM   16  C   UNL     1      36.980 -14.704  -4.036  1.00  0.00     0.020 A 
HETATM   17  C   UNL     1      35.820 -14.481  -4.781  1.00  0.00     0.038 A 
HETATM   18  C   UNL     1      35.328 -13.187  -4.949  1.00  0.00     0.068 A 
HETATM   19  C   UNL     1      36.004 -12.105  -4.382  1.00  0.00     0.038 A 
HETATM   20  C   UNL     1      37.176 -12.320  -3.647  1.00  0.00     0.020 A 
BRANCH  18  21
HETATM   21  O   UNL     1      34.227 -13.066  -5.750  1.00  0.00    -0.351 OA
BRANCH  21  22
HETATM   22  C   UNL     1      33.404 -11.931  -5.474  1.00  0.00     0.175 C 
BRANCH  22  23
HETATM   23  C   UNL     1      33.090 -11.217  -6.789  1.00  0.00     0.022 C 
HETATM   24  C   UNL     1      33.188 -12.138  -7.997  1.00  0.00     0.007 C 
ENDBRANCH  22  23
ENDBRANCH  21  22
ENDBRANCH  18  21
ENDBRANCH  12  15
ENDBRANCH   8  11
ENDBRANCH   1   7
BRANCH   3  25
HETATM   25  C   UNL     1      42.026 -16.956   2.206  1.00  0.00     0.183 A 
HETATM   26  O   UNL     1      42.759 -17.054   3.360  1.00  0.00    -0.288 OA
HETATM   27  C   UNL     1      43.304 -18.306   3.314  1.00  0.00     0.112 A 
HETATM   28  C   UNL     1      42.883 -18.898   2.137  1.00  0.00     0.094 A 
HETATM   29  C   UNL     1      44.141 -18.902   4.256  1.00  0.00    -0.025 A 
HETATM   30  N   UNL     1      42.081 -18.033   1.436  1.00  0.00    -0.221 NA
HETATM   31  C   UNL     1      43.309 -20.198   1.836  1.00  0.00     0.041 A 
HETATM   32  C   UNL     1      44.156 -20.856   2.747  1.00  0.00    -0.059 A 
HETATM   33  C   UNL     1      44.558 -20.209   3.930  1.00  0.00     0.016 A 
HETATM   34  C   UNL     1      44.632 -22.245   2.434  1.00  0.00     0.048 C 
HETATM   35  C   UNL     1      44.590 -18.240   5.519  1.00  0.00     0.051 C 
ENDBRANCH   3  25
BRANCH   4  36
HETATM   36  O   UNL     1      40.183 -15.561   4.017  1.00  0.00    -0.360 OA
HETATM   37  H   UNL     1      39.641 -14.936   4.524  1.00  0.00     0.217 HD
ENDBRANCH   4  36
TORSDOF 8
ENDMDL
MODEL 7
REMARK VINA RESULT:      -7.2      3.611      7.893
REMARK  8 active torsions:
REMARK  status: ('A' for Active; 'I' for Inactive)
REMARK    1  A    between atoms: C_2  and  C_3 
REMARK    2  A    between atoms: C_3  and  O_4 
REMARK    3  A    between atoms: O_4  and  C_5 
REMARK    4  A    between atoms: C_8  and  C_9 
REMARK       I    between atoms: C_9  and  N_10 
REMARK    5  A    between atoms: N_10  and  C_11 
REMARK    6  A    between atoms: N_12  and  C_13 
REMARK    7  A    between atoms: C_15  and  C_16 
REMARK    8  A    between atoms: C_27  and  O_28 
ROOT
HETATM    1  C   UNL     1      41.948 -12.569   3.702  1.00  0.00     0.035 A 
HETATM    2  C   UNL     1      41.406 -11.909   4.813  1.00  0.00     0.048 A 
HETATM    3  C   UNL     1      41.893 -12.112   6.120  1.00  0.00     0.052 A 
HETATM    4  C   UNL     1      42.972 -12.992   6.282  1.00  0.00     0.080 A 
HETATM    5  C   UNL     1      43.521 -13.658   5.181  1.00  0.00     0.040 A 
HETATM    6  C   UNL     1      43.001 -13.457   3.898  1.00  0.00     0.032 A 
ENDROOT
BRANCH   1   7
HETATM    7  N   UNL     1      41.304 -12.355   2.464  1.00  0.00    -0.333 N 
HETATM    8  C   UNL     1      40.746 -13.214   1.587  1.00  0.00     0.179 C 
HETATM    9  S   UNL     1      39.411 -12.705   0.711  1.00  0.00    -0.040 SA
HETATM   10  H   UNL     1      41.025 -11.393   2.302  1.00  0.00     0.168 HD
BRANCH   8  11
HETATM   11  N   UNL     1      41.215 -14.464   1.343  1.00  0.00    -0.299 N 
HETATM   12  C   UNL     1      40.792 -15.635   1.963  1.00  0.00     0.257 C 
HETATM   13  O   UNL     1      39.725 -15.825   2.529  1.00  0.00    -0.267 OA
HETATM   14  H   UNL     1      42.213 -14.434   1.177  1.00  0.00     0.171 HD
BRANCH  12  15
HETATM   15  C   UNL     1      41.800 -16.733   1.939  1.00  0.00     0.032 A 
HETATM   16  C   UNL     1      41.830 -17.630   3.011  1.00  0.00     0.020 A 
HETATM   17  C   UNL     1      42.820 -18.614   3.067  1.00  0.00     0.038 A 
HETATM   18  C   UNL     1      43.758 -18.728   2.040  1.00  0.00     0.068 A 
HETATM   19  C   UNL     1      43.718 -17.847   0.959  1.00  0.00     0.038 A 
HETATM   20  C   UNL     1      42.737 -16.849   0.904  1.00  0.00     0.020 A 
BRANCH  18  21
HETATM   21  O   UNL     1      44.726 -19.677   2.220  1.00  0.00    -0.351 OA
BRANCH  21  22
HETATM   22  C   UNL     1      44.615 -20.426   3.431  1.00  0.00     0.175 C 
BRANCH  22  23
HETATM   23  C   UNL     1      44.331 -21.887   3.083  1.00  0.00     0.022 C 
HETATM   24  C   UNL     1      44.411 -22.164   1.589  1.00  0.00     0.007 C 
ENDBRANCH  22  23
ENDBRANCH  21  22
ENDBRANCH  18  21
ENDBRANCH  12  15
ENDBRANCH   8  11
ENDBRANCH   1   7
BRANCH   3  25
HETATM   25  C   UNL     1      41.225 -11.400   7.212  1.00  0.00     0.183 A 
HETATM   26  O   UNL     1      41.993 -10.972   8.265  1.00  0.00    -0.288 OA
HETATM   27  C   UNL     1      41.099 -10.418   9.136  1.00  0.00     0.112 A 
HETATM   28  C   UNL     1      39.841 -10.543   8.575  1.00  0.00     0.094 A 
HETATM   29  C   UNL     1      41.370  -9.835  10.374  1.00  0.00    -0.025 A 
HETATM   30  N   UNL     1      39.928 -11.174   7.361  1.00  0.00    -0.221 NA
HETATM   31  C   UNL     1      38.729 -10.056   9.275  1.00  0.00     0.041 A 
HETATM   32  C   UNL     1      38.935  -9.456  10.531  1.00  0.00    -0.059 A 
HETATM   33  C   UNL     1      40.236  -9.355  11.060  1.00  0.00     0.016 A 
HETATM   34  C   UNL     1      37.754  -8.940  11.300  1.00  0.00     0.048 C 
HETATM   35  C   UNL     1      42.738  -9.718  10.964  1.00  0.00     0.051 C 
ENDBRANCH   3  25
BRANCH   4  36
HETATM   36  O   UNL     1      43.513 -13.216   7.518  1.00  0.00    -0.360 OA
HETATM   37  H   UNL     1      42.984 -13.878   7.990  1.00  0.00     0.217 HD
ENDBRANCH   4  36
TORSDOF 8
ENDMDL
MODEL 8
REMARK VINA RESULT:      -7.0      4.419      7.757
REMARK  8 active torsions:
REMARK  status: ('A' for Active; 'I' for Inactive)
REMARK    1  A    between atoms: C_2  and  C_3 
REMARK    2  A    between atoms: C_3  and  O_4 
REMARK    3  A    between atoms: O_4  and  C_5 
REMARK    4  A    between atoms: C_8  and  C_9 
REMARK       I    between atoms: C_9  and  N_10 
REMARK    5  A    between atoms: N_10  and  C_11 
REMARK    6  A    between atoms: N_12  and  C_13 
REMARK    7  A    between atoms: C_15  and  C_16 
REMARK    8  A    between atoms: C_27  and  O_28 
ROOT
HETATM    1  C   UNL     1      44.955 -11.603   9.945  1.00  0.00     0.035 A 
HETATM    2  C   UNL     1      44.442 -12.620   9.127  1.00  0.00     0.048 A 
HETATM    3  C   UNL     1      45.110 -13.061   7.967  1.00  0.00     0.052 A 
HETATM    4  C   UNL     1      46.338 -12.462   7.657  1.00  0.00     0.080 A 
HETATM    5  C   UNL     1      46.861 -11.445   8.464  1.00  0.00     0.040 A 
HETATM    6  C   UNL     1      46.164 -11.009   9.596  1.00  0.00     0.032 A 
ENDROOT
BRANCH   1   7
HETATM    7  N   UNL     1      44.141 -11.185  11.018  1.00  0.00    -0.333 N 
HETATM    8  C   UNL     1      42.833 -10.860  11.074  1.00  0.00     0.179 C 
HETATM    9  S   UNL     1      41.983 -11.208  12.476  1.00  0.00    -0.040 SA
HETATM   10  H   UNL     1      44.540 -11.357  11.935  1.00  0.00     0.168 HD
BRANCH   8  11
HETATM   11  N   UNL     1      42.161 -10.237  10.072  1.00  0.00    -0.299 N 
HETATM   12  C   UNL     1      40.933 -10.623   9.544  1.00  0.00     0.257 C 
HETATM   13  O   UNL     1      40.083 -11.316  10.085  1.00  0.00    -0.267 OA
HETATM   14  H   UNL     1      42.812  -9.900   9.375  1.00  0.00     0.171 HD
BRANCH  12  15
HETATM   15  C   UNL     1      40.695 -10.147   8.152  1.00  0.00     0.032 A 
HETATM   16  C   UNL     1      39.556 -10.601   7.480  1.00  0.00     0.020 A 
HETATM   17  C   UNL     1      39.350 -10.248   6.145  1.00  0.00     0.038 A 
HETATM   18  C   UNL     1      40.256  -9.416   5.488  1.00  0.00     0.068 A 
HETATM   19  C   UNL     1      41.384  -8.944   6.162  1.00  0.00     0.038 A 
HETATM   20  C   UNL     1      41.604  -9.306   7.496  1.00  0.00     0.020 A 
BRANCH  18  21
HETATM   21  O   UNL     1      40.002  -9.184   4.165  1.00  0.00    -0.351 OA
BRANCH  21  22
HETATM   22  C   UNL     1      39.661 -10.346   3.406  1.00  0.00     0.175 C 
BRANCH  22  23
HETATM   23  C   UNL     1      40.945 -11.091   3.041  1.00  0.00     0.022 C 
HETATM   24  C   UNL     1      40.997 -12.496   3.623  1.00  0.00     0.007 C 
ENDBRANCH  22  23
ENDBRANCH  21  22
ENDBRANCH  18  21
ENDBRANCH  12  15
ENDBRANCH   8  11
ENDBRANCH   1   7
BRANCH   3  25
HETATM   25  C   UNL     1      44.463 -14.103   7.166  1.00  0.00     0.183 A 
HETATM   26  O   UNL     1      44.350 -15.355   7.711  1.00  0.00    -0.288 OA
HETATM   27  C   UNL     1      43.781 -16.107   6.722  1.00  0.00     0.112 A 
HETATM   28  C   UNL     1      43.586 -15.280   5.632  1.00  0.00     0.094 A 
HETATM   29  C   UNL     1      43.454 -17.462   6.770  1.00  0.00    -0.025 A 
HETATM   30  N   UNL     1      44.029 -14.014   5.917  1.00  0.00    -0.221 NA
HETATM   31  C   UNL     1      43.016 -15.809   4.466  1.00  0.00     0.041 A 
HETATM   32  C   UNL     1      42.663 -17.171   4.448  1.00  0.00    -0.059 A 
HETATM   33  C   UNL     1      42.885 -17.972   5.585  1.00  0.00     0.016 A 
HETATM   34  C   UNL     1      42.063 -17.757   3.203  1.00  0.00     0.048 C 
HETATM   35  C   UNL     1      43.681 -18.340   7.957  1.00  0.00     0.051 C 
ENDBRANCH   3  25
BRANCH   4  36
HETATM   36  O   UNL     1      47.054 -12.859   6.561  1.00  0.00    -0.360 OA
HETATM   37  H   UNL     1      46.929 -13.810   6.417  1.00  0.00     0.217 HD
ENDBRANCH   4  36
TORSDOF 8
ENDMDL
MODEL 9
REMARK VINA RESULT:      -7.0      3.737      7.280
REMARK  8 active torsions:
REMARK  status: ('A' for Active; 'I' for Inactive)
REMARK    1  A    between atoms: C_2  and  C_3 
REMARK    2  A    between atoms: C_3  and  O_4 
REMARK    3  A    between atoms: O_4  and  C_5 
REMARK    4  A    between atoms: C_8  and  C_9 
REMARK       I    between atoms: C_9  and  N_10 
REMARK    5  A    between atoms: N_10  and  C_11 
REMARK    6  A    between atoms: N_12  and  C_13 
REMARK    7  A    between atoms: C_15  and  C_16 
REMARK    8  A    between atoms: C_27  and  O_28 
ROOT
HETATM    1  C   UNL     1      41.486 -14.615   3.736  1.00  0.00     0.035 A 
HETATM    2  C   UNL     1      41.765 -13.583   2.828  1.00  0.00     0.048 A 
HETATM    3  C   UNL     1      41.328 -13.622   1.489  1.00  0.00     0.052 A 
HETATM    4  C   UNL     1      40.572 -14.730   1.084  1.00  0.00     0.080 A 
HETATM    5  C   UNL     1      40.288 -15.767   1.980  1.00  0.00     0.040 A 
HETATM    6  C   UNL     1      40.755 -15.714   3.297  1.00  0.00     0.032 A 
ENDROOT
BRANCH   1   7
HETATM    7  N   UNL     1      42.066 -14.502   5.018  1.00  0.00    -0.333 N 
HETATM    8  C   UNL     1      42.963 -15.274   5.664  1.00  0.00     0.179 C 
HETATM    9  S   UNL     1      44.044 -14.537   6.711  1.00  0.00    -0.040 SA
HETATM   10  H   UNL     1      41.959 -13.587   5.444  1.00  0.00     0.168 HD
BRANCH   8  11
HETATM   11  N   UNL     1      43.031 -16.624   5.543  1.00  0.00    -0.299 N 
HETATM   12  C   UNL     1      43.089 -17.540   6.589  1.00  0.00     0.257 C 
HETATM   13  O   UNL     1      42.726 -17.364   7.744  1.00  0.00    -0.267 OA
HETATM   14  H   UNL     1      43.617 -16.874   4.756  1.00  0.00     0.171 HD
BRANCH  12  15
HETATM   15  C   UNL     1      43.702 -18.847   6.218  1.00  0.00     0.032 A 
HETATM   16  C   UNL     1      44.609 -18.876   5.154  1.00  0.00     0.020 A 
HETATM   17  C   UNL     1      45.131 -20.096   4.719  1.00  0.00     0.038 A 
HETATM   18  C   UNL     1      44.782 -21.282   5.365  1.00  0.00     0.068 A 
HETATM   19  C   UNL     1      43.893 -21.254   6.441  1.00  0.00     0.038 A 
HETATM   20  C   UNL     1      43.354 -20.036   6.872  1.00  0.00     0.020 A 
BRANCH  18  21
HETATM   21  O   UNL     1      45.292 -22.429   4.824  1.00  0.00    -0.351 OA
BRANCH  21  22
HETATM   22  C   UNL     1      44.600 -22.909   3.669  1.00  0.00     0.175 C 
BRANCH  22  23
HETATM   23  C   UNL     1      44.720 -21.869   2.555  1.00  0.00     0.022 C 
HETATM   24  C   UNL     1      43.415 -21.657   1.803  1.00  0.00     0.007 C 
ENDBRANCH  22  23
ENDBRANCH  21  22
ENDBRANCH  18  21
ENDBRANCH  12  15
ENDBRANCH   8  11
ENDBRANCH   1   7
BRANCH   3  25
HETATM   25  C   UNL     1      41.711 -12.508   0.618  1.00  0.00     0.183 A 
HETATM   26  O   UNL     1      41.736 -12.730  -0.735  1.00  0.00    -0.288 OA
HETATM   27  C   UNL     1      42.187 -11.555  -1.265  1.00  0.00     0.112 A 
HETATM   28  C   UNL     1      42.420 -10.687  -0.213  1.00  0.00     0.094 A 
HETATM   29  C   UNL     1      42.396 -11.256  -2.611  1.00  0.00    -0.025 A 
HETATM   30  N   UNL     1      42.125 -11.302   0.977  1.00  0.00    -0.221 NA
HETATM   31  C   UNL     1      42.901  -9.400  -0.483  1.00  0.00     0.041 A 
HETATM   32  C   UNL     1      43.132  -9.035  -1.822  1.00  0.00    -0.059 A 
HETATM   33  C   UNL     1      42.882  -9.956  -2.858  1.00  0.00     0.016 A 
HETATM   34  C   UNL     1      43.659  -7.663  -2.129  1.00  0.00     0.048 C 
HETATM   35  C   UNL     1      42.145 -12.212  -3.732  1.00  0.00     0.051 C 
ENDBRANCH   3  25
BRANCH   4  36
HETATM   36  O   UNL     1      40.093 -14.821  -0.194  1.00  0.00    -0.360 OA
HETATM   37  H   UNL     1      40.824 -15.007  -0.804  1.00  0.00     0.217 HD
ENDBRANCH   4  36
TORSDOF 8
ENDMDL
MODEL 10
REMARK VINA RESULT:      -6.9      5.377      9.907
REMARK  8 active torsions:
REMARK  status: ('A' for Active; 'I' for Inactive)
REMARK    1  A    between atoms: C_2  and  C_3 
REMARK    2  A    between atoms: C_3  and  O_4 
REMARK    3  A    between atoms: O_4  and  C_5 
REMARK    4  A    between atoms: C_8  and  C_9 
REMARK       I    between atoms: C_9  and  N_10 
REMARK    5  A    between atoms: N_10  and  C_11 
REMARK    6  A    between atoms: N_12  and  C_13 
REMARK    7  A    between atoms: C_15  and  C_16 
REMARK    8  A    between atoms: C_27  and  O_28 
ROOT
HETATM    1  C   UNL     1      44.573 -14.015   7.455  1.00  0.00     0.035 A 
HETATM    2  C   UNL     1      44.021 -13.188   8.443  1.00  0.00     0.048 A 
HETATM    3  C   UNL     1      44.712 -12.075   8.962  1.00  0.00     0.052 A 
HETATM    4  C   UNL     1      45.981 -11.795   8.439  1.00  0.00     0.080 A 
HETATM    5  C   UNL     1      46.544 -12.614   7.453  1.00  0.00     0.040 A 
HETATM    6  C   UNL     1      45.846 -13.727   6.974  1.00  0.00     0.032 A 
ENDROOT
BRANCH   1   7
HETATM    7  N   UNL     1      43.821 -15.154   7.093  1.00  0.00    -0.333 N 
HETATM    8  C   UNL     1      43.570 -15.715   5.892  1.00  0.00     0.179 C 
HETATM    9  S   UNL     1      43.403 -17.380   5.809  1.00  0.00    -0.040 SA
HETATM   10  H   UNL     1      43.608 -15.775   7.867  1.00  0.00     0.168 HD
BRANCH   8  11
HETATM   11  N   UNL     1      43.415 -15.012   4.742  1.00  0.00    -0.299 N 
HETATM   12  C   UNL     1      42.375 -14.134   4.451  1.00  0.00     0.257 C 
HETATM   13  O   UNL     1      41.652 -13.557   5.251  1.00  0.00    -0.267 OA
HETATM   14  H   UNL     1      43.701 -15.573   3.951  1.00  0.00     0.171 HD
BRANCH  12  15
HETATM   15  C   UNL     1      42.135 -13.941   2.993  1.00  0.00     0.032 A 
HETATM   16  C   UNL     1      42.012 -12.636   2.507  1.00  0.00     0.020 A 
HETATM   17  C   UNL     1      41.695 -12.421   1.164  1.00  0.00     0.038 A 
HETATM   18  C   UNL     1      41.535 -13.501   0.296  1.00  0.00     0.068 A 
HETATM   19  C   UNL     1      41.677 -14.805   0.774  1.00  0.00     0.038 A 
HETATM   20  C   UNL     1      41.980 -15.028   2.122  1.00  0.00     0.020 A 
BRANCH  18  21
HETATM   21  O   UNL     1      41.160 -13.190  -0.981  1.00  0.00    -0.351 OA
BRANCH  21  22
HETATM   22  C   UNL     1      42.200 -13.294  -1.955  1.00  0.00     0.175 C 
BRANCH  22  23
HETATM   23  C   UNL     1      41.637 -13.967  -3.207  1.00  0.00     0.022 C 
HETATM   24  C   UNL     1      41.053 -15.344  -2.925  1.00  0.00     0.007 C 
ENDBRANCH  22  23
ENDBRANCH  21  22
ENDBRANCH  18  21
ENDBRANCH  12  15
ENDBRANCH   8  11
ENDBRANCH   1   7
BRANCH   3  25
HETATM   25  C   UNL     1      44.056 -11.303  10.021  1.00  0.00     0.183 A 
HETATM   26  O   UNL     1      42.954 -10.559   9.685  1.00  0.00    -0.288 OA
HETATM   27  C   UNL     1      42.615  -9.912  10.839  1.00  0.00     0.112 A 
HETATM   28  C   UNL     1      43.528 -10.286  11.809  1.00  0.00     0.094 A 
HETATM   29  C   UNL     1      41.557  -9.024  11.034  1.00  0.00    -0.025 A 
HETATM   30  N   UNL     1      44.443 -11.160  11.280  1.00  0.00    -0.221 NA
HETATM   31  C   UNL     1      43.410  -9.753  13.099  1.00  0.00     0.041 A 
HETATM   32  C   UNL     1      42.363  -8.851  13.362  1.00  0.00    -0.059 A 
HETATM   33  C   UNL     1      41.461  -8.499  12.339  1.00  0.00     0.016 A 
HETATM   34  C   UNL     1      42.230  -8.261  14.736  1.00  0.00     0.048 C 
HETATM   35  C   UNL     1      40.587  -8.627   9.969  1.00  0.00     0.051 C 
ENDBRANCH   3  25
BRANCH   4  36
HETATM   36  O   UNL     1      46.697 -10.715   8.878  1.00  0.00    -0.360 OA
HETATM   37  H   UNL     1      46.441  -9.927   8.372  1.00  0.00     0.217 HD
ENDBRANCH   4  36
TORSDOF 8
ENDMDL
