MODEL 1
REMARK VINA RESULT:      -9.7      0.000      0.000
REMARK  1 active torsions:
REMARK  status: ('A' for Active; 'I' for Inactive)
REMARK    1  A    between atoms: C_8  and  C_9 
ROOT
HETATM    1  C   UNL     1      43.576 -21.223   1.654  1.00  0.00     0.049 C 
HETATM    2  C   UNL     1      43.954 -20.385   2.846  1.00  0.00    -0.050 A 
HETATM    3  C   UNL     1      43.544 -19.044   2.988  1.00  0.00    -0.002 A 
HETATM    4  C   UNL     1      43.957 -18.306   4.113  1.00  0.00     0.051 A 
HETATM    5  N   UNL     1      43.582 -16.957   4.205  1.00  0.00    -0.322 N 
HETATM    6  C   UNL     1      42.835 -16.299   3.271  1.00  0.00     0.255 A 
HETATM    7  O   UNL     1      42.590 -15.101   3.395  1.00  0.00    -0.268 OA
HETATM    8  C   UNL     1      42.305 -17.085   2.121  1.00  0.00     0.048 A 
HETATM    9  C   UNL     1      42.681 -18.375   2.005  1.00  0.00     0.030 A 
HETATM   10  C   UNL     1      44.744 -18.891   5.120  1.00  0.00    -0.034 A 
HETATM   11  C   UNL     1      45.169 -18.136   6.348  1.00  0.00     0.050 C 
HETATM   12  C   UNL     1      45.129 -20.229   4.974  1.00  0.00     0.009 A 
HETATM   13  C   UNL     1      44.745 -20.963   3.850  1.00  0.00     0.008 A 
HETATM   14  H   UNL     1      43.895 -16.392   4.981  1.00  0.00     0.169 HD
ENDROOT
BRANCH   8  15
HETATM   15  C   UNL     1      41.423 -16.337   1.147  1.00  0.00     0.202 C 
HETATM   16  N   UNL     1      42.140 -15.299   0.464  1.00  0.00    -0.336 N 
HETATM   17  C   UNL     1      41.469 -14.484  -0.415  1.00  0.00     0.255 C 
HETATM   18  H   UNL     1      43.056 -15.560   0.104  1.00  0.00     0.164 HD
HETATM   19  O   UNL     1      42.032 -13.936  -1.353  1.00  0.00    -0.268 OA
HETATM   20  C   UNL     1      40.035 -14.278  -0.130  1.00  0.00     0.053 A 
HETATM   21  C   UNL     1      39.507 -14.904   1.006  1.00  0.00     0.026 A 
HETATM   22  C   UNL     1      39.252 -13.439  -0.926  1.00  0.00     0.019 A 
HETATM   23  N   UNL     1      40.325 -15.680   1.865  1.00  0.00    -0.266 NA
HETATM   24  C   UNL     1      38.198 -14.607   1.387  1.00  0.00     0.024 A 
HETATM   25  H   UNL     1      40.747 -15.025   2.524  1.00  0.00     0.130 HD
HETATM   26  C   UNL     1      37.407 -13.766   0.599  1.00  0.00     0.002 A 
HETATM   27  C   UNL     1      37.930 -13.190  -0.561  1.00  0.00     0.001 A 
ENDBRANCH   8  15
TORSDOF 1
ENDMDL
MODEL 2
REMARK VINA RESULT:      -9.1      2.950      7.321
REMARK  1 active torsions:
REMARK  status: ('A' for Active; 'I' for Inactive)
REMARK    1  A    between atoms: C_8  and  C_9 
ROOT
HETATM    1  C   UNL     1      39.896 -14.216   1.366  1.00  0.00     0.049 C 
HETATM    2  C   UNL     1      39.771 -13.756   2.794  1.00  0.00    -0.050 A 
HETATM    3  C   UNL     1      40.281 -14.501   3.876  1.00  0.00    -0.002 A 
HETATM    4  C   UNL     1      40.105 -14.028   5.190  1.00  0.00     0.051 A 
HETATM    5  N   UNL     1      40.573 -14.815   6.254  1.00  0.00    -0.322 N 
HETATM    6  C   UNL     1      41.195 -16.021   6.107  1.00  0.00     0.255 A 
HETATM    7  O   UNL     1      41.531 -16.677   7.090  1.00  0.00    -0.268 OA
HETATM    8  C   UNL     1      41.480 -16.493   4.722  1.00  0.00     0.048 A 
HETATM    9  C   UNL     1      41.011 -15.763   3.691  1.00  0.00     0.030 A 
HETATM   10  C   UNL     1      39.459 -12.806   5.445  1.00  0.00    -0.034 A 
HETATM   11  C   UNL     1      39.288 -12.262   6.835  1.00  0.00     0.050 C 
HETATM   12  C   UNL     1      38.974 -12.069   4.359  1.00  0.00     0.009 A 
HETATM   13  C   UNL     1      39.122 -12.540   3.054  1.00  0.00     0.008 A 
HETATM   14  H   UNL     1      40.426 -14.521   7.209  1.00  0.00     0.169 HD
ENDROOT
BRANCH   8  15
HETATM   15  C   UNL     1      42.234 -17.798   4.602  1.00  0.00     0.202 C 
HETATM   16  N   UNL     1      43.560 -17.702   5.138  1.00  0.00    -0.336 N 
HETATM   17  C   UNL     1      44.402 -18.786   5.053  1.00  0.00     0.255 C 
HETATM   18  H   UNL     1      43.638 -17.242   6.042  1.00  0.00     0.164 HD
HETATM   19  O   UNL     1      45.306 -18.972   5.856  1.00  0.00    -0.268 OA
HETATM   20  C   UNL     1      44.169 -19.688   3.907  1.00  0.00     0.053 A 
HETATM   21  C   UNL     1      43.146 -19.346   3.015  1.00  0.00     0.026 A 
HETATM   22  C   UNL     1      44.983 -20.802   3.688  1.00  0.00     0.019 A 
HETATM   23  N   UNL     1      42.382 -18.165   3.189  1.00  0.00    -0.266 NA
HETATM   24  C   UNL     1      43.002 -20.092   1.843  1.00  0.00     0.024 A 
HETATM   25  H   UNL     1      42.911 -17.417   2.739  1.00  0.00     0.130 HD
HETATM   26  C   UNL     1      43.813 -21.207   1.613  1.00  0.00     0.002 A 
HETATM   27  C   UNL     1      44.795 -21.567   2.537  1.00  0.00     0.001 A 
ENDBRANCH   8  15
TORSDOF 1
ENDMDL
MODEL 3
REMARK VINA RESULT:      -9.1      1.467      2.108
REMARK  1 active torsions:
REMARK  status: ('A' for Active; 'I' for Inactive)
REMARK    1  A    between atoms: C_8  and  C_9 
ROOT
HETATM    1  C   UNL     1      43.610 -20.436   1.650  1.00  0.00     0.049 C 
HETATM    2  C   UNL     1      43.881 -19.666   2.915  1.00  0.00    -0.050 A 
HETATM    3  C   UNL     1      43.564 -18.300   3.052  1.00  0.00    -0.002 A 
HETATM    4  C   UNL     1      43.871 -17.631   4.252  1.00  0.00     0.051 A 
HETATM    5  N   UNL     1      43.595 -16.258   4.343  1.00  0.00    -0.322 N 
HETATM    6  C   UNL     1      43.044 -15.512   3.342  1.00  0.00     0.255 A 
HETATM    7  O   UNL     1      42.882 -14.302   3.478  1.00  0.00    -0.268 OA
HETATM    8  C   UNL     1      42.622 -16.219   2.099  1.00  0.00     0.048 A 
HETATM    9  C   UNL     1      42.906 -17.532   1.985  1.00  0.00     0.030 A 
HETATM   10  C   UNL     1      44.456 -18.309   5.335  1.00  0.00    -0.034 A 
HETATM   11  C   UNL     1      44.762 -17.627   6.639  1.00  0.00     0.050 C 
HETATM   12  C   UNL     1      44.749 -19.669   5.191  1.00  0.00     0.009 A 
HETATM   13  C   UNL     1      44.472 -20.337   3.997  1.00  0.00     0.008 A 
HETATM   14  H   UNL     1      43.839 -15.743   5.178  1.00  0.00     0.169 HD
ENDROOT
BRANCH   8  15
HETATM   15  C   UNL     1      41.952 -15.371   1.042  1.00  0.00     0.202 C 
HETATM   16  N   UNL     1      40.686 -14.865   1.485  1.00  0.00    -0.336 N 
HETATM   17  C   UNL     1      39.917 -14.122   0.620  1.00  0.00     0.255 C 
HETATM   18  H   UNL     1      40.672 -14.472   2.424  1.00  0.00     0.164 HD
HETATM   19  O   UNL     1      39.117 -13.285   1.015  1.00  0.00    -0.268 OA
HETATM   20  C   UNL     1      40.089 -14.430  -0.814  1.00  0.00     0.053 A 
HETATM   21  C   UNL     1      40.987 -15.450  -1.151  1.00  0.00     0.026 A 
HETATM   22  C   UNL     1      39.336 -13.773  -1.790  1.00  0.00     0.019 A 
HETATM   23  N   UNL     1      41.681 -16.179  -0.153  1.00  0.00    -0.266 NA
HETATM   24  C   UNL     1      41.058 -15.868  -2.481  1.00  0.00     0.024 A 
HETATM   25  H   UNL     1      41.058 -16.936   0.131  1.00  0.00     0.130 HD
HETATM   26  C   UNL     1      40.306 -15.219  -3.465  1.00  0.00     0.002 A 
HETATM   27  C   UNL     1      39.454 -14.167  -3.122  1.00  0.00     0.001 A 
ENDBRANCH   8  15
TORSDOF 1
ENDMDL
MODEL 4
REMARK VINA RESULT:      -9.0      2.818      3.731
REMARK  1 active torsions:
REMARK  status: ('A' for Active; 'I' for Inactive)
REMARK    1  A    between atoms: C_8  and  C_9 
ROOT
HETATM    1  C   UNL     1      43.941 -19.345   6.904  1.00  0.00     0.049 C 
HETATM    2  C   UNL     1      44.076 -19.932   5.524  1.00  0.00    -0.050 A 
HETATM    3  C   UNL     1      43.603 -19.272   4.372  1.00  0.00    -0.002 A 
HETATM    4  C   UNL     1      43.735 -19.890   3.114  1.00  0.00     0.051 A 
HETATM    5  N   UNL     1      43.206 -19.238   1.989  1.00  0.00    -0.322 N 
HETATM    6  C   UNL     1      42.566 -18.033   2.025  1.00  0.00     0.255 A 
HETATM    7  O   UNL     1      42.083 -17.550   1.004  1.00  0.00    -0.268 OA
HETATM    8  C   UNL     1      42.502 -17.317   3.330  1.00  0.00     0.048 A 
HETATM    9  C   UNL     1      42.979 -17.943   4.424  1.00  0.00     0.030 A 
HETATM   10  C   UNL     1      44.363 -21.140   2.977  1.00  0.00    -0.034 A 
HETATM   11  C   UNL     1      44.546 -21.805   1.642  1.00  0.00     0.050 C 
HETATM   12  C   UNL     1      44.843 -21.775   4.128  1.00  0.00     0.009 A 
HETATM   13  C   UNL     1      44.696 -21.183   5.384  1.00  0.00     0.008 A 
HETATM   14  H   UNL     1      43.251 -19.674   1.079  1.00  0.00     0.169 HD
ENDROOT
BRANCH   8  15
HETATM   15  C   UNL     1      41.848 -15.954   3.314  1.00  0.00     0.202 C 
HETATM   16  N   UNL     1      42.721 -14.947   2.783  1.00  0.00    -0.336 N 
HETATM   17  C   UNL     1      42.300 -13.639   2.754  1.00  0.00     0.255 C 
HETATM   18  H   UNL     1      43.214 -15.197   1.929  1.00  0.00     0.164 HD
HETATM   19  O   UNL     1      42.723 -12.838   1.931  1.00  0.00    -0.268 OA
HETATM   20  C   UNL     1      41.337 -13.253   3.804  1.00  0.00     0.053 A 
HETATM   21  C   UNL     1      40.967 -14.234   4.732  1.00  0.00     0.026 A 
HETATM   22  C   UNL     1      40.866 -11.941   3.906  1.00  0.00     0.019 A 
HETATM   23  N   UNL     1      41.519 -15.538   4.682  1.00  0.00    -0.266 NA
HETATM   24  C   UNL     1      40.181 -13.861   5.823  1.00  0.00     0.024 A 
HETATM   25  H   UNL     1      42.396 -15.496   5.202  1.00  0.00     0.130 HD
HETATM   26  C   UNL     1      39.706 -12.551   5.936  1.00  0.00     0.002 A 
HETATM   27  C   UNL     1      40.040 -11.595   4.974  1.00  0.00     0.001 A 
ENDBRANCH   8  15
TORSDOF 1
ENDMDL
MODEL 5
REMARK VINA RESULT:      -8.8      2.151      3.640
REMARK  1 active torsions:
REMARK  status: ('A' for Active; 'I' for Inactive)
REMARK    1  A    between atoms: C_8  and  C_9 
ROOT
HETATM    1  C   UNL     1      44.305 -19.557   6.734  1.00  0.00     0.049 C 
HETATM    2  C   UNL     1      44.304 -20.141   5.346  1.00  0.00    -0.050 A 
HETATM    3  C   UNL     1      43.897 -19.403   4.216  1.00  0.00    -0.002 A 
HETATM    4  C   UNL     1      43.892 -20.018   2.949  1.00  0.00     0.051 A 
HETATM    5  N   UNL     1      43.430 -19.280   1.848  1.00  0.00    -0.322 N 
HETATM    6  C   UNL     1      42.980 -17.993   1.915  1.00  0.00     0.255 A 
HETATM    7  O   UNL     1      42.542 -17.430   0.915  1.00  0.00    -0.268 OA
HETATM    8  C   UNL     1      43.068 -17.292   3.227  1.00  0.00     0.048 A 
HETATM    9  C   UNL     1      43.482 -17.996   4.299  1.00  0.00     0.030 A 
HETATM   10  C   UNL     1      44.321 -21.346   2.781  1.00  0.00    -0.034 A 
HETATM   11  C   UNL     1      44.358 -22.014   1.436  1.00  0.00     0.050 C 
HETATM   12  C   UNL     1      44.738 -22.060   3.910  1.00  0.00     0.009 A 
HETATM   13  C   UNL     1      44.724 -21.468   5.175  1.00  0.00     0.008 A 
HETATM   14  H   UNL     1      43.379 -19.707   0.934  1.00  0.00     0.169 HD
ENDROOT
BRANCH   8  15
HETATM   15  C   UNL     1      42.626 -15.846   3.244  1.00  0.00     0.202 C 
HETATM   16  N   UNL     1      42.776 -15.255   4.542  1.00  0.00    -0.336 N 
HETATM   17  C   UNL     1      42.363 -13.960   4.745  1.00  0.00     0.255 C 
HETATM   18  H   UNL     1      43.660 -15.441   5.012  1.00  0.00     0.164 HD
HETATM   19  O   UNL     1      42.861 -13.245   5.604  1.00  0.00    -0.268 OA
HETATM   20  C   UNL     1      41.254 -13.501   3.886  1.00  0.00     0.053 A 
HETATM   21  C   UNL     1      40.717 -14.421   2.978  1.00  0.00     0.026 A 
HETATM   22  C   UNL     1      40.717 -12.218   4.022  1.00  0.00     0.019 A 
HETATM   23  N   UNL     1      41.202 -15.751   2.906  1.00  0.00    -0.266 NA
HETATM   24  C   UNL     1      39.572 -14.068   2.263  1.00  0.00     0.024 A 
HETATM   25  H   UNL     1      40.690 -16.278   3.615  1.00  0.00     0.130 HD
HETATM   26  C   UNL     1      39.025 -12.787   2.394  1.00  0.00     0.002 A 
HETATM   27  C   UNL     1      39.602 -11.861   3.265  1.00  0.00     0.001 A 
ENDBRANCH   8  15
TORSDOF 1
ENDMDL
MODEL 6
REMARK VINA RESULT:      -8.7      2.372      7.882
REMARK  1 active torsions:
REMARK  status: ('A' for Active; 'I' for Inactive)
REMARK    1  A    between atoms: C_8  and  C_9 
ROOT
HETATM    1  C   UNL     1      40.276 -12.361   5.252  1.00  0.00     0.049 C 
HETATM    2  C   UNL     1      39.640 -12.705   3.932  1.00  0.00    -0.050 A 
HETATM    3  C   UNL     1      39.794 -13.968   3.325  1.00  0.00    -0.002 A 
HETATM    4  C   UNL     1      39.197 -14.216   2.074  1.00  0.00     0.051 A 
HETATM    5  N   UNL     1      39.411 -15.462   1.465  1.00  0.00    -0.322 N 
HETATM    6  C   UNL     1      40.165 -16.465   2.002  1.00  0.00     0.255 A 
HETATM    7  O   UNL     1      40.350 -17.510   1.383  1.00  0.00    -0.268 OA
HETATM    8  C   UNL     1      40.725 -16.260   3.368  1.00  0.00     0.048 A 
HETATM    9  C   UNL     1      40.552 -15.059   3.954  1.00  0.00     0.030 A 
HETATM   10  C   UNL     1      38.417 -13.239   1.432  1.00  0.00    -0.034 A 
HETATM   11  C   UNL     1      37.741 -13.489   0.114  1.00  0.00     0.050 C 
HETATM   12  C   UNL     1      38.259 -11.996   2.055  1.00  0.00     0.009 A 
HETATM   13  C   UNL     1      38.866 -11.731   3.284  1.00  0.00     0.008 A 
HETATM   14  H   UNL     1      39.028 -15.655   0.550  1.00  0.00     0.169 HD
ENDROOT
BRANCH   8  15
HETATM   15  C   UNL     1      41.494 -17.421   3.957  1.00  0.00     0.202 C 
HETATM   16  N   UNL     1      42.114 -17.076   5.203  1.00  0.00    -0.336 N 
HETATM   17  C   UNL     1      42.902 -18.003   5.843  1.00  0.00     0.255 C 
HETATM   18  H   UNL     1      41.527 -16.569   5.862  1.00  0.00     0.164 HD
HETATM   19  O   UNL     1      43.060 -17.995   7.056  1.00  0.00    -0.268 OA
HETATM   20  C   UNL     1      43.578 -18.981   4.967  1.00  0.00     0.053 A 
HETATM   21  C   UNL     1      43.375 -18.860   3.587  1.00  0.00     0.026 A 
HETATM   22  C   UNL     1      44.438 -19.949   5.493  1.00  0.00     0.019 A 
HETATM   23  N   UNL     1      42.576 -17.820   3.050  1.00  0.00    -0.266 NA
HETATM   24  C   UNL     1      44.118 -19.670   2.727  1.00  0.00     0.024 A 
HETATM   25  H   UNL     1      43.193 -17.013   2.946  1.00  0.00     0.130 HD
HETATM   26  C   UNL     1      44.983 -20.640   3.243  1.00  0.00     0.002 A 
HETATM   27  C   UNL     1      45.136 -20.785   4.623  1.00  0.00     0.001 A 
ENDBRANCH   8  15
TORSDOF 1
ENDMDL
MODEL 7
REMARK VINA RESULT:      -8.7      2.192      3.400
REMARK  1 active torsions:
REMARK  status: ('A' for Active; 'I' for Inactive)
REMARK    1  A    between atoms: C_8  and  C_9 
ROOT
HETATM    1  C   UNL     1      42.832 -17.510   7.534  1.00  0.00     0.049 C 
HETATM    2  C   UNL     1      43.365 -18.723   6.819  1.00  0.00    -0.050 A 
HETATM    3  C   UNL     1      43.579 -18.745   5.426  1.00  0.00    -0.002 A 
HETATM    4  C   UNL     1      44.052 -19.922   4.814  1.00  0.00     0.051 A 
HETATM    5  N   UNL     1      44.205 -19.937   3.419  1.00  0.00    -0.322 N 
HETATM    6  C   UNL     1      43.925 -18.882   2.600  1.00  0.00     0.255 A 
HETATM    7  O   UNL     1      44.034 -18.988   1.381  1.00  0.00    -0.268 OA
HETATM    8  C   UNL     1      43.516 -17.597   3.235  1.00  0.00     0.048 A 
HETATM    9  C   UNL     1      43.338 -17.575   4.571  1.00  0.00     0.030 A 
HETATM   10  C   UNL     1      44.352 -21.068   5.571  1.00  0.00    -0.034 A 
HETATM   11  C   UNL     1      44.890 -22.324   4.947  1.00  0.00     0.050 C 
HETATM   12  C   UNL     1      44.151 -21.024   6.955  1.00  0.00     0.009 A 
HETATM   13  C   UNL     1      43.659 -19.871   7.569  1.00  0.00     0.008 A 
HETATM   14  H   UNL     1      44.506 -20.778   2.948  1.00  0.00     0.169 HD
ENDROOT
BRANCH   8  15
HETATM   15  C   UNL     1      43.284 -16.431   2.299  1.00  0.00     0.202 C 
HETATM   16  N   UNL     1      42.927 -15.238   3.009  1.00  0.00    -0.336 N 
HETATM   17  C   UNL     1      42.624 -14.099   2.302  1.00  0.00     0.255 C 
HETATM   18  H   UNL     1      43.493 -15.026   3.828  1.00  0.00     0.164 HD
HETATM   19  O   UNL     1      42.782 -12.980   2.771  1.00  0.00    -0.268 OA
HETATM   20  C   UNL     1      42.056 -14.314   0.956  1.00  0.00     0.053 A 
HETATM   21  C   UNL     1      41.860 -15.638   0.543  1.00  0.00     0.026 A 
HETATM   22  C   UNL     1      41.669 -13.238   0.154  1.00  0.00     0.019 A 
HETATM   23  N   UNL     1      42.167 -16.727   1.396  1.00  0.00    -0.266 NA
HETATM   24  C   UNL     1      41.185 -15.872  -0.656  1.00  0.00     0.024 A 
HETATM   25  H   UNL     1      41.341 -16.874   1.977  1.00  0.00     0.130 HD
HETATM   26  C   UNL     1      40.791 -14.802  -1.465  1.00  0.00     0.002 A 
HETATM   27  C   UNL     1      41.040 -13.488  -1.066  1.00  0.00     0.001 A 
ENDBRANCH   8  15
TORSDOF 1
ENDMDL
MODEL 8
REMARK VINA RESULT:      -8.6      1.891      3.139
REMARK  1 active torsions:
REMARK  status: ('A' for Active; 'I' for Inactive)
REMARK    1  A    between atoms: C_8  and  C_9 
ROOT
HETATM    1  C   UNL     1      43.530 -18.710   6.875  1.00  0.00     0.049 C 
HETATM    2  C   UNL     1      43.821 -19.420   5.580  1.00  0.00    -0.050 A 
HETATM    3  C   UNL     1      43.481 -18.874   4.326  1.00  0.00    -0.002 A 
HETATM    4  C   UNL     1      43.754 -19.604   3.153  1.00  0.00     0.051 A 
HETATM    5  N   UNL     1      43.356 -19.065   1.920  1.00  0.00    -0.322 N 
HETATM    6  C   UNL     1      42.717 -17.868   1.772  1.00  0.00     0.255 A 
HETATM    7  O   UNL     1      42.352 -17.486   0.662  1.00  0.00    -0.268 OA
HETATM    8  C   UNL     1      42.506 -17.035   2.989  1.00  0.00     0.048 A 
HETATM    9  C   UNL     1      42.856 -17.552   4.183  1.00  0.00     0.030 A 
HETATM   10  C   UNL     1      44.393 -20.855   3.205  1.00  0.00    -0.034 A 
HETATM   11  C   UNL     1      44.727 -21.638   1.967  1.00  0.00     0.050 C 
HETATM   12  C   UNL     1      44.740 -21.376   4.456  1.00  0.00     0.009 A 
HETATM   13  C   UNL     1      44.453 -20.672   5.627  1.00  0.00     0.008 A 
HETATM   14  H   UNL     1      43.504 -19.582   1.065  1.00  0.00     0.169 HD
ENDROOT
BRANCH   8  15
HETATM   15  C   UNL     1      41.858 -15.686   2.773  1.00  0.00     0.202 C 
HETATM   16  N   UNL     1      41.827 -14.907   3.977  1.00  0.00    -0.336 N 
HETATM   17  C   UNL     1      41.217 -13.675   3.968  1.00  0.00     0.255 C 
HETATM   18  H   UNL     1      42.693 -14.888   4.512  1.00  0.00     0.164 HD
HETATM   19  O   UNL     1      41.544 -12.782   4.737  1.00  0.00    -0.268 OA
HETATM   20  C   UNL     1      40.116 -13.515   2.998  1.00  0.00     0.053 A 
HETATM   21  C   UNL     1      39.786 -14.622   2.208  1.00  0.00     0.026 A 
HETATM   22  C   UNL     1      39.391 -12.323   2.918  1.00  0.00     0.019 A 
HETATM   23  N   UNL     1      40.463 -15.859   2.355  1.00  0.00    -0.266 NA
HETATM   24  C   UNL     1      38.654 -14.550   1.393  1.00  0.00     0.024 A 
HETATM   25  H   UNL     1      39.984 -16.357   3.107  1.00  0.00     0.130 HD
HETATM   26  C   UNL     1      37.920 -13.364   1.309  1.00  0.00     0.002 A 
HETATM   27  C   UNL     1      38.292 -12.249   2.063  1.00  0.00     0.001 A 
ENDBRANCH   8  15
TORSDOF 1
ENDMDL
MODEL 9
REMARK VINA RESULT:      -8.5      1.833      3.031
REMARK  1 active torsions:
REMARK  status: ('A' for Active; 'I' for Inactive)
REMARK    1  A    between atoms: C_8  and  C_9 
ROOT
HETATM    1  C   UNL     1      44.117 -16.871   6.471  1.00  0.00     0.049 C 
HETATM    2  C   UNL     1      44.114 -17.900   5.372  1.00  0.00    -0.050 A 
HETATM    3  C   UNL     1      43.438 -17.700   4.152  1.00  0.00    -0.002 A 
HETATM    4  C   UNL     1      43.450 -18.715   3.176  1.00  0.00     0.051 A 
HETATM    5  N   UNL     1      42.723 -18.514   1.992  1.00  0.00    -0.322 N 
HETATM    6  C   UNL     1      41.997 -17.393   1.712  1.00  0.00     0.255 A 
HETATM    7  O   UNL     1      41.343 -17.313   0.675  1.00  0.00    -0.268 OA
HETATM    8  C   UNL     1      42.049 -16.268   2.687  1.00  0.00     0.048 A 
HETATM    9  C   UNL     1      42.719 -16.456   3.842  1.00  0.00     0.030 A 
HETATM   10  C   UNL     1      44.155 -19.913   3.379  1.00  0.00    -0.034 A 
HETATM   11  C   UNL     1      44.212 -20.997   2.340  1.00  0.00     0.050 C 
HETATM   12  C   UNL     1      44.836 -20.090   4.589  1.00  0.00     0.009 A 
HETATM   13  C   UNL     1      44.810 -19.101   5.573  1.00  0.00     0.008 A 
HETATM   14  H   UNL     1      42.682 -19.240   1.290  1.00  0.00     0.169 HD
ENDROOT
BRANCH   8  15
HETATM   15  C   UNL     1      41.289 -15.017   2.308  1.00  0.00     0.202 C 
HETATM   16  N   UNL     1      41.240 -14.072   3.386  1.00  0.00    -0.336 N 
HETATM   17  C   UNL     1      40.534 -12.904   3.226  1.00  0.00     0.255 C 
HETATM   18  H   UNL     1      42.120 -13.910   3.871  1.00  0.00     0.164 HD
HETATM   19  O   UNL     1      40.816 -11.884   3.841  1.00  0.00    -0.268 OA
HETATM   20  C   UNL     1      39.390 -12.970   2.295  1.00  0.00     0.053 A 
HETATM   21  C   UNL     1      39.120 -14.205   1.692  1.00  0.00     0.026 A 
HETATM   22  C   UNL     1      38.569 -11.861   2.078  1.00  0.00     0.019 A 
HETATM   23  N   UNL     1      39.898 -15.352   1.986  1.00  0.00    -0.266 NA
HETATM   24  C   UNL     1      37.958 -14.338   0.930  1.00  0.00     0.024 A 
HETATM   25  H   UNL     1      39.487 -15.767   2.824  1.00  0.00     0.130 HD
HETATM   26  C   UNL     1      37.129 -13.234   0.708  1.00  0.00     0.002 A 
HETATM   27  C   UNL     1      37.439 -11.996   1.273  1.00  0.00     0.001 A 
ENDBRANCH   8  15
TORSDOF 1
ENDMDL
MODEL 10
REMARK VINA RESULT:      -8.4      2.101      3.209
REMARK  1 active torsions:
REMARK  status: ('A' for Active; 'I' for Inactive)
REMARK    1  A    between atoms: C_8  and  C_9 
ROOT
HETATM    1  C   UNL     1      43.900 -18.547   6.640  1.00  0.00     0.049 C 
HETATM    2  C   UNL     1      44.005 -19.301   5.342  1.00  0.00    -0.050 A 
HETATM    3  C   UNL     1      43.410 -18.841   4.150  1.00  0.00    -0.002 A 
HETATM    4  C   UNL     1      43.520 -19.610   2.976  1.00  0.00     0.051 A 
HETATM    5  N   UNL     1      42.873 -19.158   1.816  1.00  0.00    -0.322 N 
HETATM    6  C   UNL     1      42.134 -18.013   1.740  1.00  0.00     0.255 A 
HETATM    7  O   UNL     1      41.553 -17.710   0.701  1.00  0.00    -0.268 OA
HETATM    8  C   UNL     1      42.085 -17.135   2.943  1.00  0.00     0.048 A 
HETATM    9  C   UNL     1      42.678 -17.569   4.073  1.00  0.00     0.030 A 
HETATM   10  C   UNL     1      44.245 -20.814   2.958  1.00  0.00    -0.034 A 
HETATM   11  C   UNL     1      44.407 -21.636   1.711  1.00  0.00     0.050 C 
HETATM   12  C   UNL     1      44.845 -21.249   4.145  1.00  0.00     0.009 A 
HETATM   13  C   UNL     1      44.721 -20.507   5.321  1.00  0.00     0.008 A 
HETATM   14  H   UNL     1      42.902 -19.708   0.968  1.00  0.00     0.169 HD
ENDROOT
BRANCH   8  15
HETATM   15  C   UNL     1      41.316 -15.841   2.797  1.00  0.00     0.202 C 
HETATM   16  N   UNL     1      40.061 -16.036   2.132  1.00  0.00    -0.336 N 
HETATM   17  C   UNL     1      39.264 -14.948   1.866  1.00  0.00     0.255 C 
HETATM   18  H   UNL     1      39.510 -16.830   2.453  1.00  0.00     0.164 HD
HETATM   19  O   UNL     1      38.048 -15.043   1.764  1.00  0.00    -0.268 OA
HETATM   20  C   UNL     1      39.972 -13.668   1.670  1.00  0.00     0.053 A 
HETATM   21  C   UNL     1      41.370 -13.687   1.748  1.00  0.00     0.026 A 
HETATM   22  C   UNL     1      39.278 -12.498   1.354  1.00  0.00     0.019 A 
HETATM   23  N   UNL     1      42.078 -14.893   1.977  1.00  0.00    -0.266 NA
HETATM   24  C   UNL     1      42.075 -12.528   1.417  1.00  0.00     0.024 A 
HETATM   25  H   UNL     1      42.207 -15.325   1.061  1.00  0.00     0.130 HD
HETATM   26  C   UNL     1      41.389 -11.352   1.097  1.00  0.00     0.002 A 
HETATM   27  C   UNL     1      39.993 -11.335   1.074  1.00  0.00     0.001 A 
ENDBRANCH   8  15
TORSDOF 1
ENDMDL
