MODEL 1
REMARK VINA RESULT:      -8.0      0.000      0.000
REMARK  7 active torsions:
REMARK  status: ('A' for Active; 'I' for Inactive)
REMARK    1  A    between atoms: C_2  and  N_3 
REMARK    2  A    between atoms: C_8  and  C_9 
REMARK    3  A    between atoms: C_9  and  N_10 
REMARK       I    between atoms: N_10  and  C_11 
REMARK       I    between atoms: C_11  and  N_12 
REMARK    4  A    between atoms: N_12  and  C_13 
REMARK    5  A    between atoms: C_14  and  O_15 
REMARK    6  A    between atoms: C_18  and  O_19 
REMARK    7  A    between atoms: C_26  and  N_27 
ROOT
HETATM    1  C   UNL     1      41.098 -12.517   2.731  1.00  0.00     0.118 C 
HETATM    2  C   UNL     1      40.251 -11.295   3.079  1.00  0.00     0.037 C 
ENDROOT
BRANCH   1   3
HETATM    3  C   UNL     1      41.253 -12.673   1.215  1.00  0.00     0.006 A 
HETATM    4  C   UNL     1      41.468 -11.543   0.302  1.00  0.00    -0.031 A 
HETATM    5  C   UNL     1      41.633 -11.946  -1.007  1.00  0.00     0.017 A 
HETATM    6  C   UNL     1      41.570 -10.078   0.649  1.00  0.00     0.068 C 
HETATM    7  C   UNL     1      41.871 -11.051  -2.177  1.00  0.00     0.281 C 
HETATM    8  S   UNL     1      41.530 -13.616  -1.185  1.00  0.00    -0.074 SA
HETATM    9  N   UNL     1      42.360  -9.677  -1.736  1.00  0.00    -0.067 N 
HETATM   10  H   UNL     1      42.192  -9.043  -2.527  1.00  0.00     0.280 HD
HETATM   11  C   UNL     1      41.498  -9.164  -0.589  1.00  0.00     0.240 C 
HETATM   12  C   UNL     1      41.229 -13.865   0.481  1.00  0.00     0.089 A 
BRANCH   9  13
HETATM   13  C   UNL     1      43.842  -9.621  -1.432  1.00  0.00     0.231 C 
HETATM   14  C   UNL     1      44.263  -8.197  -1.115  1.00  0.00     0.034 C 
ENDBRANCH   9  13
BRANCH  12  15
HETATM   15  N   UNL     1      40.989 -15.208   0.877  1.00  0.00    -0.327 N 
HETATM   16  C   UNL     1      41.634 -16.347   0.400  1.00  0.00     0.097 A 
HETATM   17  C   UNL     1      41.148 -17.471   1.029  1.00  0.00     0.019 A 
HETATM   18  C   UNL     1      40.149 -17.042   1.913  1.00  0.00     0.019 A 
HETATM   19  C   UNL     1      40.057 -15.673   1.789  1.00  0.00     0.097 A 
ENDBRANCH  12  15
ENDBRANCH   1   3
BRANCH   1  20
HETATM   20  N   UNL     1      42.429 -12.627   3.332  1.00  0.00    -0.334 N 
HETATM   21  C   UNL     1      43.189 -13.715   3.650  1.00  0.00     0.321 C 
HETATM   22  N   UNL     1      42.508 -14.787   4.159  1.00  0.00    -0.306 N 
HETATM   23  O   UNL     1      44.408 -13.585   3.615  1.00  0.00    -0.247 OA
HETATM   24  H   UNL     1      41.696 -14.517   4.680  1.00  0.00     0.171 HD
HETATM   25  H   UNL     1      43.059 -11.894   3.024  1.00  0.00     0.165 HD
BRANCH  22  26
HETATM   26  C   UNL     1      43.144 -15.968   4.606  1.00  0.00     0.071 A 
HETATM   27  C   UNL     1      43.581 -16.159   5.929  1.00  0.00     0.097 A 
HETATM   28  C   UNL     1      44.165 -17.386   6.288  1.00  0.00     0.077 A 
HETATM   29  C   UNL     1      44.354 -18.400   5.338  1.00  0.00     0.092 A 
HETATM   30  C   UNL     1      43.956 -18.170   4.015  1.00  0.00     0.069 A 
HETATM   31 CL   UNL     1      44.153 -19.368   2.782  1.00  0.00    -0.081 Cl
HETATM   32  C   UNL     1      43.375 -16.957   3.646  1.00  0.00     0.059 A 
BRANCH  27  33
HETATM   33  O   UNL     1      43.463 -15.085   6.774  1.00  0.00    -0.354 OA
HETATM   34  C   UNL     1      44.647 -14.375   7.108  1.00  0.00     0.210 C 
ENDBRANCH  27  33
BRANCH  29  35
HETATM   35  O   UNL     1      44.903 -19.626   5.605  1.00  0.00    -0.354 OA
HETATM   36  C   UNL     1      44.085 -20.593   6.250  1.00  0.00     0.210 C 
ENDBRANCH  29  35
ENDBRANCH  22  26
ENDBRANCH   1  20
TORSDOF 7
ENDMDL
MODEL 2
REMARK VINA RESULT:      -7.8      2.634      4.229
REMARK  7 active torsions:
REMARK  status: ('A' for Active; 'I' for Inactive)
REMARK    1  A    between atoms: C_2  and  N_3 
REMARK    2  A    between atoms: C_8  and  C_9 
REMARK    3  A    between atoms: C_9  and  N_10 
REMARK       I    between atoms: N_10  and  C_11 
REMARK       I    between atoms: C_11  and  N_12 
REMARK    4  A    between atoms: N_12  and  C_13 
REMARK    5  A    between atoms: C_14  and  O_15 
REMARK    6  A    between atoms: C_18  and  O_19 
REMARK    7  A    between atoms: C_26  and  N_27 
ROOT
HETATM    1  C   UNL     1      40.550 -15.240   1.518  1.00  0.00     0.118 C 
HETATM    2  C   UNL     1      39.422 -15.335   2.543  1.00  0.00     0.037 C 
ENDROOT
BRANCH   1   3
HETATM    3  C   UNL     1      40.310 -14.092   0.532  1.00  0.00     0.006 A 
HETATM    4  C   UNL     1      40.436 -14.234  -0.924  1.00  0.00    -0.031 A 
HETATM    5  C   UNL     1      40.116 -13.074  -1.597  1.00  0.00     0.017 A 
HETATM    6  C   UNL     1      40.810 -15.470  -1.705  1.00  0.00     0.068 C 
HETATM    7  C   UNL     1      40.139 -12.883  -3.077  1.00  0.00     0.281 C 
HETATM    8  S   UNL     1      39.684 -11.823  -0.558  1.00  0.00    -0.074 SA
HETATM    9  N   UNL     1      40.119 -14.219  -3.810  1.00  0.00    -0.067 N 
HETATM   10  H   UNL     1      40.455 -14.031  -4.762  1.00  0.00     0.280 HD
HETATM   11  C   UNL     1      41.130 -15.169  -3.182  1.00  0.00     0.240 C 
HETATM   12  C   UNL     1      39.938 -12.778   0.840  1.00  0.00     0.089 A 
BRANCH   9  13
HETATM   13  C   UNL     1      38.738 -14.826  -3.941  1.00  0.00     0.231 C 
HETATM   14  C   UNL     1      38.835 -16.252  -4.456  1.00  0.00     0.034 C 
ENDBRANCH   9  13
BRANCH  12  15
HETATM   15  N   UNL     1      39.755 -12.119   2.085  1.00  0.00    -0.327 N 
HETATM   16  C   UNL     1      38.547 -11.699   2.639  1.00  0.00     0.097 A 
HETATM   17  C   UNL     1      38.761 -11.115   3.867  1.00  0.00     0.019 A 
HETATM   18  C   UNL     1      40.144 -11.141   4.095  1.00  0.00     0.019 A 
HETATM   19  C   UNL     1      40.725 -11.735   2.996  1.00  0.00     0.097 A 
ENDBRANCH  12  15
ENDBRANCH   1   3
BRANCH   1  20
HETATM   20  N   UNL     1      41.923 -15.126   2.013  1.00  0.00    -0.334 N 
HETATM   21  C   UNL     1      42.850 -16.077   2.331  1.00  0.00     0.321 C 
HETATM   22  N   UNL     1      42.365 -17.193   2.955  1.00  0.00    -0.306 N 
HETATM   23  O   UNL     1      44.033 -15.786   2.189  1.00  0.00    -0.247 OA
HETATM   24  H   UNL     1      41.564 -17.001   3.524  1.00  0.00     0.171 HD
HETATM   25  H   UNL     1      42.420 -14.338   1.612  1.00  0.00     0.165 HD
BRANCH  22  26
HETATM   26  C   UNL     1      43.192 -18.244   3.417  1.00  0.00     0.071 A 
HETATM   27  C   UNL     1      43.808 -18.246   4.681  1.00  0.00     0.097 A 
HETATM   28  C   UNL     1      44.577 -19.357   5.067  1.00  0.00     0.077 A 
HETATM   29  C   UNL     1      44.773 -20.437   4.195  1.00  0.00     0.092 A 
HETATM   30  C   UNL     1      44.191 -20.391   2.921  1.00  0.00     0.069 A 
HETATM   31 CL   UNL     1      44.382 -21.683   1.785  1.00  0.00    -0.081 Cl
HETATM   32  C   UNL     1      43.424 -19.296   2.526  1.00  0.00     0.059 A 
BRANCH  27  33
HETATM   33  O   UNL     1      43.661 -17.110   5.435  1.00  0.00    -0.354 OA
HETATM   34  C   UNL     1      44.404 -17.020   6.643  1.00  0.00     0.210 C 
ENDBRANCH  27  33
BRANCH  29  35
HETATM   35  O   UNL     1      45.497 -21.561   4.494  1.00  0.00    -0.354 OA
HETATM   36  C   UNL     1      44.950 -22.471   5.439  1.00  0.00     0.210 C 
ENDBRANCH  29  35
ENDBRANCH  22  26
ENDBRANCH   1  20
TORSDOF 7
ENDMDL
MODEL 3
REMARK VINA RESULT:      -7.6      2.664      4.538
REMARK  7 active torsions:
REMARK  status: ('A' for Active; 'I' for Inactive)
REMARK    1  A    between atoms: C_2  and  N_3 
REMARK    2  A    between atoms: C_8  and  C_9 
REMARK    3  A    between atoms: C_9  and  N_10 
REMARK       I    between atoms: N_10  and  C_11 
REMARK       I    between atoms: C_11  and  N_12 
REMARK    4  A    between atoms: N_12  and  C_13 
REMARK    5  A    between atoms: C_14  and  O_15 
REMARK    6  A    between atoms: C_18  and  O_19 
REMARK    7  A    between atoms: C_26  and  N_27 
ROOT
HETATM    1  C   UNL     1      41.446 -14.450   0.293  1.00  0.00     0.118 C 
HETATM    2  C   UNL     1      41.798 -13.851  -1.067  1.00  0.00     0.037 C 
ENDROOT
BRANCH   1   3
HETATM    3  C   UNL     1      40.375 -13.620   1.007  1.00  0.00     0.006 A 
HETATM    4  C   UNL     1      40.404 -13.323   2.445  1.00  0.00    -0.031 A 
HETATM    5  C   UNL     1      39.360 -12.512   2.837  1.00  0.00     0.017 A 
HETATM    6  C   UNL     1      41.435 -13.753   3.459  1.00  0.00     0.068 C 
HETATM    7  C   UNL     1      39.101 -12.024   4.223  1.00  0.00     0.281 C 
HETATM    8  S   UNL     1      38.344 -12.105   1.559  1.00  0.00    -0.074 SA
HETATM    9  N   UNL     1      40.346 -12.138   5.094  1.00  0.00    -0.067 N 
HETATM   10  H   UNL     1      40.021 -12.099   6.068  1.00  0.00     0.280 HD
HETATM   11  C   UNL     1      40.983 -13.509   4.911  1.00  0.00     0.240 C 
HETATM   12  C   UNL     1      39.246 -13.024   0.432  1.00  0.00     0.089 A 
BRANCH   9  13
HETATM   13  C   UNL     1      41.327 -10.999   4.912  1.00  0.00     0.231 C 
HETATM   14  C   UNL     1      40.598  -9.667   4.919  1.00  0.00     0.034 C 
ENDBRANCH   9  13
BRANCH  12  15
HETATM   15  N   UNL     1      38.732 -13.066  -0.892  1.00  0.00    -0.327 N 
HETATM   16  C   UNL     1      38.706 -12.019  -1.811  1.00  0.00     0.097 A 
HETATM   17  C   UNL     1      38.148 -12.438  -2.998  1.00  0.00     0.019 A 
HETATM   18  C   UNL     1      37.785 -13.781  -2.824  1.00  0.00     0.019 A 
HETATM   19  C   UNL     1      38.130 -14.132  -1.538  1.00  0.00     0.097 A 
ENDBRANCH  12  15
ENDBRANCH   1   3
BRANCH   1  20
HETATM   20  N   UNL     1      41.032 -15.854   0.342  1.00  0.00    -0.334 N 
HETATM   21  C   UNL     1      41.389 -16.873   1.177  1.00  0.00     0.321 C 
HETATM   22  N   UNL     1      42.706 -16.906   1.545  1.00  0.00    -0.306 N 
HETATM   23  O   UNL     1      40.559 -17.752   1.387  1.00  0.00    -0.247 OA
HETATM   24  H   UNL     1      43.314 -16.542   0.837  1.00  0.00     0.171 HD
HETATM   25  H   UNL     1      40.053 -15.981   0.106  1.00  0.00     0.165 HD
BRANCH  22  26
HETATM   26  C   UNL     1      43.262 -17.929   2.347  1.00  0.00     0.071 A 
HETATM   27  C   UNL     1      43.597 -17.755   3.702  1.00  0.00     0.097 A 
HETATM   28  C   UNL     1      44.105 -18.845   4.428  1.00  0.00     0.077 A 
HETATM   29  C   UNL     1      44.320 -20.086   3.810  1.00  0.00     0.092 A 
HETATM   30  C   UNL     1      44.026 -20.223   2.447  1.00  0.00     0.069 A 
HETATM   31 CL   UNL     1      44.263 -21.718   1.610  1.00  0.00    -0.081 Cl
HETATM   32  C   UNL     1      43.521 -19.149   1.716  1.00  0.00     0.059 A 
BRANCH  27  33
HETATM   33  O   UNL     1      43.461 -16.488   4.208  1.00  0.00    -0.354 OA
HETATM   34  C   UNL     1      43.542 -16.329   5.618  1.00  0.00     0.210 C 
ENDBRANCH  27  33
BRANCH  29  35
HETATM   35  O   UNL     1      44.801 -21.201   4.445  1.00  0.00    -0.354 OA
HETATM   36  C   UNL     1      44.422 -21.408   5.799  1.00  0.00     0.210 C 
ENDBRANCH  29  35
ENDBRANCH  22  26
ENDBRANCH   1  20
TORSDOF 7
ENDMDL
MODEL 4
REMARK VINA RESULT:      -7.5      2.897      5.036
REMARK  7 active torsions:
REMARK  status: ('A' for Active; 'I' for Inactive)
REMARK    1  A    between atoms: C_2  and  N_3 
REMARK    2  A    between atoms: C_8  and  C_9 
REMARK    3  A    between atoms: C_9  and  N_10 
REMARK       I    between atoms: N_10  and  C_11 
REMARK       I    between atoms: C_11  and  N_12 
REMARK    4  A    between atoms: N_12  and  C_13 
REMARK    5  A    between atoms: C_14  and  O_15 
REMARK    6  A    between atoms: C_18  and  O_19 
REMARK    7  A    between atoms: C_26  and  N_27 
ROOT
HETATM    1  C   UNL     1      40.064 -13.181   5.864  1.00  0.00     0.118 C 
HETATM    2  C   UNL     1      39.209 -12.500   6.931  1.00  0.00     0.037 C 
ENDROOT
BRANCH   1   3
HETATM    3  C   UNL     1      40.017 -12.413   4.539  1.00  0.00     0.006 A 
HETATM    4  C   UNL     1      39.847 -13.061   3.233  1.00  0.00    -0.031 A 
HETATM    5  C   UNL     1      39.780 -12.151   2.198  1.00  0.00     0.017 A 
HETATM    6  C   UNL     1      39.696 -14.533   2.941  1.00  0.00     0.068 C 
HETATM    7  C   UNL     1      39.608 -12.478   0.752  1.00  0.00     0.281 C 
HETATM    8  S   UNL     1      39.925 -10.560   2.726  1.00  0.00    -0.074 SA
HETATM    9  N   UNL     1      39.066 -13.890   0.562  1.00  0.00    -0.067 N 
HETATM   10  H   UNL     1      39.277 -14.152  -0.409  1.00  0.00     0.280 HD
HETATM   11  C   UNL     1      39.837 -14.864   1.443  1.00  0.00     0.240 C 
HETATM   12  C   UNL     1      40.113 -11.027   4.362  1.00  0.00     0.089 A 
BRANCH   9  13
HETATM   13  C   UNL     1      37.566 -13.998   0.732  1.00  0.00     0.231 C 
HETATM   14  C   UNL     1      36.906 -12.658   0.459  1.00  0.00     0.034 C 
ENDBRANCH   9  13
BRANCH  12  15
HETATM   15  N   UNL     1      40.349  -9.975   5.287  1.00  0.00    -0.327 N 
HETATM   16  C   UNL     1      41.526  -9.731   5.992  1.00  0.00     0.097 A 
HETATM   17  C   UNL     1      41.388  -8.612   6.781  1.00  0.00     0.019 A 
HETATM   18  C   UNL     1      40.080  -8.142   6.595  1.00  0.00     0.019 A 
HETATM   19  C   UNL     1      39.466  -8.993   5.704  1.00  0.00     0.097 A 
ENDBRANCH  12  15
ENDBRANCH   1   3
BRANCH   1  20
HETATM   20  N   UNL     1      41.469 -13.450   6.176  1.00  0.00    -0.334 N 
HETATM   21  C   UNL     1      42.319 -14.427   5.743  1.00  0.00     0.321 C 
HETATM   22  N   UNL     1      41.769 -15.671   5.597  1.00  0.00    -0.306 N 
HETATM   23  O   UNL     1      43.514 -14.155   5.685  1.00  0.00    -0.247 OA
HETATM   24  H   UNL     1      41.025 -15.843   6.245  1.00  0.00     0.171 HD
HETATM   25  H   UNL     1      42.014 -12.603   6.294  1.00  0.00     0.165 HD
BRANCH  22  26
HETATM   26  C   UNL     1      42.519 -16.811   5.226  1.00  0.00     0.071 A 
HETATM   27  C   UNL     1      42.840 -17.850   6.118  1.00  0.00     0.097 A 
HETATM   28  C   UNL     1      43.553 -18.965   5.643  1.00  0.00     0.077 A 
HETATM   29  C   UNL     1      43.982 -19.032   4.310  1.00  0.00     0.092 A 
HETATM   30  C   UNL     1      43.693 -17.963   3.452  1.00  0.00     0.069 A 
HETATM   31 CL   UNL     1      44.186 -17.968   1.793  1.00  0.00    -0.081 Cl
HETATM   32  C   UNL     1      42.986 -16.853   3.909  1.00  0.00     0.059 A 
BRANCH  27  33
HETATM   33  O   UNL     1      42.483 -17.665   7.428  1.00  0.00    -0.354 OA
HETATM   34  C   UNL     1      43.488 -17.224   8.330  1.00  0.00     0.210 C 
ENDBRANCH  27  33
BRANCH  29  35
HETATM   35  O   UNL     1      44.671 -20.083   3.764  1.00  0.00    -0.354 OA
HETATM   36  C   UNL     1      44.989 -21.179   4.611  1.00  0.00     0.210 C 
ENDBRANCH  29  35
ENDBRANCH  22  26
ENDBRANCH   1  20
TORSDOF 7
ENDMDL
MODEL 5
REMARK VINA RESULT:      -7.3      3.998      7.733
REMARK  7 active torsions:
REMARK  status: ('A' for Active; 'I' for Inactive)
REMARK    1  A    between atoms: C_2  and  N_3 
REMARK    2  A    between atoms: C_8  and  C_9 
REMARK    3  A    between atoms: C_9  and  N_10 
REMARK       I    between atoms: N_10  and  C_11 
REMARK       I    between atoms: C_11  and  N_12 
REMARK    4  A    between atoms: N_12  and  C_13 
REMARK    5  A    between atoms: C_14  and  O_15 
REMARK    6  A    between atoms: C_18  and  O_19 
REMARK    7  A    between atoms: C_26  and  N_27 
ROOT
HETATM    1  C   UNL     1      43.478 -18.033   2.562  1.00  0.00     0.118 C 
HETATM    2  C   UNL     1      44.360 -17.255   1.588  1.00  0.00     0.037 C 
ENDROOT
BRANCH   1   3
HETATM    3  C   UNL     1      43.669 -17.542   4.000  1.00  0.00     0.006 A 
HETATM    4  C   UNL     1      43.531 -16.136   4.401  1.00  0.00    -0.031 A 
HETATM    5  C   UNL     1      43.695 -15.956   5.759  1.00  0.00     0.017 A 
HETATM    6  C   UNL     1      43.196 -14.952   3.528  1.00  0.00     0.068 C 
HETATM    7  C   UNL     1      43.616 -14.656   6.487  1.00  0.00     0.281 C 
HETATM    8  S   UNL     1      44.019 -17.396   6.566  1.00  0.00    -0.074 SA
HETATM    9  N   UNL     1      42.895 -13.598   5.660  1.00  0.00    -0.067 N 
HETATM   10  H   UNL     1      43.157 -12.690   6.062  1.00  0.00     0.280 HD
HETATM   11  C   UNL     1      43.429 -13.603   4.234  1.00  0.00     0.240 C 
HETATM   12  C   UNL     1      43.981 -18.317   5.124  1.00  0.00     0.089 A 
BRANCH   9  13
HETATM   13  C   UNL     1      41.385 -13.692   5.727  1.00  0.00     0.231 C 
HETATM   14  C   UNL     1      40.785 -12.329   6.025  1.00  0.00     0.034 C 
ENDBRANCH   9  13
BRANCH  12  15
HETATM   15  N   UNL     1      44.278 -19.699   5.259  1.00  0.00    -0.327 N 
HETATM   16  C   UNL     1      43.894 -20.538   6.303  1.00  0.00     0.097 A 
HETATM   17  C   UNL     1      44.350 -21.818   6.083  1.00  0.00     0.019 A 
HETATM   18  C   UNL     1      45.067 -21.792   4.878  1.00  0.00     0.019 A 
HETATM   19  C   UNL     1      45.026 -20.497   4.409  1.00  0.00     0.097 A 
ENDBRANCH  12  15
ENDBRANCH   1   3
BRANCH   1  20
HETATM   20  N   UNL     1      42.040 -18.090   2.295  1.00  0.00    -0.334 N 
HETATM   21  C   UNL     1      41.268 -17.450   1.368  1.00  0.00     0.321 C 
HETATM   22  N   UNL     1      41.599 -16.148   1.116  1.00  0.00    -0.306 N 
HETATM   23  O   UNL     1      40.260 -18.028   0.972  1.00  0.00    -0.247 OA
HETATM   24  H   UNL     1      41.986 -15.685   1.915  1.00  0.00     0.171 HD
HETATM   25  H   UNL     1      41.653 -19.018   2.425  1.00  0.00     0.165 HD
BRANCH  22  26
HETATM   26  C   UNL     1      40.865 -15.316   0.238  1.00  0.00     0.071 A 
HETATM   27  C   UNL     1      39.748 -14.562   0.640  1.00  0.00     0.097 A 
HETATM   28  C   UNL     1      39.109 -13.731  -0.296  1.00  0.00     0.077 A 
HETATM   29  C   UNL     1      39.543 -13.679  -1.629  1.00  0.00     0.092 A 
HETATM   30  C   UNL     1      40.626 -14.477  -2.019  1.00  0.00     0.069 A 
HETATM   31 CL   UNL     1      41.224 -14.471  -3.643  1.00  0.00    -0.081 Cl
HETATM   32  C   UNL     1      41.270 -15.304  -1.100  1.00  0.00     0.059 A 
BRANCH  27  33
HETATM   33  O   UNL     1      39.316 -14.746   1.928  1.00  0.00    -0.354 OA
HETATM   34  C   UNL     1      39.412 -13.644   2.820  1.00  0.00     0.210 C 
ENDBRANCH  27  33
BRANCH  29  35
HETATM   35  O   UNL     1      38.985 -12.891  -2.601  1.00  0.00    -0.354 OA
HETATM   36  C   UNL     1      37.568 -12.875  -2.711  1.00  0.00     0.210 C 
ENDBRANCH  29  35
ENDBRANCH  22  26
ENDBRANCH   1  20
TORSDOF 7
ENDMDL
MODEL 6
REMARK VINA RESULT:      -7.2      2.994      5.460
REMARK  7 active torsions:
REMARK  status: ('A' for Active; 'I' for Inactive)
REMARK    1  A    between atoms: C_2  and  N_3 
REMARK    2  A    between atoms: C_8  and  C_9 
REMARK    3  A    between atoms: C_9  and  N_10 
REMARK       I    between atoms: N_10  and  C_11 
REMARK       I    between atoms: C_11  and  N_12 
REMARK    4  A    between atoms: N_12  and  C_13 
REMARK    5  A    between atoms: C_14  and  O_15 
REMARK    6  A    between atoms: C_18  and  O_19 
REMARK    7  A    between atoms: C_26  and  N_27 
ROOT
HETATM    1  C   UNL     1      42.745 -13.752   6.365  1.00  0.00     0.118 C 
HETATM    2  C   UNL     1      44.213 -13.846   5.956  1.00  0.00     0.037 C 
ENDROOT
BRANCH   1   3
HETATM    3  C   UNL     1      42.040 -12.595   5.648  1.00  0.00     0.006 A 
HETATM    4  C   UNL     1      41.841 -12.544   4.194  1.00  0.00    -0.031 A 
HETATM    5  C   UNL     1      41.132 -11.429   3.799  1.00  0.00     0.017 A 
HETATM    6  C   UNL     1      42.267 -13.561   3.164  1.00  0.00     0.068 C 
HETATM    7  C   UNL     1      40.758 -11.079   2.397  1.00  0.00     0.281 C 
HETATM    8  S   UNL     1      40.710 -10.440   5.093  1.00  0.00    -0.074 SA
HETATM    9  N   UNL     1      40.845 -12.293   1.479  1.00  0.00    -0.067 N 
HETATM   10  H   UNL     1      40.895 -11.926   0.521  1.00  0.00     0.280 HD
HETATM   11  C   UNL     1      42.153 -13.033   1.721  1.00  0.00     0.240 C 
HETATM   12  C   UNL     1      41.486 -11.451   6.235  1.00  0.00     0.089 A 
BRANCH   9  13
HETATM   13  C   UNL     1      39.632 -13.197   1.543  1.00  0.00     0.231 C 
HETATM   14  C   UNL     1      39.726 -14.282   0.485  1.00  0.00     0.034 C 
ENDBRANCH   9  13
BRANCH  12  15
HETATM   15  N   UNL     1      41.473 -10.996   7.580  1.00  0.00    -0.327 N 
HETATM   16  C   UNL     1      40.351 -10.683   8.346  1.00  0.00     0.097 A 
HETATM   17  C   UNL     1      40.729 -10.293   9.611  1.00  0.00     0.019 A 
HETATM   18  C   UNL     1      42.130 -10.334   9.648  1.00  0.00     0.019 A 
HETATM   19  C   UNL     1      42.557 -10.742   8.404  1.00  0.00     0.097 A 
ENDBRANCH  12  15
ENDBRANCH   1   3
BRANCH   1  20
HETATM   20  N   UNL     1      41.910 -14.946   6.215  1.00  0.00    -0.334 N 
HETATM   21  C   UNL     1      42.237 -16.262   6.052  1.00  0.00     0.321 C 
HETATM   22  N   UNL     1      43.316 -16.510   5.249  1.00  0.00    -0.306 N 
HETATM   23  O   UNL     1      41.455 -17.099   6.489  1.00  0.00    -0.247 OA
HETATM   24  H   UNL     1      43.424 -15.828   4.524  1.00  0.00     0.171 HD
HETATM   25  H   UNL     1      41.069 -14.909   6.780  1.00  0.00     0.165 HD
BRANCH  22  26
HETATM   26  C   UNL     1      43.750 -17.814   4.916  1.00  0.00     0.071 A 
HETATM   27  C   UNL     1      44.479 -18.636   5.795  1.00  0.00     0.097 A 
HETATM   28  C   UNL     1      44.829 -19.934   5.388  1.00  0.00     0.077 A 
HETATM   29  C   UNL     1      44.499 -20.402   4.108  1.00  0.00     0.092 A 
HETATM   30  C   UNL     1      43.816 -19.550   3.231  1.00  0.00     0.069 A 
HETATM   31 CL   UNL     1      43.372 -20.050   1.635  1.00  0.00    -0.081 Cl
HETATM   32  C   UNL     1      43.462 -18.259   3.622  1.00  0.00     0.059 A 
BRANCH  27  33
HETATM   33  O   UNL     1      44.859 -18.072   6.985  1.00  0.00    -0.354 OA
HETATM   34  C   UNL     1      44.244 -18.559   8.171  1.00  0.00     0.210 C 
ENDBRANCH  27  33
BRANCH  29  35
HETATM   35  O   UNL     1      44.792 -21.655   3.635  1.00  0.00    -0.354 OA
HETATM   36  C   UNL     1      44.731 -22.740   4.551  1.00  0.00     0.210 C 
ENDBRANCH  29  35
ENDBRANCH  22  26
ENDBRANCH   1  20
TORSDOF 7
ENDMDL
MODEL 7
REMARK VINA RESULT:      -7.2      3.084      3.951
REMARK  7 active torsions:
REMARK  status: ('A' for Active; 'I' for Inactive)
REMARK    1  A    between atoms: C_2  and  N_3 
REMARK    2  A    between atoms: C_8  and  C_9 
REMARK    3  A    between atoms: C_9  and  N_10 
REMARK       I    between atoms: N_10  and  C_11 
REMARK       I    between atoms: C_11  and  N_12 
REMARK    4  A    between atoms: N_12  and  C_13 
REMARK    5  A    between atoms: C_14  and  O_15 
REMARK    6  A    between atoms: C_18  and  O_19 
REMARK    7  A    between atoms: C_26  and  N_27 
ROOT
HETATM    1  C   UNL     1      41.540 -13.818   5.499  1.00  0.00     0.118 C 
HETATM    2  C   UNL     1      43.065 -13.727   5.506  1.00  0.00     0.037 C 
ENDROOT
BRANCH   1   3
HETATM    3  C   UNL     1      40.934 -12.913   4.423  1.00  0.00     0.006 A 
HETATM    4  C   UNL     1      40.421 -11.563   4.693  1.00  0.00    -0.031 A 
HETATM    5  C   UNL     1      39.978 -10.930   3.551  1.00  0.00     0.017 A 
HETATM    6  C   UNL     1      40.386 -10.833   6.012  1.00  0.00     0.068 C 
HETATM    7  C   UNL     1      39.402  -9.555   3.478  1.00  0.00     0.281 C 
HETATM    8  S   UNL     1      40.139 -11.888   2.177  1.00  0.00    -0.074 SA
HETATM    9  N   UNL     1      39.757  -8.737   4.714  1.00  0.00    -0.067 N 
HETATM   10  H   UNL     1      39.087  -7.959   4.748  1.00  0.00     0.280 HD
HETATM   11  C   UNL     1      39.513  -9.564   5.970  1.00  0.00     0.240 C 
HETATM   12  C   UNL     1      40.783 -13.204   3.062  1.00  0.00     0.089 A 
BRANCH   9  13
HETATM   13  C   UNL     1      41.141  -8.126   4.668  1.00  0.00     0.231 C 
HETATM   14  C   UNL     1      41.386  -7.280   5.906  1.00  0.00     0.034 C 
ENDBRANCH   9  13
BRANCH  12  15
HETATM   15  N   UNL     1      41.054 -14.382   2.316  1.00  0.00    -0.327 N 
HETATM   16  C   UNL     1      42.259 -14.726   1.706  1.00  0.00     0.097 A 
HETATM   17  C   UNL     1      42.151 -15.951   1.089  1.00  0.00     0.019 A 
HETATM   18  C   UNL     1      40.835 -16.392   1.288  1.00  0.00     0.019 A 
HETATM   19  C   UNL     1      40.186 -15.418   2.015  1.00  0.00     0.097 A 
ENDBRANCH  12  15
ENDBRANCH   1   3
BRANCH   1  20
HETATM   20  N   UNL     1      40.930 -15.142   5.368  1.00  0.00    -0.334 N 
HETATM   21  C   UNL     1      41.473 -16.394   5.399  1.00  0.00     0.321 C 
HETATM   22  N   UNL     1      42.689 -16.530   4.787  1.00  0.00    -0.306 N 
HETATM   23  O   UNL     1      40.768 -17.309   5.813  1.00  0.00    -0.247 OA
HETATM   24  H   UNL     1      42.804 -15.904   4.014  1.00  0.00     0.171 HD
HETATM   25  H   UNL     1      40.015 -15.196   5.802  1.00  0.00     0.165 HD
BRANCH  22  26
HETATM   26  C   UNL     1      43.362 -17.767   4.665  1.00  0.00     0.071 A 
HETATM   27  C   UNL     1      44.162 -18.317   5.683  1.00  0.00     0.097 A 
HETATM   28  C   UNL     1      44.757 -19.575   5.484  1.00  0.00     0.077 A 
HETATM   29  C   UNL     1      44.597 -20.264   4.273  1.00  0.00     0.092 A 
HETATM   30  C   UNL     1      43.836 -19.675   3.254  1.00  0.00     0.069 A 
HETATM   31 CL   UNL     1      43.590 -20.459   1.731  1.00  0.00    -0.081 Cl
HETATM   32  C   UNL     1      43.240 -18.428   3.440  1.00  0.00     0.059 A 
BRANCH  27  33
HETATM   33  O   UNL     1      44.361 -17.539   6.794  1.00  0.00    -0.354 OA
HETATM   34  C   UNL     1      43.981 -18.077   8.053  1.00  0.00     0.210 C 
ENDBRANCH  27  33
BRANCH  29  35
HETATM   35  O   UNL     1      45.131 -21.496   4.000  1.00  0.00    -0.354 OA
HETATM   36  C   UNL     1      44.746 -22.585   4.829  1.00  0.00     0.210 C 
ENDBRANCH  29  35
ENDBRANCH  22  26
ENDBRANCH   1  20
TORSDOF 7
ENDMDL
MODEL 8
REMARK VINA RESULT:      -7.1      2.570      3.786
REMARK  7 active torsions:
REMARK  status: ('A' for Active; 'I' for Inactive)
REMARK    1  A    between atoms: C_2  and  N_3 
REMARK    2  A    between atoms: C_8  and  C_9 
REMARK    3  A    between atoms: C_9  and  N_10 
REMARK       I    between atoms: N_10  and  C_11 
REMARK       I    between atoms: C_11  and  N_12 
REMARK    4  A    between atoms: N_12  and  C_13 
REMARK    5  A    between atoms: C_14  and  O_15 
REMARK    6  A    between atoms: C_18  and  O_19 
REMARK    7  A    between atoms: C_26  and  N_27 
ROOT
HETATM    1  C   UNL     1      40.576 -15.115   1.410  1.00  0.00     0.118 C 
HETATM    2  C   UNL     1      39.463 -15.889   2.114  1.00  0.00     0.037 C 
ENDROOT
BRANCH   1   3
HETATM    3  C   UNL     1      40.115 -13.707   1.022  1.00  0.00     0.006 A 
HETATM    4  C   UNL     1      39.717 -12.686   1.999  1.00  0.00    -0.031 A 
HETATM    5  C   UNL     1      39.397 -11.483   1.405  1.00  0.00     0.017 A 
HETATM    6  C   UNL     1      39.678 -12.808   3.503  1.00  0.00     0.068 C 
HETATM    7  C   UNL     1      38.956 -10.245   2.112  1.00  0.00     0.281 C 
HETATM    8  S   UNL     1      39.542 -11.533  -0.271  1.00  0.00    -0.074 SA
HETATM    9  N   UNL     1      39.318 -10.291   3.592  1.00  0.00    -0.067 N 
HETATM   10  H   UNL     1      38.723  -9.595   4.056  1.00  0.00     0.280 HD
HETATM   11  C   UNL     1      38.930 -11.642   4.178  1.00  0.00     0.240 C 
HETATM   12  C   UNL     1      40.012 -13.179  -0.271  1.00  0.00     0.089 A 
BRANCH   9  13
HETATM   13  C   UNL     1      40.754  -9.909   3.884  1.00  0.00     0.231 C 
HETATM   14  C   UNL     1      40.996  -9.872   5.383  1.00  0.00     0.034 C 
ENDBRANCH   9  13
BRANCH  12  15
HETATM   15  N   UNL     1      40.212 -13.769  -1.547  1.00  0.00    -0.327 N 
HETATM   16  C   UNL     1      41.402 -13.810  -2.271  1.00  0.00     0.097 A 
HETATM   17  C   UNL     1      41.217 -14.482  -3.458  1.00  0.00     0.019 A 
HETATM   18  C   UNL     1      39.868 -14.860  -3.505  1.00  0.00     0.019 A 
HETATM   19  C   UNL     1      39.277 -14.401  -2.349  1.00  0.00     0.097 A 
ENDBRANCH  12  15
ENDBRANCH   1   3
BRANCH   1  20
HETATM   20  N   UNL     1      41.866 -14.992   2.092  1.00  0.00    -0.334 N 
HETATM   21  C   UNL     1      42.794 -15.930   2.445  1.00  0.00     0.321 C 
HETATM   22  N   UNL     1      42.293 -17.119   2.899  1.00  0.00    -0.306 N 
HETATM   23  O   UNL     1      43.968 -15.579   2.488  1.00  0.00    -0.247 OA
HETATM   24  H   UNL     1      41.416 -17.014   3.371  1.00  0.00     0.171 HD
HETATM   25  H   UNL     1      42.368 -14.150   1.831  1.00  0.00     0.165 HD
BRANCH  22  26
HETATM   26  C   UNL     1      43.108 -18.174   3.372  1.00  0.00     0.071 A 
HETATM   27  C   UNL     1      43.679 -18.194   4.657  1.00  0.00     0.097 A 
HETATM   28  C   UNL     1      44.440 -19.307   5.052  1.00  0.00     0.077 A 
HETATM   29  C   UNL     1      44.671 -20.372   4.170  1.00  0.00     0.092 A 
HETATM   30  C   UNL     1      44.133 -20.309   2.877  1.00  0.00     0.069 A 
HETATM   31 CL   UNL     1      44.371 -21.580   1.728  1.00  0.00    -0.081 Cl
HETATM   32  C   UNL     1      43.375 -19.210   2.474  1.00  0.00     0.059 A 
BRANCH  27  33
HETATM   33  O   UNL     1      43.501 -17.071   5.424  1.00  0.00    -0.354 OA
HETATM   34  C   UNL     1      44.304 -16.933   6.588  1.00  0.00     0.210 C 
ENDBRANCH  27  33
BRANCH  29  35
HETATM   35  O   UNL     1      45.390 -21.498   4.476  1.00  0.00    -0.354 OA
HETATM   36  C   UNL     1      44.731 -22.529   5.199  1.00  0.00     0.210 C 
ENDBRANCH  29  35
ENDBRANCH  22  26
ENDBRANCH   1  20
TORSDOF 7
ENDMDL
MODEL 9
REMARK VINA RESULT:      -7.1      2.815      4.180
REMARK  7 active torsions:
REMARK  status: ('A' for Active; 'I' for Inactive)
REMARK    1  A    between atoms: C_2  and  N_3 
REMARK    2  A    between atoms: C_8  and  C_9 
REMARK    3  A    between atoms: C_9  and  N_10 
REMARK       I    between atoms: N_10  and  C_11 
REMARK       I    between atoms: C_11  and  N_12 
REMARK    4  A    between atoms: N_12  and  C_13 
REMARK    5  A    between atoms: C_14  and  O_15 
REMARK    6  A    between atoms: C_18  and  O_19 
REMARK    7  A    between atoms: C_26  and  N_27 
ROOT
HETATM    1  C   UNL     1      40.783 -15.347   1.292  1.00  0.00     0.118 C 
HETATM    2  C   UNL     1      39.933 -16.385   2.022  1.00  0.00     0.037 C 
ENDROOT
BRANCH   1   3
HETATM    3  C   UNL     1      40.378 -13.922   1.681  1.00  0.00     0.006 A 
HETATM    4  C   UNL     1      39.542 -13.059   0.837  1.00  0.00    -0.031 A 
HETATM    5  C   UNL     1      39.270 -11.844   1.432  1.00  0.00     0.017 A 
HETATM    6  C   UNL     1      38.946 -13.378  -0.512  1.00  0.00     0.068 C 
HETATM    7  C   UNL     1      38.451 -10.744   0.844  1.00  0.00     0.281 C 
HETATM    8  S   UNL     1      39.985 -11.693   2.947  1.00  0.00    -0.074 SA
HETATM    9  N   UNL     1      37.566 -11.253  -0.288  1.00  0.00    -0.067 N 
HETATM   10  H   UNL     1      37.294 -10.427  -0.835  1.00  0.00     0.280 HD
HETATM   11  C   UNL     1      38.381 -12.135  -1.225  1.00  0.00     0.240 C 
HETATM   12  C   UNL     1      40.712 -13.240   2.857  1.00  0.00     0.089 A 
BRANCH   9  13
HETATM   13  C   UNL     1      36.287 -11.912   0.183  1.00  0.00     0.231 C 
HETATM   14  C   UNL     1      35.363 -10.883   0.811  1.00  0.00     0.034 C 
ENDBRANCH   9  13
BRANCH  12  15
HETATM   15  N   UNL     1      41.544 -13.602   3.950  1.00  0.00    -0.327 N 
HETATM   16  C   UNL     1      42.897 -13.304   4.105  1.00  0.00     0.097 A 
HETATM   17  C   UNL     1      43.363 -13.803   5.300  1.00  0.00     0.019 A 
HETATM   18  C   UNL     1      42.287 -14.459   5.914  1.00  0.00     0.019 A 
HETATM   19  C   UNL     1      41.204 -14.341   5.070  1.00  0.00     0.097 A 
ENDBRANCH  12  15
ENDBRANCH   1   3
BRANCH   1  20
HETATM   20  N   UNL     1      42.240 -15.446   1.407  1.00  0.00    -0.334 N 
HETATM   21  C   UNL     1      43.053 -16.501   1.706  1.00  0.00     0.321 C 
HETATM   22  N   UNL     1      42.587 -17.355   2.668  1.00  0.00    -0.306 N 
HETATM   23  O   UNL     1      44.181 -16.503   1.224  1.00  0.00    -0.247 OA
HETATM   24  H   UNL     1      42.017 -16.895   3.351  1.00  0.00     0.171 HD
HETATM   25  H   UNL     1      42.726 -14.869   0.729  1.00  0.00     0.165 HD
BRANCH  22  26
HETATM   26  C   UNL     1      43.329 -18.459   3.149  1.00  0.00     0.071 A 
HETATM   27  C   UNL     1      43.969 -18.475   4.401  1.00  0.00     0.097 A 
HETATM   28  C   UNL     1      44.647 -19.636   4.810  1.00  0.00     0.077 A 
HETATM   29  C   UNL     1      44.728 -20.757   3.971  1.00  0.00     0.092 A 
HETATM   30  C   UNL     1      44.126 -20.701   2.708  1.00  0.00     0.069 A 
HETATM   31 CL   UNL     1      44.180 -22.040   1.613  1.00  0.00    -0.081 Cl
HETATM   32  C   UNL     1      43.449 -19.556   2.291  1.00  0.00     0.059 A 
BRANCH  27  33
HETATM   33  O   UNL     1      43.938 -17.307   5.119  1.00  0.00    -0.354 OA
HETATM   34  C   UNL     1      44.444 -17.335   6.447  1.00  0.00     0.210 C 
ENDBRANCH  27  33
BRANCH  29  35
HETATM   35  O   UNL     1      45.359 -21.929   4.295  1.00  0.00    -0.354 OA
HETATM   36  C   UNL     1      44.789 -22.726   5.325  1.00  0.00     0.210 C 
ENDBRANCH  29  35
ENDBRANCH  22  26
ENDBRANCH   1  20
TORSDOF 7
ENDMDL
MODEL 10
REMARK VINA RESULT:      -7.0      3.146      5.470
REMARK  7 active torsions:
REMARK  status: ('A' for Active; 'I' for Inactive)
REMARK    1  A    between atoms: C_2  and  N_3 
REMARK    2  A    between atoms: C_8  and  C_9 
REMARK    3  A    between atoms: C_9  and  N_10 
REMARK       I    between atoms: N_10  and  C_11 
REMARK       I    between atoms: C_11  and  N_12 
REMARK    4  A    between atoms: N_12  and  C_13 
REMARK    5  A    between atoms: C_14  and  O_15 
REMARK    6  A    between atoms: C_18  and  O_19 
REMARK    7  A    between atoms: C_26  and  N_27 
ROOT
HETATM    1  C   UNL     1      42.337 -13.824   5.805  1.00  0.00     0.118 C 
HETATM    2  C   UNL     1      43.815 -13.965   5.447  1.00  0.00     0.037 C 
ENDROOT
BRANCH   1   3
HETATM    3  C   UNL     1      41.716 -12.595   5.132  1.00  0.00     0.006 A 
HETATM    4  C   UNL     1      41.613 -12.434   3.676  1.00  0.00    -0.031 A 
HETATM    5  C   UNL     1      40.966 -11.270   3.320  1.00  0.00     0.017 A 
HETATM    6  C   UNL     1      42.073 -13.390   2.603  1.00  0.00     0.068 C 
HETATM    7  C   UNL     1      40.695 -10.808   1.926  1.00  0.00     0.281 C 
HETATM    8  S   UNL     1      40.491 -10.360   4.653  1.00  0.00    -0.074 SA
HETATM    9  N   UNL     1      40.804 -11.956   0.929  1.00  0.00    -0.067 N 
HETATM   10  H   UNL     1      40.927 -11.525   0.005  1.00  0.00     0.280 HD
HETATM   11  C   UNL     1      42.070 -12.758   1.198  1.00  0.00     0.240 C 
HETATM   12  C   UNL     1      41.160 -11.477   5.765  1.00  0.00     0.089 A 
BRANCH   9  13
HETATM   13  C   UNL     1      39.562 -12.819   0.851  1.00  0.00     0.231 C 
HETATM   14  C   UNL     1      39.686 -13.821  -0.284  1.00  0.00     0.034 C 
ENDBRANCH   9  13
BRANCH  12  15
HETATM   15  N   UNL     1      41.074 -11.118   7.136  1.00  0.00    -0.327 N 
HETATM   16  C   UNL     1      39.928 -11.118   7.929  1.00  0.00     0.097 A 
HETATM   17  C   UNL     1      40.235 -10.728   9.213  1.00  0.00     0.019 A 
HETATM   18  C   UNL     1      41.608 -10.448   9.236  1.00  0.00     0.019 A 
HETATM   19  C   UNL     1      42.089 -10.671   7.965  1.00  0.00     0.097 A 
ENDBRANCH  12  15
ENDBRANCH   1   3
BRANCH   1  20
HETATM   20  N   UNL     1      41.455 -14.966   5.553  1.00  0.00    -0.334 N 
HETATM   21  C   UNL     1      41.726 -16.251   5.180  1.00  0.00     0.321 C 
HETATM   22  N   UNL     1      42.733 -16.404   4.267  1.00  0.00    -0.306 N 
HETATM   23  O   UNL     1      40.951 -17.125   5.554  1.00  0.00    -0.247 OA
HETATM   24  H   UNL     1      42.809 -15.627   3.641  1.00  0.00     0.171 HD
HETATM   25  H   UNL     1      40.659 -14.992   6.182  1.00  0.00     0.165 HD
BRANCH  22  26
HETATM   26  C   UNL     1      43.098 -17.656   3.719  1.00  0.00     0.071 A 
HETATM   27  C   UNL     1      42.651 -18.113   2.467  1.00  0.00     0.097 A 
HETATM   28  C   UNL     1      43.104 -19.354   1.987  1.00  0.00     0.077 A 
HETATM   29  C   UNL     1      43.958 -20.156   2.759  1.00  0.00     0.092 A 
HETATM   30  C   UNL     1      44.351 -19.704   4.025  1.00  0.00     0.069 A 
HETATM   31 CL   UNL     1      45.402 -20.632   5.039  1.00  0.00    -0.081 Cl
HETATM   32  C   UNL     1      43.910 -18.474   4.511  1.00  0.00     0.059 A 
BRANCH  27  33
HETATM   33  O   UNL     1      41.735 -17.325   1.819  1.00  0.00    -0.354 OA
HETATM   34  C   UNL     1      42.143 -16.692   0.614  1.00  0.00     0.210 C 
ENDBRANCH  27  33
BRANCH  29  35
HETATM   35  O   UNL     1      44.454 -21.371   2.365  1.00  0.00    -0.354 OA
HETATM   36  C   UNL     1      43.877 -21.983   1.219  1.00  0.00     0.210 C 
ENDBRANCH  29  35
ENDBRANCH  22  26
ENDBRANCH   1  20
TORSDOF 7
ENDMDL
