MODEL 1
REMARK VINA RESULT:      -9.2      0.000      0.000
REMARK  5 active torsions:
REMARK  status: ('A' for Active; 'I' for Inactive)
REMARK    1  A    between atoms: C_6  and  C_7 
REMARK    2  A    between atoms: C_7  and  C_8 
REMARK       I    between atoms: C_8  and  N_9 
REMARK    3  A    between atoms: N_9  and  N_10 
REMARK       I    between atoms: N_10  and  C_11 
REMARK    4  A    between atoms: C_11  and  C_12 
REMARK    5  A    between atoms: C_12  and  C_13 
ROOT
HETATM    1  C   UNL     1      45.063 -13.566   7.527  1.00  0.00     0.243 C 
HETATM    2  N   UNL     1      44.163 -14.476   8.034  1.00  0.00    -0.267 N 
HETATM    3  O   UNL     1      45.496 -13.631   6.376  1.00  0.00    -0.271 OA
HETATM    4  H   UNL     1      43.710 -14.356   8.944  1.00  0.00     0.190 HD
ENDROOT
BRANCH   1   5
HETATM    5  C   UNL     1      45.422 -12.433   8.455  1.00  0.00     0.183 C 
BRANCH   5   6
HETATM    6  C   UNL     1      44.249 -11.833   9.179  1.00  0.00     0.116 A 
HETATM    7  N   UNL     1      43.367 -11.142   8.525  1.00  0.00    -0.227 NA
HETATM    8  C   UNL     1      42.361 -10.638   9.286  1.00  0.00     0.116 A 
HETATM    9  C   UNL     1      42.211 -10.763  10.651  1.00  0.00     0.075 A 
HETATM   10  S   UNL     1      41.095  -9.740   8.596  1.00  0.00    -0.074 SA
HETATM   11  C   UNL     1      41.038 -10.096  11.151  1.00  0.00    -0.031 A 
HETATM   12  C   UNL     1      43.227 -11.520  11.359  1.00  0.00     0.260 A 
HETATM   13  C   UNL     1      40.640 -10.054  12.593  1.00  0.00     0.050 C 
HETATM   14  C   UNL     1      40.340  -9.492  10.113  1.00  0.00    -0.012 A 
HETATM   15  C   UNL     1      39.076  -8.699  10.182  1.00  0.00     0.057 C 
HETATM   16  N   UNL     1      44.205 -12.042  10.541  1.00  0.00    -0.310 N 
HETATM   17  O   UNL     1      43.248 -11.692  12.573  1.00  0.00    -0.267 OA
HETATM   18  H   UNL     1      44.917 -12.575  11.020  1.00  0.00     0.170 HD
ENDBRANCH   5   6
ENDBRANCH   1   5
BRANCH   2  19
HETATM   19  N   UNL     1      43.566 -15.380   7.143  1.00  0.00    -0.267 N 
HETATM   20  C   UNL     1      43.205 -16.617   7.652  1.00  0.00     0.240 C 
HETATM   21  O   UNL     1      43.571 -17.010   8.759  1.00  0.00    -0.272 OA
HETATM   22  H   UNL     1      43.031 -14.950   6.388  1.00  0.00     0.190 HD
BRANCH  20  23
HETATM   23  C   UNL     1      42.354 -17.442   6.704  1.00  0.00     0.148 C 
BRANCH  23  24
HETATM   24  C   UNL     1      43.175 -18.325   5.798  1.00  0.00     0.011 A 
HETATM   25  C   UNL     1      43.424 -18.010   4.455  1.00  0.00     0.043 A 
HETATM   26 CL   UNL     1      42.832 -16.549   3.744  1.00  0.00    -0.084 Cl
HETATM   27  C   UNL     1      44.174 -18.870   3.643  1.00  0.00     0.024 A 
HETATM   28  C   UNL     1      44.682 -20.061   4.161  1.00  0.00     0.005 A 
HETATM   29  C   UNL     1      44.440 -20.390   5.492  1.00  0.00     0.043 A 
HETATM   30  C   UNL     1      43.693 -19.528   6.291  1.00  0.00     0.124 A 
HETATM   31  F   UNL     1      43.483 -19.869   7.571  1.00  0.00    -0.205 F 
ENDBRANCH  23  24
ENDBRANCH  20  23
ENDBRANCH   2  19
TORSDOF 5
ENDMDL
MODEL 2
REMARK VINA RESULT:      -9.0      1.464      1.766
REMARK  5 active torsions:
REMARK  status: ('A' for Active; 'I' for Inactive)
REMARK    1  A    between atoms: C_6  and  C_7 
REMARK    2  A    between atoms: C_7  and  C_8 
REMARK       I    between atoms: C_8  and  N_9 
REMARK    3  A    between atoms: N_9  and  N_10 
REMARK       I    between atoms: N_10  and  C_11 
REMARK    4  A    between atoms: C_11  and  C_12 
REMARK    5  A    between atoms: C_12  and  C_13 
ROOT
HETATM    1  C   UNL     1      44.993 -13.661   7.456  1.00  0.00     0.243 C 
HETATM    2  N   UNL     1      44.003 -14.509   7.898  1.00  0.00    -0.267 N 
HETATM    3  O   UNL     1      45.438 -13.702   6.308  1.00  0.00    -0.271 OA
HETATM    4  H   UNL     1      43.547 -14.398   8.808  1.00  0.00     0.190 HD
ENDROOT
BRANCH   1   5
HETATM    5  C   UNL     1      45.439 -12.621   8.452  1.00  0.00     0.183 C 
BRANCH   5   6
HETATM    6  C   UNL     1      44.314 -11.942   9.182  1.00  0.00     0.116 A 
HETATM    7  N   UNL     1      43.497 -11.166   8.537  1.00  0.00    -0.227 NA
HETATM    8  C   UNL     1      42.530 -10.597   9.303  1.00  0.00     0.116 A 
HETATM    9  C   UNL     1      42.359 -10.740  10.664  1.00  0.00     0.075 A 
HETATM   10  S   UNL     1      41.347  -9.583   8.625  1.00  0.00    -0.074 SA
HETATM   11  C   UNL     1      41.240  -9.989  11.171  1.00  0.00    -0.031 A 
HETATM   12  C   UNL     1      43.302 -11.593  11.361  1.00  0.00     0.260 A 
HETATM   13  C   UNL     1      40.835  -9.946  12.611  1.00  0.00     0.050 C 
HETATM   14  C   UNL     1      40.603  -9.307  10.142  1.00  0.00    -0.012 A 
HETATM   15  C   UNL     1      39.408  -8.414  10.221  1.00  0.00     0.057 C 
HETATM   16  N   UNL     1      44.241 -12.176  10.538  1.00  0.00    -0.310 N 
HETATM   17  O   UNL     1      43.300 -11.793  12.571  1.00  0.00    -0.267 OA
HETATM   18  H   UNL     1      44.903 -12.776  11.010  1.00  0.00     0.170 HD
ENDBRANCH   5   6
ENDBRANCH   1   5
BRANCH   2  19
HETATM   19  N   UNL     1      43.340 -15.302   6.950  1.00  0.00    -0.267 N 
HETATM   20  C   UNL     1      43.032 -16.600   7.322  1.00  0.00     0.240 C 
HETATM   21  O   UNL     1      43.491 -17.125   8.335  1.00  0.00    -0.272 OA
HETATM   22  H   UNL     1      42.742 -14.788   6.303  1.00  0.00     0.190 HD
BRANCH  20  23
HETATM   23  C   UNL     1      42.111 -17.312   6.348  1.00  0.00     0.148 C 
BRANCH  23  24
HETATM   24  C   UNL     1      42.840 -17.859   5.147  1.00  0.00     0.011 A 
HETATM   25  C   UNL     1      43.561 -19.061   5.181  1.00  0.00     0.043 A 
HETATM   26 CL   UNL     1      43.635 -20.032   6.610  1.00  0.00    -0.084 Cl
HETATM   27  C   UNL     1      44.242 -19.521   4.047  1.00  0.00     0.024 A 
HETATM   28  C   UNL     1      44.216 -18.785   2.863  1.00  0.00     0.005 A 
HETATM   29  C   UNL     1      43.508 -17.588   2.815  1.00  0.00     0.043 A 
HETATM   30  C   UNL     1      42.834 -17.138   3.948  1.00  0.00     0.124 A 
HETATM   31  F   UNL     1      42.155 -15.984   3.868  1.00  0.00    -0.205 F 
ENDBRANCH  23  24
ENDBRANCH  20  23
ENDBRANCH   2  19
TORSDOF 5
ENDMDL
MODEL 3
REMARK VINA RESULT:      -8.8      2.654      3.342
REMARK  5 active torsions:
REMARK  status: ('A' for Active; 'I' for Inactive)
REMARK    1  A    between atoms: C_6  and  C_7 
REMARK    2  A    between atoms: C_7  and  C_8 
REMARK       I    between atoms: C_8  and  N_9 
REMARK    3  A    between atoms: N_9  and  N_10 
REMARK       I    between atoms: N_10  and  C_11 
REMARK    4  A    between atoms: C_11  and  C_12 
REMARK    5  A    between atoms: C_12  and  C_13 
ROOT
HETATM    1  C   UNL     1      40.012 -12.687   5.899  1.00  0.00     0.243 C 
HETATM    2  N   UNL     1      39.919 -13.793   6.714  1.00  0.00    -0.267 N 
HETATM    3  O   UNL     1      40.219 -12.771   4.688  1.00  0.00    -0.271 OA
HETATM    4  H   UNL     1      39.627 -13.734   7.693  1.00  0.00     0.190 HD
ENDROOT
BRANCH   1   5
HETATM    5  C   UNL     1      39.761 -11.366   6.579  1.00  0.00     0.183 C 
BRANCH   5   6
HETATM    6  C   UNL     1      40.504 -11.187   7.874  1.00  0.00     0.116 A 
HETATM    7  N   UNL     1      39.849 -11.087   8.989  1.00  0.00    -0.227 NA
HETATM    8  C   UNL     1      40.624 -10.914  10.091  1.00  0.00     0.116 A 
HETATM    9  C   UNL     1      41.999 -10.808  10.129  1.00  0.00     0.075 A 
HETATM   10  S   UNL     1      39.943 -10.804  11.644  1.00  0.00    -0.074 SA
HETATM   11  C   UNL     1      42.511 -10.617  11.461  1.00  0.00    -0.031 A 
HETATM   12  C   UNL     1      42.702 -10.898   8.864  1.00  0.00     0.260 A 
HETATM   13  C   UNL     1      43.960 -10.453  11.793  1.00  0.00     0.050 C 
HETATM   14  C   UNL     1      41.473 -10.595  12.385  1.00  0.00    -0.012 A 
HETATM   15  C   UNL     1      41.553 -10.419  13.866  1.00  0.00     0.057 C 
HETATM   16  N   UNL     1      41.877 -11.110   7.781  1.00  0.00    -0.310 N 
HETATM   17  O   UNL     1      43.917 -10.791   8.732  1.00  0.00    -0.267 OA
HETATM   18  H   UNL     1      42.354 -11.178   6.893  1.00  0.00     0.170 HD
ENDBRANCH   5   6
ENDBRANCH   1   5
BRANCH   2  19
HETATM   19  N   UNL     1      39.851 -15.056   6.108  1.00  0.00    -0.267 N 
HETATM   20  C   UNL     1      41.019 -15.800   6.074  1.00  0.00     0.240 C 
HETATM   21  O   UNL     1      42.117 -15.322   6.356  1.00  0.00    -0.272 OA
HETATM   22  H   UNL     1      38.941 -15.514   6.169  1.00  0.00     0.190 HD
BRANCH  20  23
HETATM   23  C   UNL     1      40.815 -17.237   5.627  1.00  0.00     0.148 C 
BRANCH  23  24
HETATM   24  C   UNL     1      41.877 -17.707   4.666  1.00  0.00     0.011 A 
HETATM   25  C   UNL     1      41.816 -17.457   3.288  1.00  0.00     0.043 A 
HETATM   26 CL   UNL     1      40.523 -16.546   2.590  1.00  0.00    -0.084 Cl
HETATM   27  C   UNL     1      42.814 -17.932   2.428  1.00  0.00     0.024 A 
HETATM   28  C   UNL     1      43.885 -18.669   2.933  1.00  0.00     0.005 A 
HETATM   29  C   UNL     1      43.957 -18.929   4.298  1.00  0.00     0.043 A 
HETATM   30  C   UNL     1      42.960 -18.452   5.145  1.00  0.00     0.124 A 
HETATM   31  F   UNL     1      43.061 -18.714   6.457  1.00  0.00    -0.205 F 
ENDBRANCH  23  24
ENDBRANCH  20  23
ENDBRANCH   2  19
TORSDOF 5
ENDMDL
MODEL 4
REMARK VINA RESULT:      -8.7      2.149      2.779
REMARK  5 active torsions:
REMARK  status: ('A' for Active; 'I' for Inactive)
REMARK    1  A    between atoms: C_6  and  C_7 
REMARK    2  A    between atoms: C_7  and  C_8 
REMARK       I    between atoms: C_8  and  N_9 
REMARK    3  A    between atoms: N_9  and  N_10 
REMARK       I    between atoms: N_10  and  C_11 
REMARK    4  A    between atoms: C_11  and  C_12 
REMARK    5  A    between atoms: C_12  and  C_13 
ROOT
HETATM    1  C   UNL     1      44.548 -13.908   7.230  1.00  0.00     0.243 C 
HETATM    2  N   UNL     1      43.974 -15.046   7.748  1.00  0.00    -0.267 N 
HETATM    3  O   UNL     1      44.533 -13.645   6.027  1.00  0.00    -0.271 OA
HETATM    4  H   UNL     1      43.877 -15.206   8.755  1.00  0.00     0.190 HD
ENDROOT
BRANCH   1   5
HETATM    5  C   UNL     1      45.129 -12.961   8.249  1.00  0.00     0.183 C 
BRANCH   5   6
HETATM    6  C   UNL     1      44.106 -12.130   8.973  1.00  0.00     0.116 A 
HETATM    7  N   UNL     1      44.122 -12.065  10.268  1.00  0.00    -0.227 NA
HETATM    8  C   UNL     1      43.142 -11.297  10.812  1.00  0.00     0.116 A 
HETATM    9  C   UNL     1      42.145 -10.624  10.136  1.00  0.00     0.075 A 
HETATM   10  S   UNL     1      43.030 -11.063  12.491  1.00  0.00    -0.074 SA
HETATM   11  C   UNL     1      41.256  -9.909  11.014  1.00  0.00    -0.031 A 
HETATM   12  C   UNL     1      42.138 -10.736   8.690  1.00  0.00     0.260 A 
HETATM   13  C   UNL     1      40.077  -9.111  10.554  1.00  0.00     0.050 C 
HETATM   14  C   UNL     1      41.639 -10.076  12.339  1.00  0.00    -0.012 A 
HETATM   15  C   UNL     1      41.000  -9.516  13.567  1.00  0.00     0.057 C 
HETATM   16  N   UNL     1      43.172 -11.494   8.184  1.00  0.00    -0.310 N 
HETATM   17  O   UNL     1      41.300 -10.223   7.955  1.00  0.00    -0.267 OA
HETATM   18  H   UNL     1      43.181 -11.578   7.177  1.00  0.00     0.170 HD
ENDBRANCH   5   6
ENDBRANCH   1   5
BRANCH   2  19
HETATM   19  N   UNL     1      43.167 -15.823   6.904  1.00  0.00    -0.267 N 
HETATM   20  C   UNL     1      43.689 -17.032   6.474  1.00  0.00     0.240 C 
HETATM   21  O   UNL     1      44.871 -17.335   6.629  1.00  0.00    -0.272 OA
HETATM   22  H   UNL     1      42.163 -15.707   7.043  1.00  0.00     0.190 HD
BRANCH  20  23
HETATM   23  C   UNL     1      42.677 -17.917   5.770  1.00  0.00     0.148 C 
BRANCH  23  24
HETATM   24  C   UNL     1      43.026 -18.170   4.325  1.00  0.00     0.011 A 
HETATM   25  C   UNL     1      43.850 -19.229   3.918  1.00  0.00     0.043 A 
HETATM   26 CL   UNL     1      44.501 -20.357   5.055  1.00  0.00    -0.084 Cl
HETATM   27  C   UNL     1      44.166 -19.414   2.567  1.00  0.00     0.024 A 
HETATM   28  C   UNL     1      43.667 -18.539   1.601  1.00  0.00     0.005 A 
HETATM   29  C   UNL     1      42.851 -17.481   1.990  1.00  0.00     0.043 A 
HETATM   30  C   UNL     1      42.542 -17.305   3.337  1.00  0.00     0.124 A 
HETATM   31  F   UNL     1      41.748 -16.280   3.679  1.00  0.00    -0.205 F 
ENDBRANCH  23  24
ENDBRANCH  20  23
ENDBRANCH   2  19
TORSDOF 5
ENDMDL
MODEL 5
REMARK VINA RESULT:      -8.7      4.128      9.069
REMARK  5 active torsions:
REMARK  status: ('A' for Active; 'I' for Inactive)
REMARK    1  A    between atoms: C_6  and  C_7 
REMARK    2  A    between atoms: C_7  and  C_8 
REMARK       I    between atoms: C_8  and  N_9 
REMARK    3  A    between atoms: N_9  and  N_10 
REMARK       I    between atoms: N_10  and  C_11 
REMARK    4  A    between atoms: C_11  and  C_12 
REMARK    5  A    between atoms: C_12  and  C_13 
ROOT
HETATM    1  C   UNL     1      40.450 -13.118   5.834  1.00  0.00     0.243 C 
HETATM    2  N   UNL     1      39.926 -12.553   6.975  1.00  0.00    -0.267 N 
HETATM    3  O   UNL     1      41.396 -12.621   5.221  1.00  0.00    -0.271 OA
HETATM    4  H   UNL     1      39.225 -13.026   7.552  1.00  0.00     0.190 HD
ENDROOT
BRANCH   1   5
HETATM    5  C   UNL     1      39.838 -14.435   5.430  1.00  0.00     0.183 C 
BRANCH   5   6
HETATM    6  C   UNL     1      40.820 -15.570   5.339  1.00  0.00     0.116 A 
HETATM    7  N   UNL     1      41.103 -16.091   4.185  1.00  0.00    -0.227 NA
HETATM    8  C   UNL     1      41.991 -17.119   4.228  1.00  0.00     0.116 A 
HETATM    9  C   UNL     1      42.577 -17.662   5.352  1.00  0.00     0.075 A 
HETATM   10  S   UNL     1      42.511 -17.898   2.810  1.00  0.00    -0.074 SA
HETATM   11  C   UNL     1      43.466 -18.753   5.051  1.00  0.00    -0.031 A 
HETATM   12  C   UNL     1      42.221 -17.075   6.630  1.00  0.00     0.260 A 
HETATM   13  C   UNL     1      44.220 -19.537   6.078  1.00  0.00     0.050 C 
HETATM   14  C   UNL     1      43.512 -18.981   3.681  1.00  0.00    -0.012 A 
HETATM   15  C   UNL     1      44.298 -20.011   2.937  1.00  0.00     0.057 C 
HETATM   16  N   UNL     1      41.348 -16.013   6.532  1.00  0.00    -0.310 N 
HETATM   17  O   UNL     1      42.634 -17.466   7.716  1.00  0.00    -0.267 OA
HETATM   18  H   UNL     1      41.094 -15.592   7.415  1.00  0.00     0.170 HD
ENDBRANCH   5   6
ENDBRANCH   1   5
BRANCH   2  19
HETATM   19  N   UNL     1      40.627 -11.494   7.570  1.00  0.00    -0.267 N 
HETATM   20  C   UNL     1      39.954 -10.757   8.531  1.00  0.00     0.240 C 
HETATM   21  O   UNL     1      38.743 -10.863   8.718  1.00  0.00    -0.272 OA
HETATM   22  H   UNL     1      41.637 -11.623   7.623  1.00  0.00     0.190 HD
BRANCH  20  23
HETATM   23  C   UNL     1      40.844  -9.794   9.295  1.00  0.00     0.148 C 
BRANCH  23  24
HETATM   24  C   UNL     1      41.601 -10.460  10.416  1.00  0.00     0.011 A 
HETATM   25  C   UNL     1      41.062 -10.628  11.699  1.00  0.00     0.043 A 
HETATM   26 CL   UNL     1      39.458 -10.111  12.082  1.00  0.00    -0.084 Cl
HETATM   27  C   UNL     1      41.810 -11.233  12.717  1.00  0.00     0.024 A 
HETATM   28  C   UNL     1      43.109 -11.675  12.469  1.00  0.00     0.005 A 
HETATM   29  C   UNL     1      43.659 -11.512  11.201  1.00  0.00     0.043 A 
HETATM   30  C   UNL     1      42.908 -10.908  10.195  1.00  0.00     0.124 A 
HETATM   31  F   UNL     1      43.464 -10.771   8.982  1.00  0.00    -0.205 F 
ENDBRANCH  23  24
ENDBRANCH  20  23
ENDBRANCH   2  19
TORSDOF 5
ENDMDL
MODEL 6
REMARK VINA RESULT:      -8.7      1.813      2.188
REMARK  5 active torsions:
REMARK  status: ('A' for Active; 'I' for Inactive)
REMARK    1  A    between atoms: C_6  and  C_7 
REMARK    2  A    between atoms: C_7  and  C_8 
REMARK       I    between atoms: C_8  and  N_9 
REMARK    3  A    between atoms: N_9  and  N_10 
REMARK       I    between atoms: N_10  and  C_11 
REMARK    4  A    between atoms: C_11  and  C_12 
REMARK    5  A    between atoms: C_12  and  C_13 
ROOT
HETATM    1  C   UNL     1      44.173 -14.767   6.922  1.00  0.00     0.243 C 
HETATM    2  N   UNL     1      42.820 -14.666   6.685  1.00  0.00    -0.267 N 
HETATM    3  O   UNL     1      44.759 -15.850   6.968  1.00  0.00    -0.271 OA
HETATM    4  H   UNL     1      42.354 -13.769   6.525  1.00  0.00     0.190 HD
ENDROOT
BRANCH   1   5
HETATM    5  C   UNL     1      44.904 -13.455   7.041  1.00  0.00     0.183 C 
BRANCH   5   6
HETATM    6  C   UNL     1      44.429 -12.584   8.171  1.00  0.00     0.116 A 
HETATM    7  N   UNL     1      43.457 -11.746   7.980  1.00  0.00    -0.227 NA
HETATM    8  C   UNL     1      43.125 -11.003   9.068  1.00  0.00     0.116 A 
HETATM    9  C   UNL     1      43.725 -11.035  10.309  1.00  0.00     0.075 A 
HETATM   10  S   UNL     1      41.849  -9.881   9.017  1.00  0.00    -0.074 SA
HETATM   11  C   UNL     1      43.138 -10.109  11.242  1.00  0.00    -0.031 A 
HETATM   12  C   UNL     1      44.825 -11.964  10.485  1.00  0.00     0.260 A 
HETATM   13  C   UNL     1      43.603  -9.920  12.651  1.00  0.00     0.050 C 
HETATM   14  C   UNL     1      42.094  -9.412  10.646  1.00  0.00    -0.012 A 
HETATM   15  C   UNL     1      41.219  -8.361  11.245  1.00  0.00     0.057 C 
HETATM   16  N   UNL     1      45.101 -12.721   9.366  1.00  0.00    -0.310 N 
HETATM   17  O   UNL     1      45.478 -12.085  11.517  1.00  0.00    -0.267 OA
HETATM   18  H   UNL     1      45.863 -13.375   9.476  1.00  0.00     0.170 HD
ENDBRANCH   5   6
ENDBRANCH   1   5
BRANCH   2  19
HETATM   19  N   UNL     1      42.133 -15.818   6.277  1.00  0.00    -0.267 N 
HETATM   20  C   UNL     1      41.986 -16.013   4.913  1.00  0.00     0.240 C 
HETATM   21  O   UNL     1      42.242 -15.136   4.089  1.00  0.00    -0.272 OA
HETATM   22  H   UNL     1      42.211 -16.613   6.913  1.00  0.00     0.190 HD
BRANCH  20  23
HETATM   23  C   UNL     1      41.452 -17.385   4.547  1.00  0.00     0.148 C 
BRANCH  23  24
HETATM   24  C   UNL     1      42.486 -18.257   3.881  1.00  0.00     0.011 A 
HETATM   25  C   UNL     1      42.526 -18.460   2.494  1.00  0.00     0.043 A 
HETATM   26 CL   UNL     1      41.402 -17.686   1.433  1.00  0.00    -0.084 Cl
HETATM   27  C   UNL     1      43.492 -19.297   1.920  1.00  0.00     0.024 A 
HETATM   28  C   UNL     1      44.428 -19.946   2.723  1.00  0.00     0.005 A 
HETATM   29  C   UNL     1      44.399 -19.757   4.102  1.00  0.00     0.043 A 
HETATM   30  C   UNL     1      43.435 -18.923   4.664  1.00  0.00     0.124 A 
HETATM   31  F   UNL     1      43.436 -18.757   5.995  1.00  0.00    -0.205 F 
ENDBRANCH  23  24
ENDBRANCH  20  23
ENDBRANCH   2  19
TORSDOF 5
ENDMDL
MODEL 7
REMARK VINA RESULT:      -8.6      6.191      8.616
REMARK  5 active torsions:
REMARK  status: ('A' for Active; 'I' for Inactive)
REMARK    1  A    between atoms: C_6  and  C_7 
REMARK    2  A    between atoms: C_7  and  C_8 
REMARK       I    between atoms: C_8  and  N_9 
REMARK    3  A    between atoms: N_9  and  N_10 
REMARK       I    between atoms: N_10  and  C_11 
REMARK    4  A    between atoms: C_11  and  C_12 
REMARK    5  A    between atoms: C_12  and  C_13 
ROOT
HETATM    1  C   UNL     1      41.146 -15.227   4.407  1.00  0.00     0.243 C 
HETATM    2  N   UNL     1      41.197 -16.529   3.964  1.00  0.00    -0.267 N 
HETATM    3  O   UNL     1      42.090 -14.685   4.985  1.00  0.00    -0.271 OA
HETATM    4  H   UNL     1      40.465 -16.941   3.378  1.00  0.00     0.190 HD
ENDROOT
BRANCH   1   5
HETATM    5  C   UNL     1      39.883 -14.480   4.063  1.00  0.00     0.183 C 
BRANCH   5   6
HETATM    6  C   UNL     1      39.628 -14.345   2.587  1.00  0.00     0.116 A 
HETATM    7  N   UNL     1      40.506 -14.777   1.735  1.00  0.00    -0.227 NA
HETATM    8  C   UNL     1      40.174 -14.588   0.431  1.00  0.00     0.116 A 
HETATM    9  C   UNL     1      39.040 -13.972  -0.055  1.00  0.00     0.075 A 
HETATM   10  S   UNL     1      41.184 -15.125  -0.826  1.00  0.00    -0.074 SA
HETATM   11  C   UNL     1      38.999 -13.924  -1.493  1.00  0.00    -0.031 A 
HETATM   12  C   UNL     1      38.089 -13.477   0.922  1.00  0.00     0.260 A 
HETATM   13  C   UNL     1      37.896 -13.298  -2.286  1.00  0.00     0.050 C 
HETATM   14  C   UNL     1      40.128 -14.527  -2.033  1.00  0.00    -0.012 A 
HETATM   15  C   UNL     1      40.491 -14.695  -3.473  1.00  0.00     0.057 C 
HETATM   16  N   UNL     1      38.451 -13.724   2.229  1.00  0.00    -0.310 N 
HETATM   17  O   UNL     1      37.052 -12.881   0.647  1.00  0.00    -0.267 OA
HETATM   18  H   UNL     1      37.796 -13.388   2.920  1.00  0.00     0.170 HD
ENDBRANCH   5   6
ENDBRANCH   1   5
BRANCH   2  19
HETATM   19  N   UNL     1      42.434 -17.188   3.988  1.00  0.00    -0.267 N 
HETATM   20  C   UNL     1      42.770 -17.936   2.871  1.00  0.00     0.240 C 
HETATM   21  O   UNL     1      41.959 -18.203   1.986  1.00  0.00    -0.272 OA
HETATM   22  H   UNL     1      43.155 -16.728   4.545  1.00  0.00     0.190 HD
BRANCH  20  23
HETATM   23  C   UNL     1      44.210 -18.416   2.868  1.00  0.00     0.148 C 
BRANCH  23  24
HETATM   24  C   UNL     1      44.359 -19.823   3.388  1.00  0.00     0.011 A 
HETATM   25  C   UNL     1      44.694 -20.107   4.720  1.00  0.00     0.043 A 
HETATM   26 CL   UNL     1      44.924 -18.850   5.883  1.00  0.00    -0.084 Cl
HETATM   27  C   UNL     1      44.845 -21.430   5.154  1.00  0.00     0.024 A 
HETATM   28  C   UNL     1      44.667 -22.488   4.263  1.00  0.00     0.005 A 
HETATM   29  C   UNL     1      44.338 -22.222   2.938  1.00  0.00     0.043 A 
HETATM   30  C   UNL     1      44.191 -20.903   2.514  1.00  0.00     0.124 A 
HETATM   31  F   UNL     1      43.868 -20.679   1.232  1.00  0.00    -0.205 F 
ENDBRANCH  23  24
ENDBRANCH  20  23
ENDBRANCH   2  19
TORSDOF 5
ENDMDL
MODEL 8
REMARK VINA RESULT:      -8.6      6.467      9.961
REMARK  5 active torsions:
REMARK  status: ('A' for Active; 'I' for Inactive)
REMARK    1  A    between atoms: C_6  and  C_7 
REMARK    2  A    between atoms: C_7  and  C_8 
REMARK       I    between atoms: C_8  and  N_9 
REMARK    3  A    between atoms: N_9  and  N_10 
REMARK       I    between atoms: N_10  and  C_11 
REMARK    4  A    between atoms: C_11  and  C_12 
REMARK    5  A    between atoms: C_12  and  C_13 
ROOT
HETATM    1  C   UNL     1      42.735 -14.408   3.204  1.00  0.00     0.243 C 
HETATM    2  N   UNL     1      41.679 -14.676   2.362  1.00  0.00    -0.267 N 
HETATM    3  O   UNL     1      43.589 -13.559   2.948  1.00  0.00    -0.271 OA
HETATM    4  H   UNL     1      40.904 -15.290   2.627  1.00  0.00     0.190 HD
ENDROOT
BRANCH   1   5
HETATM    5  C   UNL     1      42.729 -15.172   4.504  1.00  0.00     0.183 C 
BRANCH   5   6
HETATM    6  C   UNL     1      43.223 -16.587   4.391  1.00  0.00     0.116 A 
HETATM    7  N   UNL     1      43.103 -17.229   3.269  1.00  0.00    -0.227 NA
HETATM    8  C   UNL     1      43.571 -18.504   3.291  1.00  0.00     0.116 A 
HETATM    9  C   UNL     1      44.117 -19.169   4.368  1.00  0.00     0.075 A 
HETATM   10  S   UNL     1      43.533 -19.484   1.903  1.00  0.00    -0.074 SA
HETATM   11  C   UNL     1      44.504 -20.520   4.058  1.00  0.00    -0.031 A 
HETATM   12  C   UNL     1      44.215 -18.434   5.615  1.00  0.00     0.260 A 
HETATM   13  C   UNL     1      45.105 -21.474   5.041  1.00  0.00     0.050 C 
HETATM   14  C   UNL     1      44.230 -20.812   2.727  1.00  0.00    -0.012 A 
HETATM   15  C   UNL     1      44.467 -22.090   1.990  1.00  0.00     0.057 C 
HETATM   16  N   UNL     1      43.763 -17.135   5.534  1.00  0.00    -0.310 N 
HETATM   17  O   UNL     1      44.648 -18.897   6.665  1.00  0.00    -0.267 OA
HETATM   18  H   UNL     1      43.828 -16.610   6.395  1.00  0.00     0.170 HD
ENDBRANCH   5   6
ENDBRANCH   1   5
BRANCH   2  19
HETATM   19  N   UNL     1      41.459 -13.808   1.282  1.00  0.00    -0.267 N 
HETATM   20  C   UNL     1      41.465 -14.368   0.015  1.00  0.00     0.240 C 
HETATM   21  O   UNL     1      41.853 -15.515  -0.200  1.00  0.00    -0.272 OA
HETATM   22  H   UNL     1      40.874 -12.999   1.493  1.00  0.00     0.190 HD
BRANCH  20  23
HETATM   23  C   UNL     1      40.985 -13.424  -1.072  1.00  0.00     0.148 C 
BRANCH  23  24
HETATM   24  C   UNL     1      39.964 -14.053  -1.985  1.00  0.00     0.011 A 
HETATM   25  C   UNL     1      38.583 -13.920  -1.784  1.00  0.00     0.043 A 
HETATM   26 CL   UNL     1      37.944 -12.981  -0.480  1.00  0.00    -0.084 Cl
HETATM   27  C   UNL     1      37.670 -14.541  -2.645  1.00  0.00     0.024 A 
HETATM   28  C   UNL     1      38.124 -15.309  -3.718  1.00  0.00     0.005 A 
HETATM   29  C   UNL     1      39.491 -15.453  -3.928  1.00  0.00     0.043 A 
HETATM   30  C   UNL     1      40.392 -14.832  -3.066  1.00  0.00     0.124 A 
HETATM   31  F   UNL     1      41.704 -14.985  -3.299  1.00  0.00    -0.205 F 
ENDBRANCH  23  24
ENDBRANCH  20  23
ENDBRANCH   2  19
TORSDOF 5
ENDMDL
MODEL 9
REMARK VINA RESULT:      -8.5      4.255      9.672
REMARK  5 active torsions:
REMARK  status: ('A' for Active; 'I' for Inactive)
REMARK    1  A    between atoms: C_6  and  C_7 
REMARK    2  A    between atoms: C_7  and  C_8 
REMARK       I    between atoms: C_8  and  N_9 
REMARK    3  A    between atoms: N_9  and  N_10 
REMARK       I    between atoms: N_10  and  C_11 
REMARK    4  A    between atoms: C_11  and  C_12 
REMARK    5  A    between atoms: C_12  and  C_13 
ROOT
HETATM    1  C   UNL     1      40.745 -13.640   5.739  1.00  0.00     0.243 C 
HETATM    2  N   UNL     1      40.449 -12.855   6.831  1.00  0.00    -0.267 N 
HETATM    3  O   UNL     1      41.515 -13.275   4.850  1.00  0.00    -0.271 OA
HETATM    4  H   UNL     1      39.909 -13.202   7.629  1.00  0.00     0.190 HD
ENDROOT
BRANCH   1   5
HETATM    5  C   UNL     1      40.125 -15.013   5.748  1.00  0.00     0.183 C 
BRANCH   5   6
HETATM    6  C   UNL     1      40.968 -16.076   5.101  1.00  0.00     0.116 A 
HETATM    7  N   UNL     1      41.833 -16.738   5.807  1.00  0.00    -0.227 NA
HETATM    8  C   UNL     1      42.547 -17.661   5.112  1.00  0.00     0.116 A 
HETATM    9  C   UNL     1      42.461 -17.932   3.763  1.00  0.00     0.075 A 
HETATM   10  S   UNL     1      43.697 -18.650   5.879  1.00  0.00    -0.074 SA
HETATM   11  C   UNL     1      43.369 -18.965   3.338  1.00  0.00    -0.031 A 
HETATM   12  C   UNL     1      41.504 -17.159   2.995  1.00  0.00     0.260 A 
HETATM   13  C   UNL     1      43.502 -19.446   1.928  1.00  0.00     0.050 C 
HETATM   14  C   UNL     1      44.108 -19.439   4.416  1.00  0.00    -0.012 A 
HETATM   15  C   UNL     1      45.158 -20.501   4.425  1.00  0.00     0.057 C 
HETATM   16  N   UNL     1      40.778 -16.262   3.749  1.00  0.00    -0.310 N 
HETATM   17  O   UNL     1      41.335 -17.262   1.784  1.00  0.00    -0.267 OA
HETATM   18  H   UNL     1      40.105 -15.719   3.227  1.00  0.00     0.170 HD
ENDBRANCH   5   6
ENDBRANCH   1   5
BRANCH   2  19
HETATM   19  N   UNL     1      41.209 -11.695   7.036  1.00  0.00    -0.267 N 
HETATM   20  C   UNL     1      40.867 -10.904   8.122  1.00  0.00     0.240 C 
HETATM   21  O   UNL     1      39.827 -11.068   8.759  1.00  0.00    -0.272 OA
HETATM   22  H   UNL     1      42.175 -11.751   6.715  1.00  0.00     0.190 HD
BRANCH  20  23
HETATM   23  C   UNL     1      41.874  -9.808   8.419  1.00  0.00     0.148 C 
BRANCH  23  24
HETATM   24  C   UNL     1      42.484  -9.931   9.793  1.00  0.00     0.011 A 
HETATM   25  C   UNL     1      43.559 -10.787  10.070  1.00  0.00     0.043 A 
HETATM   26 CL   UNL     1      44.294 -11.746   8.834  1.00  0.00    -0.084 Cl
HETATM   27  C   UNL     1      44.080 -10.887  11.366  1.00  0.00     0.024 A 
HETATM   28  C   UNL     1      43.532 -10.135  12.405  1.00  0.00     0.005 A 
HETATM   29  C   UNL     1      42.463  -9.283  12.145  1.00  0.00     0.043 A 
HETATM   30  C   UNL     1      41.950  -9.191  10.853  1.00  0.00     0.124 A 
HETATM   31  F   UNL     1      40.924  -8.357  10.635  1.00  0.00    -0.205 F 
ENDBRANCH  23  24
ENDBRANCH  20  23
ENDBRANCH   2  19
TORSDOF 5
ENDMDL
MODEL 10
REMARK VINA RESULT:      -8.3      5.794      9.205
REMARK  5 active torsions:
REMARK  status: ('A' for Active; 'I' for Inactive)
REMARK    1  A    between atoms: C_6  and  C_7 
REMARK    2  A    between atoms: C_7  and  C_8 
REMARK       I    between atoms: C_8  and  N_9 
REMARK    3  A    between atoms: N_9  and  N_10 
REMARK       I    between atoms: N_10  and  C_11 
REMARK    4  A    between atoms: C_11  and  C_12 
REMARK    5  A    between atoms: C_12  and  C_13 
ROOT
HETATM    1  C   UNL     1      41.817 -13.685   4.796  1.00  0.00     0.243 C 
HETATM    2  N   UNL     1      42.516 -12.682   4.163  1.00  0.00    -0.267 N 
HETATM    3  O   UNL     1      40.640 -13.939   4.537  1.00  0.00    -0.271 OA
HETATM    4  H   UNL     1      43.524 -12.549   4.287  1.00  0.00     0.190 HD
ENDROOT
BRANCH   1   5
HETATM    5  C   UNL     1      42.618 -14.508   5.773  1.00  0.00     0.183 C 
BRANCH   5   6
HETATM    6  C   UNL     1      43.031 -15.856   5.252  1.00  0.00     0.116 A 
HETATM    7  N   UNL     1      43.341 -16.805   6.080  1.00  0.00    -0.227 NA
HETATM    8  C   UNL     1      43.712 -17.973   5.495  1.00  0.00     0.116 A 
HETATM    9  C   UNL     1      43.816 -18.226   4.143  1.00  0.00     0.075 A 
HETATM   10  S   UNL     1      44.115 -19.339   6.422  1.00  0.00    -0.074 SA
HETATM   11  C   UNL     1      44.249 -19.569   3.854  1.00  0.00    -0.031 A 
HETATM   12  C   UNL     1      43.488 -17.139   3.241  1.00  0.00     0.260 A 
HETATM   13  C   UNL     1      44.465 -20.108   2.476  1.00  0.00     0.050 C 
HETATM   14  C   UNL     1      44.449 -20.280   5.031  1.00  0.00    -0.012 A 
HETATM   15  C   UNL     1      44.898 -21.696   5.194  1.00  0.00     0.057 C 
HETATM   16  N   UNL     1      43.082 -15.987   3.881  1.00  0.00    -0.310 N 
HETATM   17  O   UNL     1      43.562 -17.200   2.018  1.00  0.00    -0.267 OA
HETATM   18  H   UNL     1      42.846 -15.222   3.265  1.00  0.00     0.170 HD
ENDBRANCH   5   6
ENDBRANCH   1   5
BRANCH   2  19
HETATM   19  N   UNL     1      41.930 -12.072   3.046  1.00  0.00    -0.267 N 
HETATM   20  C   UNL     1      42.050 -12.732   1.834  1.00  0.00     0.240 C 
HETATM   21  O   UNL     1      42.807 -13.689   1.674  1.00  0.00    -0.272 OA
HETATM   22  H   UNL     1      41.110 -11.499   3.249  1.00  0.00     0.190 HD
BRANCH  20  23
HETATM   23  C   UNL     1      41.193 -12.142   0.729  1.00  0.00     0.148 C 
BRANCH  23  24
HETATM   24  C   UNL     1      41.387 -12.835  -0.596  1.00  0.00     0.011 A 
HETATM   25  C   UNL     1      42.307 -12.390  -1.556  1.00  0.00     0.043 A 
HETATM   26 CL   UNL     1      43.323 -11.021  -1.270  1.00  0.00    -0.084 Cl
HETATM   27  C   UNL     1      42.438 -13.051  -2.784  1.00  0.00     0.024 A 
HETATM   28  C   UNL     1      41.649 -14.165  -3.071  1.00  0.00     0.005 A 
HETATM   29  C   UNL     1      40.729 -14.616  -2.130  1.00  0.00     0.043 A 
HETATM   30  C   UNL     1      40.605 -13.951  -0.912  1.00  0.00     0.124 A 
HETATM   31  F   UNL     1      39.714 -14.414  -0.023  1.00  0.00    -0.205 F 
ENDBRANCH  23  24
ENDBRANCH  20  23
ENDBRANCH   2  19
TORSDOF 5
ENDMDL
