MODEL 1
REMARK VINA RESULT:      -8.9      0.000      0.000
REMARK  6 active torsions:
REMARK  status: ('A' for Active; 'I' for Inactive)
REMARK    1  A    between atoms: C_3  and  C_4 
REMARK    2  A    between atoms: C_4  and  C_5 
REMARK       I    between atoms: C_5  and  N_6 
REMARK    3  A    between atoms: N_6  and  N_7 
REMARK       I    between atoms: N_7  and  C_8 
REMARK    4  A    between atoms: C_8  and  C_9 
REMARK    5  A    between atoms: C_13  and  C_14 
REMARK    6  A    between atoms: C_17  and  O_18 
ROOT
HETATM    1  N   UNL     1      44.227 -13.770   8.251  1.00  0.00    -0.262 N 
HETATM    2  C   UNL     1      43.614 -14.125   7.067  1.00  0.00     0.288 C 
HETATM    3  O   UNL     1      43.080 -13.297   6.331  1.00  0.00    -0.264 OA
HETATM    4  H   UNL     1      44.875 -14.399   8.723  1.00  0.00     0.190 HD
ENDROOT
BRANCH   2   5
HETATM    5  C   UNL     1      43.642 -15.532   6.772  1.00  0.00     0.121 A 
HETATM    6  N   UNL     1      43.399 -16.484   7.720  1.00  0.00    -0.272 N 
HETATM    7  H   UNL     1      43.165 -16.330   8.696  1.00  0.00     0.189 HD
HETATM    8  N   UNL     1      43.509 -17.744   7.273  1.00  0.00    -0.174 NA
HETATM    9  C   UNL     1      43.848 -17.624   5.979  1.00  0.00     0.089 A 
HETATM   10  C   UNL     1      43.921 -16.246   5.624  1.00  0.00     0.071 A 
BRANCH   9  11
HETATM   11  C   UNL     1      44.116 -18.793   5.132  1.00  0.00    -0.005 A 
HETATM   12  C   UNL     1      43.952 -18.721   3.742  1.00  0.00     0.016 A 
HETATM   13  C   UNL     1      44.167 -19.845   2.936  1.00  0.00     0.037 A 
HETATM   14  C   UNL     1      44.549 -21.062   3.499  1.00  0.00     0.068 A 
HETATM   15  C   UNL     1      44.732 -21.143   4.877  1.00  0.00     0.037 A 
HETATM   16  C   UNL     1      44.516 -20.018   5.686  1.00  0.00     0.016 A 
BRANCH  14  17
HETATM   17  O   UNL     1      44.713 -22.084   2.604  1.00  0.00    -0.356 OA
HETATM   18  C   UNL     1      44.002 -21.983   1.377  1.00  0.00     0.210 C 
ENDBRANCH  14  17
ENDBRANCH   9  11
ENDBRANCH   2   5
BRANCH   1  19
HETATM   19  N   UNL     1      44.351 -12.417   8.584  1.00  0.00    -0.267 N 
HETATM   20  C   UNL     1      44.389 -12.094   9.926  1.00  0.00     0.240 C 
HETATM   21  O   UNL     1      44.272 -12.950  10.803  1.00  0.00    -0.272 OA
HETATM   22  H   UNL     1      44.646 -11.782   7.843  1.00  0.00     0.190 HD
BRANCH  20  23
HETATM   23  C   UNL     1      44.529 -10.611  10.220  1.00  0.00     0.143 C 
BRANCH  23  24
HETATM   24  C   UNL     1      43.529 -10.045  11.214  1.00  0.00    -0.043 A 
HETATM   25  C   UNL     1      42.270  -9.566  10.781  1.00  0.00    -0.055 A 
HETATM   26  C   UNL     1      41.839  -9.631   9.340  1.00  0.00     0.049 C 
HETATM   27  C   UNL     1      41.365  -9.044  11.721  1.00  0.00     0.007 A 
HETATM   28  C   UNL     1      41.702  -8.954  13.069  1.00  0.00     0.001 A 
HETATM   29  C   UNL     1      42.950  -9.384  13.496  1.00  0.00     0.001 A 
HETATM   30  C   UNL     1      43.856  -9.917  12.579  1.00  0.00     0.008 A 
ENDBRANCH  23  24
ENDBRANCH  20  23
ENDBRANCH   1  19
TORSDOF 6
ENDMDL
MODEL 2
REMARK VINA RESULT:      -8.7      2.468      3.102
REMARK  6 active torsions:
REMARK  status: ('A' for Active; 'I' for Inactive)
REMARK    1  A    between atoms: C_3  and  C_4 
REMARK    2  A    between atoms: C_4  and  C_5 
REMARK       I    between atoms: C_5  and  N_6 
REMARK    3  A    between atoms: N_6  and  N_7 
REMARK       I    between atoms: N_7  and  C_8 
REMARK    4  A    between atoms: C_8  and  C_9 
REMARK    5  A    between atoms: C_13  and  C_14 
REMARK    6  A    between atoms: C_17  and  O_18 
ROOT
HETATM    1  N   UNL     1      42.069 -12.189   6.980  1.00  0.00    -0.262 N 
HETATM    2  C   UNL     1      41.630 -12.160   5.673  1.00  0.00     0.288 C 
HETATM    3  O   UNL     1      40.783 -11.359   5.282  1.00  0.00    -0.264 OA
HETATM    4  H   UNL     1      42.931 -12.665   7.241  1.00  0.00     0.190 HD
ENDROOT
BRANCH   2   5
HETATM    5  C   UNL     1      42.233 -13.142   4.813  1.00  0.00     0.121 A 
HETATM    6  N   UNL     1      42.820 -12.813   3.625  1.00  0.00    -0.272 N 
HETATM    7  H   UNL     1      42.915 -11.884   3.225  1.00  0.00     0.189 HD
HETATM    8  N   UNL     1      43.293 -13.863   2.937  1.00  0.00    -0.174 NA
HETATM    9  C   UNL     1      43.001 -14.933   3.695  1.00  0.00     0.089 A 
HETATM   10  C   UNL     1      42.351 -14.515   4.892  1.00  0.00     0.071 A 
BRANCH   9  11
HETATM   11  C   UNL     1      43.312 -16.302   3.263  1.00  0.00    -0.005 A 
HETATM   12  C   UNL     1      43.272 -17.365   4.175  1.00  0.00     0.016 A 
HETATM   13  C   UNL     1      43.608 -18.664   3.777  1.00  0.00     0.037 A 
HETATM   14  C   UNL     1      43.990 -18.929   2.462  1.00  0.00     0.068 A 
HETATM   15  C   UNL     1      44.018 -17.885   1.541  1.00  0.00     0.037 A 
HETATM   16  C   UNL     1      43.682 -16.583   1.939  1.00  0.00     0.016 A 
BRANCH  14  17
HETATM   17  O   UNL     1      44.306 -20.235   2.207  1.00  0.00    -0.356 OA
HETATM   18  C   UNL     1      44.675 -21.037   3.322  1.00  0.00     0.210 C 
ENDBRANCH  14  17
ENDBRANCH   9  11
ENDBRANCH   2   5
BRANCH   1  19
HETATM   19  N   UNL     1      41.628 -11.209   7.877  1.00  0.00    -0.267 N 
HETATM   20  C   UNL     1      42.560 -10.680   8.749  1.00  0.00     0.240 C 
HETATM   21  O   UNL     1      43.724 -11.081   8.775  1.00  0.00    -0.272 OA
HETATM   22  H   UNL     1      40.729 -10.773   7.682  1.00  0.00     0.190 HD
BRANCH  20  23
HETATM   23  C   UNL     1      42.020  -9.621   9.691  1.00  0.00     0.143 C 
BRANCH  23  24
HETATM   24  C   UNL     1      42.204  -9.909  11.172  1.00  0.00    -0.043 A 
HETATM   25  C   UNL     1      41.258 -10.687  11.880  1.00  0.00    -0.055 A 
HETATM   26  C   UNL     1      40.060 -11.303  11.208  1.00  0.00     0.049 C 
HETATM   27  C   UNL     1      41.451 -10.936  13.250  1.00  0.00     0.007 A 
HETATM   28  C   UNL     1      42.537 -10.394  13.933  1.00  0.00     0.001 A 
HETATM   29  C   UNL     1      43.447  -9.596  13.254  1.00  0.00     0.001 A 
HETATM   30  C   UNL     1      43.279  -9.350  11.891  1.00  0.00     0.008 A 
ENDBRANCH  23  24
ENDBRANCH  20  23
ENDBRANCH   1  19
TORSDOF 6
ENDMDL
MODEL 3
REMARK VINA RESULT:      -8.5      8.836     12.420
REMARK  6 active torsions:
REMARK  status: ('A' for Active; 'I' for Inactive)
REMARK    1  A    between atoms: C_3  and  C_4 
REMARK    2  A    between atoms: C_4  and  C_5 
REMARK       I    between atoms: C_5  and  N_6 
REMARK    3  A    between atoms: N_6  and  N_7 
REMARK       I    between atoms: N_7  and  C_8 
REMARK    4  A    between atoms: C_8  and  C_9 
REMARK    5  A    between atoms: C_13  and  C_14 
REMARK    6  A    between atoms: C_17  and  O_18 
ROOT
HETATM    1  N   UNL     1      41.801 -16.270  -0.338  1.00  0.00    -0.262 N 
HETATM    2  C   UNL     1      41.459 -14.949  -0.544  1.00  0.00     0.288 C 
HETATM    3  O   UNL     1      41.894 -14.041   0.160  1.00  0.00    -0.264 OA
HETATM    4  H   UNL     1      41.651 -16.976  -1.057  1.00  0.00     0.190 HD
ENDROOT
BRANCH   2   5
HETATM    5  C   UNL     1      40.551 -14.726  -1.637  1.00  0.00     0.121 A 
HETATM    6  N   UNL     1      40.934 -14.837  -2.942  1.00  0.00    -0.272 N 
HETATM    7  H   UNL     1      41.854 -15.094  -3.291  1.00  0.00     0.189 HD
HETATM    8  N   UNL     1      39.966 -14.552  -3.825  1.00  0.00    -0.174 NA
HETATM    9  C   UNL     1      38.899 -14.230  -3.076  1.00  0.00     0.089 A 
HETATM   10  C   UNL     1      39.225 -14.346  -1.695  1.00  0.00     0.071 A 
BRANCH   9  11
HETATM   11  C   UNL     1      37.628 -13.799  -3.674  1.00  0.00    -0.005 A 
HETATM   12  C   UNL     1      36.742 -14.738  -4.220  1.00  0.00     0.016 A 
HETATM   13  C   UNL     1      35.549 -14.328  -4.828  1.00  0.00     0.037 A 
HETATM   14  C   UNL     1      35.217 -12.976  -4.902  1.00  0.00     0.068 A 
HETATM   15  C   UNL     1      36.080 -12.034  -4.348  1.00  0.00     0.037 A 
HETATM   16  C   UNL     1      37.276 -12.443  -3.740  1.00  0.00     0.016 A 
BRANCH  14  17
HETATM   17  O   UNL     1      34.033 -12.708  -5.532  1.00  0.00    -0.356 OA
HETATM   18  C   UNL     1      34.107 -12.014  -6.771  1.00  0.00     0.210 C 
ENDBRANCH  14  17
ENDBRANCH   9  11
ENDBRANCH   2   5
BRANCH   1  19
HETATM   19  N   UNL     1      42.760 -16.590   0.629  1.00  0.00    -0.267 N 
HETATM   20  C   UNL     1      42.340 -17.319   1.724  1.00  0.00     0.240 C 
HETATM   21  O   UNL     1      41.160 -17.640   1.875  1.00  0.00    -0.272 OA
HETATM   22  H   UNL     1      43.739 -16.484   0.364  1.00  0.00     0.190 HD
BRANCH  20  23
HETATM   23  C   UNL     1      43.428 -17.636   2.733  1.00  0.00     0.143 C 
BRANCH  23  24
HETATM   24  C   UNL     1      43.788 -19.107   2.864  1.00  0.00    -0.043 A 
HETATM   25  C   UNL     1      44.410 -19.597   4.036  1.00  0.00    -0.055 A 
HETATM   26  C   UNL     1      44.704 -18.714   5.219  1.00  0.00     0.049 C 
HETATM   27  C   UNL     1      44.736 -20.961   4.130  1.00  0.00     0.007 A 
HETATM   28  C   UNL     1      44.494 -21.832   3.071  1.00  0.00     0.001 A 
HETATM   29  C   UNL     1      43.921 -21.351   1.902  1.00  0.00     0.001 A 
HETATM   30  C   UNL     1      43.579 -20.003   1.797  1.00  0.00     0.008 A 
ENDBRANCH  23  24
ENDBRANCH  20  23
ENDBRANCH   1  19
TORSDOF 6
ENDMDL
MODEL 4
REMARK VINA RESULT:      -8.4      1.638      2.236
REMARK  6 active torsions:
REMARK  status: ('A' for Active; 'I' for Inactive)
REMARK    1  A    between atoms: C_3  and  C_4 
REMARK    2  A    between atoms: C_4  and  C_5 
REMARK       I    between atoms: C_5  and  N_6 
REMARK    3  A    between atoms: N_6  and  N_7 
REMARK       I    between atoms: N_7  and  C_8 
REMARK    4  A    between atoms: C_8  and  C_9 
REMARK    5  A    between atoms: C_13  and  C_14 
REMARK    6  A    between atoms: C_17  and  O_18 
ROOT
HETATM    1  N   UNL     1      43.723 -12.177   8.476  1.00  0.00    -0.262 N 
HETATM    2  C   UNL     1      44.716 -13.005   7.994  1.00  0.00     0.288 C 
HETATM    3  O   UNL     1      45.907 -12.809   8.231  1.00  0.00    -0.264 OA
HETATM    4  H   UNL     1      42.749 -12.473   8.497  1.00  0.00     0.190 HD
ENDROOT
BRANCH   2   5
HETATM    5  C   UNL     1      44.248 -14.101   7.189  1.00  0.00     0.121 A 
HETATM    6  N   UNL     1      42.957 -14.193   6.757  1.00  0.00    -0.272 N 
HETATM    7  H   UNL     1      42.206 -13.530   6.926  1.00  0.00     0.189 HD
HETATM    8  N   UNL     1      42.691 -15.304   6.054  1.00  0.00    -0.174 NA
HETATM    9  C   UNL     1      43.851 -15.980   6.024  1.00  0.00     0.089 A 
HETATM   10  C   UNL     1      44.858 -15.244   6.712  1.00  0.00     0.071 A 
BRANCH   9  11
HETATM   11  C   UNL     1      43.970 -17.296   5.382  1.00  0.00    -0.005 A 
HETATM   12  C   UNL     1      44.600 -18.359   6.042  1.00  0.00     0.016 A 
HETATM   13  C   UNL     1      44.751 -19.602   5.417  1.00  0.00     0.037 A 
HETATM   14  C   UNL     1      44.277 -19.810   4.122  1.00  0.00     0.068 A 
HETATM   15  C   UNL     1      43.633 -18.767   3.461  1.00  0.00     0.037 A 
HETATM   16  C   UNL     1      43.481 -17.521   4.086  1.00  0.00     0.016 A 
BRANCH  14  17
HETATM   17  O   UNL     1      44.500 -21.063   3.622  1.00  0.00    -0.356 OA
HETATM   18  C   UNL     1      44.784 -22.090   4.564  1.00  0.00     0.210 C 
ENDBRANCH  14  17
ENDBRANCH   9  11
ENDBRANCH   2   5
BRANCH   1  19
HETATM   19  N   UNL     1      44.057 -11.143   9.358  1.00  0.00    -0.267 N 
HETATM   20  C   UNL     1      43.091 -10.741  10.260  1.00  0.00     0.240 C 
HETATM   21  O   UNL     1      41.963 -11.235  10.266  1.00  0.00    -0.272 OA
HETATM   22  H   UNL     1      45.045 -10.914   9.451  1.00  0.00     0.190 HD
BRANCH  20  23
HETATM   23  C   UNL     1      43.517  -9.620  11.190  1.00  0.00     0.143 C 
BRANCH  23  24
HETATM   24  C   UNL     1      42.698  -9.481  12.463  1.00  0.00    -0.043 A 
HETATM   25  C   UNL     1      41.655  -8.530  12.551  1.00  0.00    -0.055 A 
HETATM   26  C   UNL     1      41.271  -7.647  11.393  1.00  0.00     0.049 C 
HETATM   27  C   UNL     1      40.915  -8.419  13.741  1.00  0.00     0.007 A 
HETATM   28  C   UNL     1      41.219  -9.203  14.851  1.00  0.00     0.001 A 
HETATM   29  C   UNL     1      42.268 -10.110  14.786  1.00  0.00     0.001 A 
HETATM   30  C   UNL     1      43.004 -10.242  13.608  1.00  0.00     0.008 A 
ENDBRANCH  23  24
ENDBRANCH  20  23
ENDBRANCH   1  19
TORSDOF 6
ENDMDL
MODEL 5
REMARK VINA RESULT:      -8.4      1.943      2.546
REMARK  6 active torsions:
REMARK  status: ('A' for Active; 'I' for Inactive)
REMARK    1  A    between atoms: C_3  and  C_4 
REMARK    2  A    between atoms: C_4  and  C_5 
REMARK       I    between atoms: C_5  and  N_6 
REMARK    3  A    between atoms: N_6  and  N_7 
REMARK       I    between atoms: N_7  and  C_8 
REMARK    4  A    between atoms: C_8  and  C_9 
REMARK    5  A    between atoms: C_13  and  C_14 
REMARK    6  A    between atoms: C_17  and  O_18 
ROOT
HETATM    1  N   UNL     1      43.321 -13.410   6.913  1.00  0.00    -0.262 N 
HETATM    2  C   UNL     1      42.521 -13.348   5.791  1.00  0.00     0.288 C 
HETATM    3  O   UNL     1      41.802 -12.381   5.550  1.00  0.00    -0.264 OA
HETATM    4  H   UNL     1      44.089 -14.076   6.982  1.00  0.00     0.190 HD
ENDROOT
BRANCH   2   5
HETATM    5  C   UNL     1      42.589 -14.504   4.938  1.00  0.00     0.121 A 
HETATM    6  N   UNL     1      41.845 -14.619   3.799  1.00  0.00    -0.272 N 
HETATM    7  H   UNL     1      41.197 -13.935   3.420  1.00  0.00     0.189 HD
HETATM    8  N   UNL     1      42.007 -15.782   3.152  1.00  0.00    -0.174 NA
HETATM    9  C   UNL     1      42.888 -16.472   3.896  1.00  0.00     0.089 A 
HETATM   10  C   UNL     1      43.290 -15.691   5.017  1.00  0.00     0.071 A 
BRANCH   9  11
HETATM   11  C   UNL     1      43.299 -17.839   3.550  1.00  0.00    -0.005 A 
HETATM   12  C   UNL     1      44.017 -18.622   4.463  1.00  0.00     0.016 A 
HETATM   13  C   UNL     1      44.445 -19.910   4.122  1.00  0.00     0.037 A 
HETATM   14  C   UNL     1      44.166 -20.443   2.864  1.00  0.00     0.068 A 
HETATM   15  C   UNL     1      43.437 -19.682   1.953  1.00  0.00     0.037 A 
HETATM   16  C   UNL     1      43.008 -18.391   2.293  1.00  0.00     0.016 A 
BRANCH  14  17
HETATM   17  O   UNL     1      44.652 -21.704   2.652  1.00  0.00    -0.356 OA
HETATM   18  C   UNL     1      44.665 -22.583   3.769  1.00  0.00     0.210 C 
ENDBRANCH  14  17
ENDBRANCH   9  11
ENDBRANCH   2   5
BRANCH   1  19
HETATM   19  N   UNL     1      43.414 -12.296   7.755  1.00  0.00    -0.267 N 
HETATM   20  C   UNL     1      44.438 -12.284   8.682  1.00  0.00     0.240 C 
HETATM   21  O   UNL     1      45.216 -13.231   8.801  1.00  0.00    -0.272 OA
HETATM   22  H   UNL     1      42.887 -11.466   7.486  1.00  0.00     0.190 HD
BRANCH  20  23
HETATM   23  C   UNL     1      44.485 -11.048   9.561  1.00  0.00     0.143 C 
BRANCH  23  24
HETATM   24  C   UNL     1      43.239 -10.790  10.392  1.00  0.00    -0.043 A 
HETATM   25  C   UNL     1      42.995 -11.526  11.575  1.00  0.00    -0.055 A 
HETATM   26  C   UNL     1      43.961 -12.558  12.094  1.00  0.00     0.049 C 
HETATM   27  C   UNL     1      41.833 -11.270  12.324  1.00  0.00     0.007 A 
HETATM   28  C   UNL     1      40.897 -10.331  11.899  1.00  0.00     0.001 A 
HETATM   29  C   UNL     1      41.110  -9.634  10.718  1.00  0.00     0.001 A 
HETATM   30  C   UNL     1      42.264  -9.866   9.969  1.00  0.00     0.008 A 
ENDBRANCH  23  24
ENDBRANCH  20  23
ENDBRANCH   1  19
TORSDOF 6
ENDMDL
MODEL 6
REMARK VINA RESULT:      -8.3      2.343      2.823
REMARK  6 active torsions:
REMARK  status: ('A' for Active; 'I' for Inactive)
REMARK    1  A    between atoms: C_3  and  C_4 
REMARK    2  A    between atoms: C_4  and  C_5 
REMARK       I    between atoms: C_5  and  N_6 
REMARK    3  A    between atoms: N_6  and  N_7 
REMARK       I    between atoms: N_7  and  C_8 
REMARK    4  A    between atoms: C_8  and  C_9 
REMARK    5  A    between atoms: C_13  and  C_14 
REMARK    6  A    between atoms: C_17  and  O_18 
ROOT
HETATM    1  N   UNL     1      42.186 -12.708   6.736  1.00  0.00    -0.262 N 
HETATM    2  C   UNL     1      41.944 -12.624   5.380  1.00  0.00     0.288 C 
HETATM    3  O   UNL     1      41.306 -11.698   4.883  1.00  0.00    -0.264 OA
HETATM    4  H   UNL     1      42.911 -13.318   7.109  1.00  0.00     0.190 HD
ENDROOT
BRANCH   2   5
HETATM    5  C   UNL     1      42.488 -13.705   4.603  1.00  0.00     0.121 A 
HETATM    6  N   UNL     1      42.818 -13.567   3.285  1.00  0.00    -0.272 N 
HETATM    7  H   UNL     1      42.742 -12.725   2.720  1.00  0.00     0.189 HD
HETATM    8  N   UNL     1      43.271 -14.691   2.712  1.00  0.00    -0.174 NA
HETATM    9  C   UNL     1      43.232 -15.616   3.685  1.00  0.00     0.089 A 
HETATM   10  C   UNL     1      42.763 -15.027   4.894  1.00  0.00     0.071 A 
BRANCH   9  11
HETATM   11  C   UNL     1      43.606 -17.016   3.445  1.00  0.00    -0.005 A 
HETATM   12  C   UNL     1      43.739 -17.505   2.139  1.00  0.00     0.016 A 
HETATM   13  C   UNL     1      44.055 -18.849   1.906  1.00  0.00     0.037 A 
HETATM   14  C   UNL     1      44.246 -19.730   2.970  1.00  0.00     0.068 A 
HETATM   15  C   UNL     1      44.134 -19.253   4.273  1.00  0.00     0.037 A 
HETATM   16  C   UNL     1      43.816 -17.907   4.508  1.00  0.00     0.016 A 
BRANCH  14  17
HETATM   17  O   UNL     1      44.536 -21.017   2.607  1.00  0.00    -0.356 OA
HETATM   18  C   UNL     1      43.621 -21.658   1.727  1.00  0.00     0.210 C 
ENDBRANCH  14  17
ENDBRANCH   9  11
ENDBRANCH   2   5
BRANCH   1  19
HETATM   19  N   UNL     1      41.796 -11.656   7.571  1.00  0.00    -0.267 N 
HETATM   20  C   UNL     1      42.753 -11.128   8.416  1.00  0.00     0.240 C 
HETATM   21  O   UNL     1      43.894 -11.588   8.472  1.00  0.00    -0.272 OA
HETATM   22  H   UNL     1      40.921 -11.185   7.346  1.00  0.00     0.190 HD
BRANCH  20  23
HETATM   23  C   UNL     1      42.267  -9.988   9.292  1.00  0.00     0.143 C 
BRANCH  23  24
HETATM   24  C   UNL     1      41.790 -10.388  10.679  1.00  0.00    -0.043 A 
HETATM   25  C   UNL     1      42.705 -10.506  11.752  1.00  0.00    -0.055 A 
HETATM   26  C   UNL     1      44.171 -10.202  11.595  1.00  0.00     0.049 C 
HETATM   27  C   UNL     1      42.238 -10.881  13.024  1.00  0.00     0.007 A 
HETATM   28  C   UNL     1      40.894 -11.178  13.236  1.00  0.00     0.001 A 
HETATM   29  C   UNL     1      39.998 -11.104  12.180  1.00  0.00     0.001 A 
HETATM   30  C   UNL     1      40.442 -10.720  10.914  1.00  0.00     0.008 A 
ENDBRANCH  23  24
ENDBRANCH  20  23
ENDBRANCH   1  19
TORSDOF 6
ENDMDL
MODEL 7
REMARK VINA RESULT:      -8.0      8.502     11.250
REMARK  6 active torsions:
REMARK  status: ('A' for Active; 'I' for Inactive)
REMARK    1  A    between atoms: C_3  and  C_4 
REMARK    2  A    between atoms: C_4  and  C_5 
REMARK       I    between atoms: C_5  and  N_6 
REMARK    3  A    between atoms: N_6  and  N_7 
REMARK       I    between atoms: N_7  and  C_8 
REMARK    4  A    between atoms: C_8  and  C_9 
REMARK    5  A    between atoms: C_13  and  C_14 
REMARK    6  A    between atoms: C_17  and  O_18 
ROOT
HETATM    1  N   UNL     1      40.209 -15.455  -1.668  1.00  0.00    -0.262 N 
HETATM    2  C   UNL     1      41.189 -15.129  -0.752  1.00  0.00     0.288 C 
HETATM    3  O   UNL     1      41.812 -14.071  -0.805  1.00  0.00    -0.264 OA
HETATM    4  H   UNL     1      39.533 -16.193  -1.482  1.00  0.00     0.190 HD
ENDROOT
BRANCH   2   5
HETATM    5  C   UNL     1      41.426 -16.127   0.256  1.00  0.00     0.121 A 
HETATM    6  N   UNL     1      40.456 -16.535   1.125  1.00  0.00    -0.272 N 
HETATM    7  H   UNL     1      39.491 -16.217   1.159  1.00  0.00     0.189 HD
HETATM    8  N   UNL     1      40.868 -17.442   2.023  1.00  0.00    -0.174 NA
HETATM    9  C   UNL     1      42.168 -17.637   1.744  1.00  0.00     0.089 A 
HETATM   10  C   UNL     1      42.548 -16.841   0.627  1.00  0.00     0.071 A 
BRANCH   9  11
HETATM   11  C   UNL     1      43.010 -18.535   2.546  1.00  0.00    -0.005 A 
HETATM   12  C   UNL     1      43.398 -19.785   2.046  1.00  0.00     0.016 A 
HETATM   13  C   UNL     1      44.166 -20.661   2.823  1.00  0.00     0.037 A 
HETATM   14  C   UNL     1      44.563 -20.307   4.112  1.00  0.00     0.068 A 
HETATM   15  C   UNL     1      44.198 -19.060   4.615  1.00  0.00     0.037 A 
HETATM   16  C   UNL     1      43.428 -18.183   3.838  1.00  0.00     0.016 A 
BRANCH  14  17
HETATM   17  O   UNL     1      45.297 -21.255   4.769  1.00  0.00    -0.356 OA
HETATM   18  C   UNL     1      44.881 -22.607   4.619  1.00  0.00     0.210 C 
ENDBRANCH  14  17
ENDBRANCH   9  11
ENDBRANCH   2   5
BRANCH   1  19
HETATM   19  N   UNL     1      39.823 -14.512  -2.627  1.00  0.00    -0.267 N 
HETATM   20  C   UNL     1      38.658 -13.808  -2.392  1.00  0.00     0.240 C 
HETATM   21  O   UNL     1      37.956 -14.027  -1.404  1.00  0.00    -0.272 OA
HETATM   22  H   UNL     1      40.526 -14.226  -3.306  1.00  0.00     0.190 HD
BRANCH  20  23
HETATM   23  C   UNL     1      38.297 -12.799  -3.466  1.00  0.00     0.143 C 
BRANCH  23  24
HETATM   24  C   UNL     1      36.844 -12.812  -3.912  1.00  0.00    -0.043 A 
HETATM   25  C   UNL     1      35.977 -11.743  -3.584  1.00  0.00    -0.055 A 
HETATM   26  C   UNL     1      36.448 -10.530  -2.826  1.00  0.00     0.049 C 
HETATM   27  C   UNL     1      34.637 -11.781  -4.006  1.00  0.00     0.007 A 
HETATM   28  C   UNL     1      34.136 -12.874  -4.708  1.00  0.00     0.001 A 
HETATM   29  C   UNL     1      34.970 -13.945  -4.999  1.00  0.00     0.001 A 
HETATM   30  C   UNL     1      36.306 -13.918  -4.599  1.00  0.00     0.008 A 
ENDBRANCH  23  24
ENDBRANCH  20  23
ENDBRANCH   1  19
TORSDOF 6
ENDMDL
MODEL 8
REMARK VINA RESULT:      -7.8      8.043     10.548
REMARK  6 active torsions:
REMARK  status: ('A' for Active; 'I' for Inactive)
REMARK    1  A    between atoms: C_3  and  C_4 
REMARK    2  A    between atoms: C_4  and  C_5 
REMARK       I    between atoms: C_5  and  N_6 
REMARK    3  A    between atoms: N_6  and  N_7 
REMARK       I    between atoms: N_7  and  C_8 
REMARK    4  A    between atoms: C_8  and  C_9 
REMARK    5  A    between atoms: C_13  and  C_14 
REMARK    6  A    between atoms: C_17  and  O_18 
ROOT
HETATM    1  N   UNL     1      40.281 -14.945  -1.282  1.00  0.00    -0.262 N 
HETATM    2  C   UNL     1      41.300 -14.838  -0.358  1.00  0.00     0.288 C 
HETATM    3  O   UNL     1      41.923 -13.792  -0.185  1.00  0.00    -0.264 OA
HETATM    4  H   UNL     1      39.612 -15.712  -1.249  1.00  0.00     0.190 HD
ENDROOT
BRANCH   2   5
HETATM    5  C   UNL     1      41.578 -16.044   0.374  1.00  0.00     0.121 A 
HETATM    6  N   UNL     1      40.622 -16.988   0.621  1.00  0.00    -0.272 N 
HETATM    7  H   UNL     1      39.651 -16.968   0.323  1.00  0.00     0.189 HD
HETATM    8  N   UNL     1      41.052 -18.026   1.354  1.00  0.00    -0.174 NA
HETATM    9  C   UNL     1      42.343 -17.757   1.611  1.00  0.00     0.089 A 
HETATM   10  C   UNL     1      42.713 -16.528   0.994  1.00  0.00     0.071 A 
BRANCH   9  11
HETATM   11  C   UNL     1      43.172 -18.639   2.443  1.00  0.00    -0.005 A 
HETATM   12  C   UNL     1      43.654 -19.852   1.936  1.00  0.00     0.016 A 
HETATM   13  C   UNL     1      44.410 -20.715   2.738  1.00  0.00     0.037 A 
HETATM   14  C   UNL     1      44.700 -20.384   4.062  1.00  0.00     0.068 A 
HETATM   15  C   UNL     1      44.241 -19.173   4.574  1.00  0.00     0.037 A 
HETATM   16  C   UNL     1      43.483 -18.308   3.771  1.00  0.00     0.016 A 
BRANCH  14  17
HETATM   17  O   UNL     1      45.433 -21.317   4.741  1.00  0.00    -0.356 OA
HETATM   18  C   UNL     1      44.796 -22.559   5.017  1.00  0.00     0.210 C 
ENDBRANCH  14  17
ENDBRANCH   9  11
ENDBRANCH   2   5
BRANCH   1  19
HETATM   19  N   UNL     1      39.856 -13.805  -1.974  1.00  0.00    -0.267 N 
HETATM   20  C   UNL     1      40.273 -13.664  -3.283  1.00  0.00     0.240 C 
HETATM   21  O   UNL     1      41.027 -14.480  -3.815  1.00  0.00    -0.272 OA
HETATM   22  H   UNL     1      39.085 -13.277  -1.568  1.00  0.00     0.190 HD
BRANCH  20  23
HETATM   23  C   UNL     1      39.776 -12.410  -3.977  1.00  0.00     0.143 C 
BRANCH  23  24
HETATM   24  C   UNL     1      40.689 -11.200  -3.873  1.00  0.00    -0.043 A 
HETATM   25  C   UNL     1      40.422 -10.026  -4.617  1.00  0.00    -0.055 A 
HETATM   26  C   UNL     1      39.213  -9.895  -5.504  1.00  0.00     0.049 C 
HETATM   27  C   UNL     1      41.285  -8.922  -4.504  1.00  0.00     0.007 A 
HETATM   28  C   UNL     1      42.422  -8.978  -3.703  1.00  0.00     0.001 A 
HETATM   29  C   UNL     1      42.713 -10.140  -3.002  1.00  0.00     0.001 A 
HETATM   30  C   UNL     1      41.860 -11.241  -3.091  1.00  0.00     0.008 A 
ENDBRANCH  23  24
ENDBRANCH  20  23
ENDBRANCH   1  19
TORSDOF 6
ENDMDL
MODEL 9
REMARK VINA RESULT:      -7.8      3.464      4.131
REMARK  6 active torsions:
REMARK  status: ('A' for Active; 'I' for Inactive)
REMARK    1  A    between atoms: C_3  and  C_4 
REMARK    2  A    between atoms: C_4  and  C_5 
REMARK       I    between atoms: C_5  and  N_6 
REMARK    3  A    between atoms: N_6  and  N_7 
REMARK       I    between atoms: N_7  and  C_8 
REMARK    4  A    between atoms: C_8  and  C_9 
REMARK    5  A    between atoms: C_13  and  C_14 
REMARK    6  A    between atoms: C_17  and  O_18 
ROOT
HETATM    1  N   UNL     1      43.743 -13.059   7.679  1.00  0.00    -0.262 N 
HETATM    2  C   UNL     1      44.540 -13.712   6.760  1.00  0.00     0.288 C 
HETATM    3  O   UNL     1      45.767 -13.695   6.826  1.00  0.00    -0.264 OA
HETATM    4  H   UNL     1      42.754 -13.278   7.774  1.00  0.00     0.190 HD
ENDROOT
BRANCH   2   5
HETATM    5  C   UNL     1      43.821 -14.401   5.723  1.00  0.00     0.121 A 
HETATM    6  N   UNL     1      43.271 -15.637   5.909  1.00  0.00    -0.272 N 
HETATM    7  H   UNL     1      43.283 -16.190   6.761  1.00  0.00     0.189 HD
HETATM    8  N   UNL     1      42.675 -16.143   4.819  1.00  0.00    -0.174 NA
HETATM    9  C   UNL     1      42.843 -15.209   3.868  1.00  0.00     0.089 A 
HETATM   10  C   UNL     1      43.543 -14.091   4.406  1.00  0.00     0.071 A 
BRANCH   9  11
HETATM   11  C   UNL     1      42.371 -15.406   2.491  1.00  0.00    -0.005 A 
HETATM   12  C   UNL     1      42.114 -14.307   1.661  1.00  0.00     0.016 A 
HETATM   13  C   UNL     1      41.625 -14.489   0.362  1.00  0.00     0.037 A 
HETATM   14  C   UNL     1      41.383 -15.770  -0.135  1.00  0.00     0.068 A 
HETATM   15  C   UNL     1      41.651 -16.871   0.674  1.00  0.00     0.037 A 
HETATM   16  C   UNL     1      42.140 -16.690   1.976  1.00  0.00     0.016 A 
BRANCH  14  17
HETATM   17  O   UNL     1      40.894 -15.809  -1.411  1.00  0.00    -0.356 OA
HETATM   18  C   UNL     1      41.133 -14.669  -2.226  1.00  0.00     0.210 C 
ENDBRANCH  14  17
ENDBRANCH   9  11
ENDBRANCH   2   5
BRANCH   1  19
HETATM   19  N   UNL     1      44.334 -12.447   8.790  1.00  0.00    -0.267 N 
HETATM   20  C   UNL     1      43.898 -11.179   9.123  1.00  0.00     0.240 C 
HETATM   21  O   UNL     1      43.057 -10.585   8.448  1.00  0.00    -0.272 OA
HETATM   22  H   UNL     1      44.863 -13.045   9.423  1.00  0.00     0.190 HD
BRANCH  20  23
HETATM   23  C   UNL     1      44.575 -10.573  10.338  1.00  0.00     0.143 C 
BRANCH  23  24
HETATM   24  C   UNL     1      43.658 -10.268  11.512  1.00  0.00    -0.043 A 
HETATM   25  C   UNL     1      43.258 -11.293  12.401  1.00  0.00    -0.055 A 
HETATM   26  C   UNL     1      43.745 -12.711  12.266  1.00  0.00     0.049 C 
HETATM   27  C   UNL     1      42.407 -10.984  13.477  1.00  0.00     0.007 A 
HETATM   28  C   UNL     1      41.917  -9.693  13.658  1.00  0.00     0.001 A 
HETATM   29  C   UNL     1      42.273  -8.691  12.766  1.00  0.00     0.001 A 
HETATM   30  C   UNL     1      43.128  -8.977  11.701  1.00  0.00     0.008 A 
ENDBRANCH  23  24
ENDBRANCH  20  23
ENDBRANCH   1  19
TORSDOF 6
ENDMDL
MODEL 10
REMARK VINA RESULT:      -7.6      7.724     11.808
REMARK  6 active torsions:
REMARK  status: ('A' for Active; 'I' for Inactive)
REMARK    1  A    between atoms: C_3  and  C_4 
REMARK    2  A    between atoms: C_4  and  C_5 
REMARK       I    between atoms: C_5  and  N_6 
REMARK    3  A    between atoms: N_6  and  N_7 
REMARK       I    between atoms: N_7  and  C_8 
REMARK    4  A    between atoms: C_8  and  C_9 
REMARK    5  A    between atoms: C_13  and  C_14 
REMARK    6  A    between atoms: C_17  and  O_18 
ROOT
HETATM    1  N   UNL     1      41.869 -16.287   0.067  1.00  0.00    -0.262 N 
HETATM    2  C   UNL     1      41.481 -15.084   0.621  1.00  0.00     0.288 C 
HETATM    3  O   UNL     1      42.090 -14.565   1.554  1.00  0.00    -0.264 OA
HETATM    4  H   UNL     1      41.530 -16.585  -0.846  1.00  0.00     0.190 HD
ENDROOT
BRANCH   2   5
HETATM    5  C   UNL     1      40.310 -14.497   0.027  1.00  0.00     0.121 A 
HETATM    6  N   UNL     1      39.917 -14.778  -1.250  1.00  0.00    -0.272 N 
HETATM    7  H   UNL     1      40.366 -15.414  -1.903  1.00  0.00     0.189 HD
HETATM    8  N   UNL     1      38.826 -14.108  -1.648  1.00  0.00    -0.174 NA
HETATM    9  C   UNL     1      38.486 -13.344  -0.597  1.00  0.00     0.089 A 
HETATM   10  C   UNL     1      39.386 -13.578   0.482  1.00  0.00     0.071 A 
BRANCH   9  11
HETATM   11  C   UNL     1      37.355 -12.408  -0.647  1.00  0.00    -0.005 A 
HETATM   12  C   UNL     1      36.648 -12.079   0.517  1.00  0.00     0.016 A 
HETATM   13  C   UNL     1      35.545 -11.220   0.467  1.00  0.00     0.037 A 
HETATM   14  C   UNL     1      35.124 -10.671  -0.745  1.00  0.00     0.068 A 
HETATM   15  C   UNL     1      35.829 -10.976  -1.907  1.00  0.00     0.037 A 
HETATM   16  C   UNL     1      36.934 -11.837  -1.858  1.00  0.00     0.016 A 
BRANCH  14  17
HETATM   17  O   UNL     1      34.027  -9.860  -0.659  1.00  0.00    -0.356 OA
HETATM   18  C   UNL     1      33.010 -10.250   0.255  1.00  0.00     0.210 C 
ENDBRANCH  14  17
ENDBRANCH   9  11
ENDBRANCH   2   5
BRANCH   1  19
HETATM   19  N   UNL     1      43.055 -16.892   0.495  1.00  0.00    -0.267 N 
HETATM   20  C   UNL     1      42.945 -17.976   1.344  1.00  0.00     0.240 C 
HETATM   21  O   UNL     1      41.852 -18.373   1.750  1.00  0.00    -0.272 OA
HETATM   22  H   UNL     1      43.905 -16.664  -0.019  1.00  0.00     0.190 HD
BRANCH  20  23
HETATM   23  C   UNL     1      44.266 -18.589   1.769  1.00  0.00     0.143 C 
BRANCH  23  24
HETATM   24  C   UNL     1      44.298 -19.161   3.177  1.00  0.00    -0.043 A 
HETATM   25  C   UNL     1      44.412 -20.555   3.388  1.00  0.00    -0.055 A 
HETATM   26  C   UNL     1      44.552 -21.532   2.250  1.00  0.00     0.049 C 
HETATM   27  C   UNL     1      44.436 -21.059   4.700  1.00  0.00     0.007 A 
HETATM   28  C   UNL     1      44.309 -20.211   5.797  1.00  0.00     0.001 A 
HETATM   29  C   UNL     1      44.155 -18.846   5.597  1.00  0.00     0.001 A 
HETATM   30  C   UNL     1      44.143 -18.328   4.302  1.00  0.00     0.008 A 
ENDBRANCH  23  24
ENDBRANCH  20  23
ENDBRANCH   1  19
TORSDOF 6
ENDMDL
