MODEL 1
REMARK VINA RESULT:      -8.5      0.000      0.000
REMARK  4 active torsions:
REMARK  status: ('A' for Active; 'I' for Inactive)
REMARK    1  A    between atoms: C_3  and  N_4 
REMARK       I    between atoms: N_4  and  C_5 
REMARK       I    between atoms: C_5  and  N_6 
REMARK    2  A    between atoms: N_6  and  C_7 
REMARK    3  A    between atoms: C_7  and  C_8 
REMARK    4  A    between atoms: C_11  and  C_12 
ROOT
HETATM    1  N   UNL     1      43.406 -15.667   7.038  1.00  0.00    -0.309 N 
HETATM    2  C   UNL     1      44.187 -14.543   6.865  1.00  0.00     0.321 C 
HETATM    3  N   UNL     1      44.394 -13.910   8.072  1.00  0.00    -0.335 N 
HETATM    4  O   UNL     1      44.712 -14.166   5.828  1.00  0.00    -0.247 OA
HETATM    5  H   UNL     1      43.565 -16.100   7.936  1.00  0.00     0.170 HD
HETATM    6  H   UNL     1      43.639 -13.966   8.742  1.00  0.00     0.164 HD
ENDROOT
BRANCH   3   7
HETATM    7  C   UNL     1      45.294 -12.775   8.157  1.00  0.00     0.213 C 
BRANCH   7   8
HETATM    8  C   UNL     1      44.924 -11.805   9.220  1.00  0.00     0.190 A 
HETATM    9  O   UNL     1      45.558 -10.598   9.257  1.00  0.00    -0.194 OA
HETATM   10  N   UNL     1      45.022  -9.901  10.340  1.00  0.00    -0.106 NA
HETATM   11  C   UNL     1      44.134 -10.759  10.869  1.00  0.00     0.189 A 
HETATM   12  N   UNL     1      44.034 -11.949  10.177  1.00  0.00    -0.202 NA
BRANCH  11  13
HETATM   13  C   UNL     1      43.340 -10.494  12.066  1.00  0.00     0.014 A 
HETATM   14  C   UNL     1      43.753  -9.555  13.021  1.00  0.00     0.015 A 
HETATM   15  C   UNL     1      42.988  -9.322  14.168  1.00  0.00     0.001 A 
HETATM   16  C   UNL     1      41.802 -10.025  14.372  1.00  0.00     0.000 A 
HETATM   17  C   UNL     1      41.378 -10.961  13.430  1.00  0.00     0.001 A 
HETATM   18  C   UNL     1      42.142 -11.192  12.284  1.00  0.00     0.015 A 
ENDBRANCH  11  13
ENDBRANCH   7   8
ENDBRANCH   3   7
BRANCH   1  19
HETATM   19  C   UNL     1      43.044 -16.554   5.997  1.00  0.00     0.042 A 
HETATM   20  C   UNL     1      43.768 -17.706   5.642  1.00  0.00    -0.035 A 
HETATM   21  C   UNL     1      45.080 -18.101   6.263  1.00  0.00     0.050 C 
HETATM   22  C   UNL     1      43.257 -18.540   4.627  1.00  0.00     0.009 A 
HETATM   23  C   UNL     1      42.090 -18.212   3.940  1.00  0.00     0.001 A 
HETATM   24  C   UNL     1      41.416 -17.037   4.248  1.00  0.00     0.002 A 
HETATM   25  C   UNL     1      41.897 -16.209   5.262  1.00  0.00     0.030 A 
ENDBRANCH   1  19
TORSDOF 4
ENDMDL
MODEL 2
REMARK VINA RESULT:      -8.5      0.388      1.492
REMARK  4 active torsions:
REMARK  status: ('A' for Active; 'I' for Inactive)
REMARK    1  A    between atoms: C_3  and  N_4 
REMARK       I    between atoms: N_4  and  C_5 
REMARK       I    between atoms: C_5  and  N_6 
REMARK    2  A    between atoms: N_6  and  C_7 
REMARK    3  A    between atoms: C_7  and  C_8 
REMARK    4  A    between atoms: C_11  and  C_12 
ROOT
HETATM    1  N   UNL     1      43.307 -15.670   6.996  1.00  0.00    -0.309 N 
HETATM    2  C   UNL     1      44.079 -14.536   6.851  1.00  0.00     0.321 C 
HETATM    3  N   UNL     1      44.360 -13.984   8.083  1.00  0.00    -0.335 N 
HETATM    4  O   UNL     1      44.542 -14.089   5.811  1.00  0.00    -0.247 OA
HETATM    5  H   UNL     1      43.520 -16.162   7.851  1.00  0.00     0.170 HD
HETATM    6  H   UNL     1      43.647 -14.086   8.791  1.00  0.00     0.164 HD
ENDROOT
BRANCH   3   7
HETATM    7  C   UNL     1      45.266 -12.855   8.187  1.00  0.00     0.213 C 
BRANCH   7   8
HETATM    8  C   UNL     1      44.867 -11.872   9.227  1.00  0.00     0.190 A 
HETATM    9  O   UNL     1      45.444 -10.637   9.218  1.00  0.00    -0.194 OA
HETATM   10  N   UNL     1      44.892  -9.932  10.287  1.00  0.00    -0.106 NA
HETATM   11  C   UNL     1      44.052 -10.812  10.855  1.00  0.00     0.189 A 
HETATM   12  N   UNL     1      43.997 -12.026  10.201  1.00  0.00    -0.202 NA
BRANCH  11  13
HETATM   13  C   UNL     1      43.263 -10.547  12.055  1.00  0.00     0.014 A 
HETATM   14  C   UNL     1      43.708  -9.649  13.035  1.00  0.00     0.015 A 
HETATM   15  C   UNL     1      42.946  -9.416  14.184  1.00  0.00     0.001 A 
HETATM   16  C   UNL     1      41.733 -10.078  14.367  1.00  0.00     0.000 A 
HETATM   17  C   UNL     1      41.278 -10.972  13.400  1.00  0.00     0.001 A 
HETATM   18  C   UNL     1      42.039 -11.205  12.251  1.00  0.00     0.015 A 
ENDBRANCH  11  13
ENDBRANCH   7   8
ENDBRANCH   3   7
BRANCH   1  19
HETATM   19  C   UNL     1      42.881 -16.487   5.921  1.00  0.00     0.042 A 
HETATM   20  C   UNL     1      41.614 -16.414   5.317  1.00  0.00    -0.035 A 
HETATM   21  C   UNL     1      40.504 -15.519   5.793  1.00  0.00     0.050 C 
HETATM   22  C   UNL     1      41.344 -17.243   4.209  1.00  0.00     0.009 A 
HETATM   23  C   UNL     1      42.285 -18.162   3.747  1.00  0.00     0.001 A 
HETATM   24  C   UNL     1      43.509 -18.277   4.391  1.00  0.00     0.002 A 
HETATM   25  C   UNL     1      43.800 -17.452   5.478  1.00  0.00     0.030 A 
ENDBRANCH   1  19
TORSDOF 4
ENDMDL
MODEL 3
REMARK VINA RESULT:      -8.5      1.321      9.143
REMARK  4 active torsions:
REMARK  status: ('A' for Active; 'I' for Inactive)
REMARK    1  A    between atoms: C_3  and  N_4 
REMARK       I    between atoms: N_4  and  C_5 
REMARK       I    between atoms: C_5  and  N_6 
REMARK    2  A    between atoms: N_6  and  C_7 
REMARK    3  A    between atoms: C_7  and  C_8 
REMARK    4  A    between atoms: C_11  and  C_12 
ROOT
HETATM    1  N   UNL     1      42.807 -11.050  10.794  1.00  0.00    -0.309 N 
HETATM    2  C   UNL     1      43.829 -11.898  10.421  1.00  0.00     0.321 C 
HETATM    3  N   UNL     1      43.795 -12.124   9.062  1.00  0.00    -0.335 N 
HETATM    4  O   UNL     1      44.713 -12.343  11.139  1.00  0.00    -0.247 OA
HETATM    5  H   UNL     1      42.589 -10.383  10.068  1.00  0.00     0.170 HD
HETATM    6  H   UNL     1      42.880 -12.133   8.633  1.00  0.00     0.164 HD
ENDROOT
BRANCH   3   7
HETATM    7  C   UNL     1      44.853 -12.884   8.422  1.00  0.00     0.213 C 
BRANCH   7   8
HETATM    8  C   UNL     1      44.356 -13.854   7.412  1.00  0.00     0.190 A 
HETATM    9  O   UNL     1      43.390 -13.453   6.537  1.00  0.00    -0.194 OA
HETATM   10  N   UNL     1      43.118 -14.548   5.717  1.00  0.00    -0.106 NA
HETATM   11  C   UNL     1      43.926 -15.512   6.187  1.00  0.00     0.189 A 
HETATM   12  N   UNL     1      44.729 -15.102   7.231  1.00  0.00    -0.202 NA
BRANCH  11  13
HETATM   13  C   UNL     1      43.971 -16.878   5.671  1.00  0.00     0.014 A 
HETATM   14  C   UNL     1      44.697 -17.881   6.328  1.00  0.00     0.015 A 
HETATM   15  C   UNL     1      44.740 -19.181   5.815  1.00  0.00     0.001 A 
HETATM   16  C   UNL     1      44.058 -19.492   4.640  1.00  0.00     0.000 A 
HETATM   17  C   UNL     1      43.331 -18.505   3.977  1.00  0.00     0.001 A 
HETATM   18  C   UNL     1      43.287 -17.207   4.491  1.00  0.00     0.015 A 
ENDBRANCH  11  13
ENDBRANCH   7   8
ENDBRANCH   3   7
BRANCH   1  19
HETATM   19  C   UNL     1      42.591 -10.594  12.117  1.00  0.00     0.042 A 
HETATM   20  C   UNL     1      41.481 -10.937  12.909  1.00  0.00    -0.035 A 
HETATM   21  C   UNL     1      40.322 -11.762  12.422  1.00  0.00     0.050 C 
HETATM   22  C   UNL     1      41.426 -10.464  14.235  1.00  0.00     0.009 A 
HETATM   23  C   UNL     1      42.415  -9.626  14.748  1.00  0.00     0.001 A 
HETATM   24  C   UNL     1      43.474  -9.236  13.939  1.00  0.00     0.002 A 
HETATM   25  C   UNL     1      43.554  -9.708  12.628  1.00  0.00     0.030 A 
ENDBRANCH   1  19
TORSDOF 4
ENDMDL
MODEL 4
REMARK VINA RESULT:      -8.2      5.672      9.346
REMARK  4 active torsions:
REMARK  status: ('A' for Active; 'I' for Inactive)
REMARK    1  A    between atoms: C_3  and  N_4 
REMARK       I    between atoms: N_4  and  C_5 
REMARK       I    between atoms: C_5  and  N_6 
REMARK    2  A    between atoms: N_6  and  C_7 
REMARK    3  A    between atoms: C_7  and  C_8 
REMARK    4  A    between atoms: C_11  and  C_12 
ROOT
HETATM    1  N   UNL     1      40.293 -15.126   4.871  1.00  0.00    -0.309 N 
HETATM    2  C   UNL     1      41.610 -15.150   5.279  1.00  0.00     0.321 C 
HETATM    3  N   UNL     1      41.747 -15.914   6.418  1.00  0.00    -0.335 N 
HETATM    4  O   UNL     1      42.567 -14.652   4.705  1.00  0.00    -0.247 OA
HETATM    5  H   UNL     1      39.816 -15.989   5.088  1.00  0.00     0.170 HD
HETATM    6  H   UNL     1      40.965 -15.906   7.058  1.00  0.00     0.164 HD
ENDROOT
BRANCH   3   7
HETATM    7  C   UNL     1      43.065 -16.190   6.959  1.00  0.00     0.213 C 
BRANCH   7   8
HETATM    8  C   UNL     1      43.762 -17.310   6.275  1.00  0.00     0.190 A 
HETATM    9  O   UNL     1      45.067 -17.557   6.583  1.00  0.00    -0.194 OA
HETATM   10  N   UNL     1      45.460 -18.645   5.805  1.00  0.00    -0.106 NA
HETATM   11  C   UNL     1      44.366 -18.939   5.084  1.00  0.00     0.189 A 
HETATM   12  N   UNL     1      43.281 -18.136   5.372  1.00  0.00    -0.202 NA
BRANCH  11  13
HETATM   13  C   UNL     1      44.297 -19.994   4.076  1.00  0.00     0.014 A 
HETATM   14  C   UNL     1      44.721 -21.300   4.360  1.00  0.00     0.015 A 
HETATM   15  C   UNL     1      44.660 -22.296   3.380  1.00  0.00     0.001 A 
HETATM   16  C   UNL     1      44.176 -21.998   2.108  1.00  0.00     0.000 A 
HETATM   17  C   UNL     1      43.750 -20.704   1.812  1.00  0.00     0.001 A 
HETATM   18  C   UNL     1      43.810 -19.709   2.791  1.00  0.00     0.015 A 
ENDBRANCH  11  13
ENDBRANCH   7   8
ENDBRANCH   3   7
BRANCH   1  19
HETATM   19  C   UNL     1      39.829 -14.458   3.712  1.00  0.00     0.042 A 
HETATM   20  C   UNL     1      39.701 -15.053   2.445  1.00  0.00    -0.035 A 
HETATM   21  C   UNL     1      40.128 -16.459   2.128  1.00  0.00     0.050 C 
HETATM   22  C   UNL     1      39.162 -14.289   1.391  1.00  0.00     0.009 A 
HETATM   23  C   UNL     1      38.812 -12.951   1.571  1.00  0.00     0.001 A 
HETATM   24  C   UNL     1      39.006 -12.349   2.807  1.00  0.00     0.002 A 
HETATM   25  C   UNL     1      39.521 -13.096   3.867  1.00  0.00     0.030 A 
ENDBRANCH   1  19
TORSDOF 4
ENDMDL
MODEL 5
REMARK VINA RESULT:      -8.1      1.485      8.832
REMARK  4 active torsions:
REMARK  status: ('A' for Active; 'I' for Inactive)
REMARK    1  A    between atoms: C_3  and  N_4 
REMARK       I    between atoms: N_4  and  C_5 
REMARK       I    between atoms: C_5  and  N_6 
REMARK    2  A    between atoms: N_6  and  C_7 
REMARK    3  A    between atoms: C_7  and  C_8 
REMARK    4  A    between atoms: C_11  and  C_12 
ROOT
HETATM    1  N   UNL     1      42.778 -11.748  11.082  1.00  0.00    -0.309 N 
HETATM    2  C   UNL     1      43.498 -11.552   9.922  1.00  0.00     0.321 C 
HETATM    3  N   UNL     1      44.280 -12.654   9.648  1.00  0.00    -0.335 N 
HETATM    4  O   UNL     1      43.427 -10.595   9.166  1.00  0.00    -0.247 OA
HETATM    5  H   UNL     1      42.532 -12.719  11.212  1.00  0.00     0.170 HD
HETATM    6  H   UNL     1      44.638 -13.158  10.448  1.00  0.00     0.164 HD
ENDROOT
BRANCH   3   7
HETATM    7  C   UNL     1      45.028 -12.729   8.407  1.00  0.00     0.213 C 
BRANCH   7   8
HETATM    8  C   UNL     1      44.465 -13.703   7.436  1.00  0.00     0.190 A 
HETATM    9  O   UNL     1      43.447 -13.304   6.621  1.00  0.00    -0.194 OA
HETATM   10  N   UNL     1      43.121 -14.401   5.826  1.00  0.00    -0.106 NA
HETATM   11  C   UNL     1      43.954 -15.366   6.249  1.00  0.00     0.189 A 
HETATM   12  N   UNL     1      44.822 -14.953   7.238  1.00  0.00    -0.202 NA
BRANCH  11  13
HETATM   13  C   UNL     1      43.963 -16.735   5.739  1.00  0.00     0.014 A 
HETATM   14  C   UNL     1      44.688 -17.748   6.383  1.00  0.00     0.015 A 
HETATM   15  C   UNL     1      44.695 -19.050   5.874  1.00  0.00     0.001 A 
HETATM   16  C   UNL     1      43.979 -19.354   4.718  1.00  0.00     0.000 A 
HETATM   17  C   UNL     1      43.253 -18.358   4.068  1.00  0.00     0.001 A 
HETATM   18  C   UNL     1      43.245 -17.057   4.577  1.00  0.00     0.015 A 
ENDBRANCH  11  13
ENDBRANCH   7   8
ENDBRANCH   3   7
BRANCH   1  19
HETATM   19  C   UNL     1      41.854 -10.817  11.614  1.00  0.00     0.042 A 
HETATM   20  C   UNL     1      42.179  -9.811  12.541  1.00  0.00    -0.035 A 
HETATM   21  C   UNL     1      43.538  -9.648  13.165  1.00  0.00     0.050 C 
HETATM   22  C   UNL     1      41.174  -8.907  12.938  1.00  0.00     0.009 A 
HETATM   23  C   UNL     1      39.865  -9.030  12.474  1.00  0.00     0.001 A 
HETATM   24  C   UNL     1      39.535 -10.067  11.611  1.00  0.00     0.002 A 
HETATM   25  C   UNL     1      40.522 -10.961  11.194  1.00  0.00     0.030 A 
ENDBRANCH   1  19
TORSDOF 4
ENDMDL
MODEL 6
REMARK VINA RESULT:      -8.0      1.647      9.398
REMARK  4 active torsions:
REMARK  status: ('A' for Active; 'I' for Inactive)
REMARK    1  A    between atoms: C_3  and  N_4 
REMARK       I    between atoms: N_4  and  C_5 
REMARK       I    between atoms: C_5  and  N_6 
REMARK    2  A    between atoms: N_6  and  C_7 
REMARK    3  A    between atoms: C_7  and  C_8 
REMARK    4  A    between atoms: C_11  and  C_12 
ROOT
HETATM    1  N   UNL     1      43.192 -11.708  10.576  1.00  0.00    -0.309 N 
HETATM    2  C   UNL     1      44.083 -11.820   9.530  1.00  0.00     0.321 C 
HETATM    3  N   UNL     1      44.053 -13.095   9.006  1.00  0.00    -0.335 N 
HETATM    4  O   UNL     1      44.763 -10.927   9.045  1.00  0.00    -0.247 OA
HETATM    5  H   UNL     1      42.381 -12.296  10.444  1.00  0.00     0.170 HD
HETATM    6  H   UNL     1      43.865 -13.842   9.660  1.00  0.00     0.164 HD
ENDROOT
BRANCH   3   7
HETATM    7  C   UNL     1      44.815 -13.412   7.812  1.00  0.00     0.213 C 
BRANCH   7   8
HETATM    8  C   UNL     1      44.350 -14.643   7.124  1.00  0.00     0.190 A 
HETATM    9  O   UNL     1      44.020 -15.731   7.877  1.00  0.00    -0.194 OA
HETATM   10  N   UNL     1      43.624 -16.727   6.985  1.00  0.00    -0.106 NA
HETATM   11  C   UNL     1      43.774 -16.158   5.778  1.00  0.00     0.189 A 
HETATM   12  N   UNL     1      44.203 -14.848   5.833  1.00  0.00    -0.202 NA
BRANCH  11  13
HETATM   13  C   UNL     1      43.522 -16.833   4.508  1.00  0.00     0.014 A 
HETATM   14  C   UNL     1      43.570 -18.231   4.404  1.00  0.00     0.015 A 
HETATM   15  C   UNL     1      43.339 -18.862   3.178  1.00  0.00     0.001 A 
HETATM   16  C   UNL     1      43.059 -18.103   2.042  1.00  0.00     0.000 A 
HETATM   17  C   UNL     1      43.007 -16.714   2.131  1.00  0.00     0.001 A 
HETATM   18  C   UNL     1      43.237 -16.084   3.357  1.00  0.00     0.015 A 
ENDBRANCH  11  13
ENDBRANCH   7   8
ENDBRANCH   3   7
BRANCH   1  19
HETATM   19  C   UNL     1      42.959 -10.515  11.301  1.00  0.00     0.042 A 
HETATM   20  C   UNL     1      42.153  -9.453  10.854  1.00  0.00    -0.035 A 
HETATM   21  C   UNL     1      41.503  -9.403   9.499  1.00  0.00     0.050 C 
HETATM   22  C   UNL     1      41.952  -8.351  11.707  1.00  0.00     0.009 A 
HETATM   23  C   UNL     1      42.580  -8.273  12.950  1.00  0.00     0.001 A 
HETATM   24  C   UNL     1      43.428  -9.293  13.358  1.00  0.00     0.002 A 
HETATM   25  C   UNL     1      43.625 -10.401  12.533  1.00  0.00     0.030 A 
ENDBRANCH   1  19
TORSDOF 4
ENDMDL
MODEL 7
REMARK VINA RESULT:      -8.0      5.953      8.147
REMARK  4 active torsions:
REMARK  status: ('A' for Active; 'I' for Inactive)
REMARK    1  A    between atoms: C_3  and  N_4 
REMARK       I    between atoms: N_4  and  C_5 
REMARK       I    between atoms: C_5  and  N_6 
REMARK    2  A    between atoms: N_6  and  C_7 
REMARK    3  A    between atoms: C_7  and  C_8 
REMARK    4  A    between atoms: C_11  and  C_12 
ROOT
HETATM    1  N   UNL     1      44.323 -18.548   4.658  1.00  0.00    -0.309 N 
HETATM    2  C   UNL     1      43.192 -17.960   5.187  1.00  0.00     0.321 C 
HETATM    3  N   UNL     1      43.451 -16.654   5.545  1.00  0.00    -0.335 N 
HETATM    4  O   UNL     1      42.078 -18.454   5.270  1.00  0.00    -0.247 OA
HETATM    5  H   UNL     1      44.897 -17.880   4.163  1.00  0.00     0.170 HD
HETATM    6  H   UNL     1      44.387 -16.458   5.873  1.00  0.00     0.164 HD
ENDROOT
BRANCH   3   7
HETATM    7  C   UNL     1      42.376 -15.797   6.006  1.00  0.00     0.213 C 
BRANCH   7   8
HETATM    8  C   UNL     1      41.814 -14.928   4.939  1.00  0.00     0.190 A 
HETATM    9  O   UNL     1      42.529 -13.839   4.536  1.00  0.00    -0.194 OA
HETATM   10  N   UNL     1      41.776 -13.216   3.540  1.00  0.00    -0.106 NA
HETATM   11  C   UNL     1      40.669 -13.972   3.452  1.00  0.00     0.189 A 
HETATM   12  N   UNL     1      40.675 -15.062   4.297  1.00  0.00    -0.202 NA
BRANCH  11  13
HETATM   13  C   UNL     1      39.545 -13.691   2.564  1.00  0.00     0.014 A 
HETATM   14  C   UNL     1      38.910 -14.714   1.845  1.00  0.00     0.015 A 
HETATM   15  C   UNL     1      37.843 -14.427   0.989  1.00  0.00     0.001 A 
HETATM   16  C   UNL     1      37.398 -13.114   0.841  1.00  0.00     0.000 A 
HETATM   17  C   UNL     1      38.018 -12.087   1.550  1.00  0.00     0.001 A 
HETATM   18  C   UNL     1      39.084 -12.375   2.406  1.00  0.00     0.015 A 
ENDBRANCH  11  13
ENDBRANCH   7   8
ENDBRANCH   3   7
BRANCH   1  19
HETATM   19  C   UNL     1      44.375 -19.872   4.161  1.00  0.00     0.042 A 
HETATM   20  C   UNL     1      44.065 -20.243   2.840  1.00  0.00    -0.035 A 
HETATM   21  C   UNL     1      43.545 -19.291   1.799  1.00  0.00     0.050 C 
HETATM   22  C   UNL     1      44.224 -21.590   2.461  1.00  0.00     0.009 A 
HETATM   23  C   UNL     1      44.624 -22.559   3.381  1.00  0.00     0.001 A 
HETATM   24  C   UNL     1      44.862 -22.199   4.700  1.00  0.00     0.002 A 
HETATM   25  C   UNL     1      44.727 -20.866   5.090  1.00  0.00     0.030 A 
ENDBRANCH   1  19
TORSDOF 4
ENDMDL
MODEL 8
REMARK VINA RESULT:      -8.0      8.610     11.517
REMARK  4 active torsions:
REMARK  status: ('A' for Active; 'I' for Inactive)
REMARK    1  A    between atoms: C_3  and  N_4 
REMARK       I    between atoms: N_4  and  C_5 
REMARK       I    between atoms: C_5  and  N_6 
REMARK    2  A    between atoms: N_6  and  C_7 
REMARK    3  A    between atoms: C_7  and  C_8 
REMARK    4  A    between atoms: C_11  and  C_12 
ROOT
HETATM    1  N   UNL     1      42.646 -13.090  -2.200  1.00  0.00    -0.309 N 
HETATM    2  C   UNL     1      41.650 -13.618  -1.406  1.00  0.00     0.321 C 
HETATM    3  N   UNL     1      42.039 -14.837  -0.891  1.00  0.00    -0.335 N 
HETATM    4  O   UNL     1      40.592 -13.086  -1.103  1.00  0.00    -0.247 OA
HETATM    5  H   UNL     1      43.565 -13.349  -1.872  1.00  0.00     0.170 HD
HETATM    6  H   UNL     1      42.640 -15.398  -1.479  1.00  0.00     0.164 HD
ENDROOT
BRANCH   3   7
HETATM    7  C   UNL     1      41.203 -15.521   0.077  1.00  0.00     0.213 C 
BRANCH   7   8
HETATM    8  C   UNL     1      41.976 -16.290   1.086  1.00  0.00     0.190 A 
HETATM    9  O   UNL     1      42.506 -15.626   2.153  1.00  0.00    -0.194 OA
HETATM   10  N   UNL     1      43.169 -16.579   2.925  1.00  0.00    -0.106 NA
HETATM   11  C   UNL     1      42.999 -17.723   2.242  1.00  0.00     0.189 A 
HETATM   12  N   UNL     1      42.238 -17.579   1.100  1.00  0.00    -0.202 NA
BRANCH  11  13
HETATM   13  C   UNL     1      43.559 -19.013   2.636  1.00  0.00     0.014 A 
HETATM   14  C   UNL     1      43.489 -20.128   1.789  1.00  0.00     0.015 A 
HETATM   15  C   UNL     1      44.019 -21.359   2.186  1.00  0.00     0.001 A 
HETATM   16  C   UNL     1      44.624 -21.490   3.435  1.00  0.00     0.000 A 
HETATM   17  C   UNL     1      44.702 -20.390   4.288  1.00  0.00     0.001 A 
HETATM   18  C   UNL     1      44.174 -19.160   3.890  1.00  0.00     0.015 A 
ENDBRANCH  11  13
ENDBRANCH   7   8
ENDBRANCH   3   7
BRANCH   1  19
HETATM   19  C   UNL     1      42.570 -11.832  -2.844  1.00  0.00     0.042 A 
HETATM   20  C   UNL     1      42.862 -10.601  -2.230  1.00  0.00    -0.035 A 
HETATM   21  C   UNL     1      43.207 -10.448  -0.774  1.00  0.00     0.050 C 
HETATM   22  C   UNL     1      42.810  -9.428  -3.008  1.00  0.00     0.009 A 
HETATM   23  C   UNL     1      42.422  -9.463  -4.347  1.00  0.00     0.001 A 
HETATM   24  C   UNL     1      42.068 -10.673  -4.929  1.00  0.00     0.002 A 
HETATM   25  C   UNL     1      42.131 -11.847  -4.179  1.00  0.00     0.030 A 
ENDBRANCH   1  19
TORSDOF 4
ENDMDL
MODEL 9
REMARK VINA RESULT:      -8.0      6.992      9.952
REMARK  4 active torsions:
REMARK  status: ('A' for Active; 'I' for Inactive)
REMARK    1  A    between atoms: C_3  and  N_4 
REMARK       I    between atoms: N_4  and  C_5 
REMARK       I    between atoms: C_5  and  N_6 
REMARK    2  A    between atoms: N_6  and  C_7 
REMARK    3  A    between atoms: C_7  and  C_8 
REMARK    4  A    between atoms: C_11  and  C_12 
ROOT
HETATM    1  N   UNL     1      44.172 -18.415   4.077  1.00  0.00    -0.309 N 
HETATM    2  C   UNL     1      42.980 -17.756   4.290  1.00  0.00     0.321 C 
HETATM    3  N   UNL     1      43.165 -16.392   4.226  1.00  0.00    -0.335 N 
HETATM    4  O   UNL     1      41.877 -18.262   4.437  1.00  0.00    -0.247 OA
HETATM    5  H   UNL     1      44.773 -17.909   3.441  1.00  0.00     0.170 HD
HETATM    6  H   UNL     1      44.058 -16.047   4.550  1.00  0.00     0.164 HD
ENDROOT
BRANCH   3   7
HETATM    7  C   UNL     1      42.026 -15.496   4.293  1.00  0.00     0.213 C 
BRANCH   7   8
HETATM    8  C   UNL     1      41.437 -15.190   2.964  1.00  0.00     0.190 A 
HETATM    9  O   UNL     1      40.089 -15.007   2.870  1.00  0.00    -0.194 OA
HETATM   10  N   UNL     1      39.817 -14.738   1.529  1.00  0.00    -0.106 NA
HETATM   11  C   UNL     1      41.020 -14.807   0.935  1.00  0.00     0.189 A 
HETATM   12  N   UNL     1      42.055 -15.064   1.810  1.00  0.00    -0.202 NA
BRANCH  11  13
HETATM   13  C   UNL     1      41.246 -14.638  -0.498  1.00  0.00     0.014 A 
HETATM   14  C   UNL     1      41.806 -13.460  -1.013  1.00  0.00     0.015 A 
HETATM   15  C   UNL     1      42.005 -13.309  -2.389  1.00  0.00     0.001 A 
HETATM   16  C   UNL     1      41.645 -14.332  -3.264  1.00  0.00     0.000 A 
HETATM   17  C   UNL     1      41.088 -15.509  -2.766  1.00  0.00     0.001 A 
HETATM   18  C   UNL     1      40.891 -15.660  -1.392  1.00  0.00     0.015 A 
ENDBRANCH  11  13
ENDBRANCH   7   8
ENDBRANCH   3   7
BRANCH   1  19
HETATM   19  C   UNL     1      44.310 -19.824   4.043  1.00  0.00     0.042 A 
HETATM   20  C   UNL     1      44.115 -20.617   2.898  1.00  0.00    -0.035 A 
HETATM   21  C   UNL     1      43.642 -20.084   1.574  1.00  0.00     0.050 C 
HETATM   22  C   UNL     1      44.352 -22.003   2.989  1.00  0.00     0.009 A 
HETATM   23  C   UNL     1      44.715 -22.599   4.196  1.00  0.00     0.001 A 
HETATM   24  C   UNL     1      44.840 -21.820   5.338  1.00  0.00     0.002 A 
HETATM   25  C   UNL     1      44.627 -20.443   5.263  1.00  0.00     0.030 A 
ENDBRANCH   1  19
TORSDOF 4
ENDMDL
MODEL 10
REMARK VINA RESULT:      -8.0      8.081     10.828
REMARK  4 active torsions:
REMARK  status: ('A' for Active; 'I' for Inactive)
REMARK    1  A    between atoms: C_3  and  N_4 
REMARK       I    between atoms: N_4  and  C_5 
REMARK       I    between atoms: C_5  and  N_6 
REMARK    2  A    between atoms: N_6  and  C_7 
REMARK    3  A    between atoms: C_7  and  C_8 
REMARK    4  A    between atoms: C_11  and  C_12 
ROOT
HETATM    1  N   UNL     1      42.830 -18.169   3.125  1.00  0.00    -0.309 N 
HETATM    2  C   UNL     1      43.184 -17.081   2.354  1.00  0.00     0.321 C 
HETATM    3  N   UNL     1      42.404 -15.990   2.674  1.00  0.00    -0.335 N 
HETATM    4  O   UNL     1      44.102 -17.018   1.550  1.00  0.00    -0.247 OA
HETATM    5  H   UNL     1      42.515 -17.892   4.043  1.00  0.00     0.170 HD
HETATM    6  H   UNL     1      41.454 -16.188   2.957  1.00  0.00     0.164 HD
ENDROOT
BRANCH   3   7
HETATM    7  C   UNL     1      42.682 -14.695   2.082  1.00  0.00     0.213 C 
BRANCH   7   8
HETATM    8  C   UNL     1      41.725 -14.319   1.010  1.00  0.00     0.190 A 
HETATM    9  O   UNL     1      41.159 -13.079   1.042  1.00  0.00    -0.194 OA
HETATM   10  N   UNL     1      40.316 -12.998  -0.066  1.00  0.00    -0.106 NA
HETATM   11  C   UNL     1      40.433 -14.202  -0.649  1.00  0.00     0.189 A 
HETATM   12  N   UNL     1      41.324 -15.041  -0.013  1.00  0.00    -0.202 NA
BRANCH  11  13
HETATM   13  C   UNL     1      39.696 -14.620  -1.839  1.00  0.00     0.014 A 
HETATM   14  C   UNL     1      38.414 -14.123  -2.115  1.00  0.00     0.015 A 
HETATM   15  C   UNL     1      37.717 -14.543  -3.252  1.00  0.00     0.001 A 
HETATM   16  C   UNL     1      38.293 -15.463  -4.125  1.00  0.00     0.000 A 
HETATM   17  C   UNL     1      39.567 -15.965  -3.865  1.00  0.00     0.001 A 
HETATM   18  C   UNL     1      40.264 -15.545  -2.730  1.00  0.00     0.015 A 
ENDBRANCH  11  13
ENDBRANCH   7   8
ENDBRANCH   3   7
BRANCH   1  19
HETATM   19  C   UNL     1      43.468 -19.432   3.063  1.00  0.00     0.042 A 
HETATM   20  C   UNL     1      44.361 -19.923   4.030  1.00  0.00    -0.035 A 
HETATM   21  C   UNL     1      44.834 -19.133   5.219  1.00  0.00     0.050 C 
HETATM   22  C   UNL     1      44.873 -21.227   3.877  1.00  0.00     0.009 A 
HETATM   23  C   UNL     1      44.554 -22.005   2.765  1.00  0.00     0.001 A 
HETATM   24  C   UNL     1      43.725 -21.488   1.779  1.00  0.00     0.002 A 
HETATM   25  C   UNL     1      43.195 -20.205   1.922  1.00  0.00     0.030 A 
ENDBRANCH   1  19
TORSDOF 4
ENDMDL
