MODEL 1
REMARK VINA RESULT:      -7.8      0.000      0.000
REMARK  4 active torsions:
REMARK  status: ('A' for Active; 'I' for Inactive)
REMARK    1  A    between atoms: O_2  and  C_3 
REMARK    2  A    between atoms: C_5  and  C_6 
REMARK    3  A    between atoms: C_10  and  N_11 
REMARK    4  A    between atoms: C_14  and  C_15 
ROOT
HETATM    1  C   UNL     1      40.525 -16.040   1.025  1.00  0.00     0.164 C 
HETATM    2  N   UNL     1      40.938 -15.204  -0.097  1.00  0.00    -0.074 N 
HETATM    3  C   UNL     1      41.053 -13.842  -0.045  1.00  0.00     0.736 A 
HETATM    4  N   UNL     1      41.467 -13.409  -1.209  1.00  0.00     0.131 NA
HETATM    5  C   UNL     1      41.526 -14.547  -1.959  1.00  0.00     0.753 A 
HETATM    6  N   UNL     1      41.218 -15.676  -1.325  1.00  0.00     0.037 NA
HETATM    7  N   UNL     1      40.756 -13.152   1.070  1.00  0.00    -0.214 N 
HETATM    8  C   UNL     1      40.317 -13.809   2.292  1.00  0.00     0.135 C 
HETATM    9  C   UNL     1      39.665 -15.174   1.973  1.00  0.00     0.063 C 
HETATM   10  H   UNL     1      40.950 -12.156   1.109  1.00  0.00     0.178 HD
ENDROOT
BRANCH   1  11
HETATM   11  C   UNL     1      41.677 -16.768   1.719  1.00  0.00    -0.030 A 
HETATM   12  C   UNL     1      41.557 -17.376   2.986  1.00  0.00     0.046 A 
HETATM   13  C   UNL     1      42.630 -18.052   3.574  1.00  0.00     0.068 A 
HETATM   14  C   UNL     1      43.846 -18.122   2.898  1.00  0.00     0.037 A 
HETATM   15  C   UNL     1      44.001 -17.507   1.659  1.00  0.00     0.003 A 
HETATM   16  C   UNL     1      42.929 -16.829   1.080  1.00  0.00     0.009 A 
BRANCH  13  17
HETATM   17  O   UNL     1      42.613 -18.685   4.787  1.00  0.00    -0.356 OA
HETATM   18  C   UNL     1      43.156 -17.973   5.892  1.00  0.00     0.210 C 
ENDBRANCH  13  17
ENDBRANCH   1  11
BRANCH   8  19
HETATM   19  C   UNL     1      41.406 -13.883   3.353  1.00  0.00    -0.035 A 
HETATM   20  C   UNL     1      42.765 -13.671   3.072  1.00  0.00     0.010 A 
HETATM   21  C   UNL     1      43.734 -13.798   4.071  1.00  0.00     0.019 A 
HETATM   22  C   UNL     1      43.353 -14.126   5.368  1.00  0.00     0.011 A 
HETATM   23 BR   UNL     1      44.664 -14.310   6.717  1.00  0.00    -0.051 Br
HETATM   24  C   UNL     1      42.011 -14.319   5.678  1.00  0.00     0.019 A 
HETATM   25  C   UNL     1      41.044 -14.196   4.676  1.00  0.00     0.010 A 
ENDBRANCH   8  19
BRANCH   5  26
HETATM   26  N   UNL     1      41.907 -14.454  -3.228  1.00  0.00    -0.229 N 
HETATM   27  H   UNL     1      42.705 -15.005  -3.512  1.00  0.00     0.174 HD
HETATM   28  H   UNL     1      41.183 -14.345  -3.924  1.00  0.00     0.174 HD
ENDBRANCH   5  26
TORSDOF 4
ENDMDL
MODEL 2
REMARK VINA RESULT:      -7.7      1.763      2.429
REMARK  4 active torsions:
REMARK  status: ('A' for Active; 'I' for Inactive)
REMARK    1  A    between atoms: O_2  and  C_3 
REMARK    2  A    between atoms: C_5  and  C_6 
REMARK    3  A    between atoms: C_10  and  N_11 
REMARK    4  A    between atoms: C_14  and  C_15 
ROOT
HETATM    1  C   UNL     1      40.834 -15.988   1.189  1.00  0.00     0.164 C 
HETATM    2  N   UNL     1      41.270 -14.637   0.852  1.00  0.00    -0.074 N 
HETATM    3  C   UNL     1      41.297 -13.591   1.733  1.00  0.00     0.736 A 
HETATM    4  N   UNL     1      41.761 -12.533   1.117  1.00  0.00     0.131 NA
HETATM    5  C   UNL     1      41.939 -12.973  -0.162  1.00  0.00     0.753 A 
HETATM    6  N   UNL     1      41.659 -14.257  -0.378  1.00  0.00     0.037 NA
HETATM    7  N   UNL     1      40.885 -13.730   3.005  1.00  0.00    -0.214 N 
HETATM    8  C   UNL     1      40.406 -15.001   3.528  1.00  0.00     0.135 C 
HETATM    9  C   UNL     1      39.861 -15.890   2.386  1.00  0.00     0.063 C 
HETATM   10  H   UNL     1      41.014 -12.966   3.660  1.00  0.00     0.178 HD
ENDROOT
BRANCH   1  11
HETATM   11  C   UNL     1      41.980 -16.980   1.396  1.00  0.00    -0.030 A 
HETATM   12  C   UNL     1      41.779 -18.363   1.592  1.00  0.00     0.046 A 
HETATM   13  C   UNL     1      42.857 -19.238   1.753  1.00  0.00     0.068 A 
HETATM   14  C   UNL     1      44.156 -18.735   1.728  1.00  0.00     0.037 A 
HETATM   15  C   UNL     1      44.381 -17.371   1.565  1.00  0.00     0.003 A 
HETATM   16  C   UNL     1      43.303 -16.501   1.410  1.00  0.00     0.009 A 
BRANCH  13  17
HETATM   17  O   UNL     1      42.772 -20.592   1.933  1.00  0.00    -0.356 OA
HETATM   18  C   UNL     1      43.985 -21.330   1.846  1.00  0.00     0.210 C 
ENDBRANCH  13  17
ENDBRANCH   1  11
BRANCH   8  19
HETATM   19  C   UNL     1      41.424 -15.701   4.417  1.00  0.00    -0.035 A 
HETATM   20  C   UNL     1      42.637 -15.109   4.806  1.00  0.00     0.010 A 
HETATM   21  C   UNL     1      43.561 -15.812   5.584  1.00  0.00     0.019 A 
HETATM   22  C   UNL     1      43.278 -17.111   5.993  1.00  0.00     0.011 A 
HETATM   23 BR   UNL     1      44.535 -18.065   7.034  1.00  0.00    -0.051 Br
HETATM   24  C   UNL     1      42.075 -17.712   5.640  1.00  0.00     0.019 A 
HETATM   25  C   UNL     1      41.153 -17.010   4.858  1.00  0.00     0.010 A 
ENDBRANCH   8  19
BRANCH   5  26
HETATM   26  N   UNL     1      42.398 -12.120  -1.070  1.00  0.00    -0.229 N 
HETATM   27  H   UNL     1      42.349 -12.406  -2.039  1.00  0.00     0.174 HD
HETATM   28  H   UNL     1      42.251 -11.135  -0.899  1.00  0.00     0.174 HD
ENDBRANCH   5  26
TORSDOF 4
ENDMDL
MODEL 3
REMARK VINA RESULT:      -7.0      1.472      2.259
REMARK  4 active torsions:
REMARK  status: ('A' for Active; 'I' for Inactive)
REMARK    1  A    between atoms: O_2  and  C_3 
REMARK    2  A    between atoms: C_5  and  C_6 
REMARK    3  A    between atoms: C_10  and  N_11 
REMARK    4  A    between atoms: C_14  and  C_15 
ROOT
HETATM    1  C   UNL     1      40.427 -14.184   0.745  1.00  0.00     0.164 C 
HETATM    2  N   UNL     1      41.346 -13.560  -0.202  1.00  0.00    -0.074 N 
HETATM    3  C   UNL     1      42.063 -12.423   0.050  1.00  0.00     0.736 A 
HETATM    4  N   UNL     1      42.803 -12.150  -0.994  1.00  0.00     0.131 NA
HETATM    5  C   UNL     1      42.448 -13.120  -1.886  1.00  0.00     0.753 A 
HETATM    6  N   UNL     1      41.563 -14.014  -1.450  1.00  0.00     0.037 NA
HETATM    7  N   UNL     1      41.947 -11.762   1.216  1.00  0.00    -0.214 N 
HETATM    8  C   UNL     1      41.073 -12.224   2.284  1.00  0.00     0.135 C 
HETATM    9  C   UNL     1      39.926 -13.089   1.713  1.00  0.00     0.063 C 
HETATM   10  H   UNL     1      42.567 -10.983   1.413  1.00  0.00     0.178 HD
ENDROOT
BRANCH   1  11
HETATM   11  C   UNL     1      40.995 -15.421   1.442  1.00  0.00    -0.030 A 
HETATM   12  C   UNL     1      42.121 -16.127   0.968  1.00  0.00     0.046 A 
HETATM   13  C   UNL     1      42.622 -17.239   1.651  1.00  0.00     0.068 A 
HETATM   14  C   UNL     1      41.992 -17.666   2.818  1.00  0.00     0.037 A 
HETATM   15  C   UNL     1      40.863 -17.005   3.293  1.00  0.00     0.003 A 
HETATM   16  C   UNL     1      40.363 -15.899   2.605  1.00  0.00     0.009 A 
BRANCH  13  17
HETATM   17  O   UNL     1      43.712 -17.982   1.285  1.00  0.00    -0.356 OA
HETATM   18  C   UNL     1      44.006 -19.125   2.078  1.00  0.00     0.210 C 
ENDBRANCH  13  17
ENDBRANCH   1  11
BRANCH   8  19
HETATM   19  C   UNL     1      41.828 -12.885   3.427  1.00  0.00    -0.035 A 
HETATM   20  C   UNL     1      41.304 -13.004   4.725  1.00  0.00     0.010 A 
HETATM   21  C   UNL     1      42.056 -13.576   5.754  1.00  0.00     0.019 A 
HETATM   22  C   UNL     1      43.339 -14.049   5.496  1.00  0.00     0.011 A 
HETATM   23 BR   UNL     1      44.361 -14.811   6.891  1.00  0.00    -0.051 Br
HETATM   24  C   UNL     1      43.874 -13.963   4.214  1.00  0.00     0.019 A 
HETATM   25  C   UNL     1      43.122 -13.386   3.187  1.00  0.00     0.010 A 
ENDBRANCH   8  19
BRANCH   5  26
HETATM   26  N   UNL     1      43.020 -13.122  -3.084  1.00  0.00    -0.229 N 
HETATM   27  H   UNL     1      44.016 -12.953  -3.121  1.00  0.00     0.174 HD
HETATM   28  H   UNL     1      42.663 -13.773  -3.769  1.00  0.00     0.174 HD
ENDBRANCH   5  26
TORSDOF 4
ENDMDL
MODEL 4
REMARK VINA RESULT:      -7.0      2.398      4.348
REMARK  4 active torsions:
REMARK  status: ('A' for Active; 'I' for Inactive)
REMARK    1  A    between atoms: O_2  and  C_3 
REMARK    2  A    between atoms: C_5  and  C_6 
REMARK    3  A    between atoms: C_10  and  N_11 
REMARK    4  A    between atoms: C_14  and  C_15 
ROOT
HETATM    1  C   UNL     1      41.721 -14.177   1.653  1.00  0.00     0.164 C 
HETATM    2  N   UNL     1      40.268 -14.145   1.519  1.00  0.00    -0.074 N 
HETATM    3  C   UNL     1      39.472 -15.255   1.464  1.00  0.00     0.736 A 
HETATM    4  N   UNL     1      38.224 -14.875   1.369  1.00  0.00     0.131 NA
HETATM    5  C   UNL     1      38.319 -13.515   1.301  1.00  0.00     0.753 A 
HETATM    6  N   UNL     1      39.549 -13.015   1.396  1.00  0.00     0.037 NA
HETATM    7  N   UNL     1      39.990 -16.496   1.503  1.00  0.00    -0.214 N 
HETATM    8  C   UNL     1      41.420 -16.734   1.626  1.00  0.00     0.135 C 
HETATM    9  C   UNL     1      42.222 -15.526   1.089  1.00  0.00     0.063 C 
HETATM   10  H   UNL     1      39.368 -17.296   1.565  1.00  0.00     0.178 HD
ENDROOT
BRANCH   1  11
HETATM   11  C   UNL     1      42.224 -13.866   3.064  1.00  0.00    -0.030 A 
HETATM   12  C   UNL     1      41.417 -13.278   4.061  1.00  0.00     0.046 A 
HETATM   13  C   UNL     1      41.911 -13.033   5.346  1.00  0.00     0.068 A 
HETATM   14  C   UNL     1      43.229 -13.369   5.647  1.00  0.00     0.037 A 
HETATM   15  C   UNL     1      44.056 -13.925   4.675  1.00  0.00     0.003 A 
HETATM   16  C   UNL     1      43.561 -14.162   3.393  1.00  0.00     0.009 A 
BRANCH  13  17
HETATM   17  O   UNL     1      41.209 -12.483   6.384  1.00  0.00    -0.356 OA
HETATM   18  C   UNL     1      39.791 -12.573   6.322  1.00  0.00     0.210 C 
ENDBRANCH  13  17
ENDBRANCH   1  11
BRANCH   8  19
HETATM   19  C   UNL     1      41.833 -17.170   3.025  1.00  0.00    -0.035 A 
HETATM   20  C   UNL     1      41.016 -16.997   4.154  1.00  0.00     0.010 A 
HETATM   21  C   UNL     1      41.459 -17.370   5.426  1.00  0.00     0.019 A 
HETATM   22  C   UNL     1      42.722 -17.933   5.582  1.00  0.00     0.011 A 
HETATM   23 BR   UNL     1      43.328 -18.425   7.303  1.00  0.00    -0.051 Br
HETATM   24  C   UNL     1      43.542 -18.135   4.477  1.00  0.00     0.019 A 
HETATM   25  C   UNL     1      43.099 -17.757   3.207  1.00  0.00     0.010 A 
ENDBRANCH   8  19
BRANCH   5  26
HETATM   26  N   UNL     1      37.204 -12.804   1.182  1.00  0.00    -0.229 N 
HETATM   27  H   UNL     1      36.331 -13.314   1.163  1.00  0.00     0.174 HD
HETATM   28  H   UNL     1      37.173 -11.905   1.642  1.00  0.00     0.174 HD
ENDBRANCH   5  26
TORSDOF 4
ENDMDL
MODEL 5
REMARK VINA RESULT:      -6.9      2.153      4.375
REMARK  4 active torsions:
REMARK  status: ('A' for Active; 'I' for Inactive)
REMARK    1  A    between atoms: O_2  and  C_3 
REMARK    2  A    between atoms: C_5  and  C_6 
REMARK    3  A    between atoms: C_10  and  N_11 
REMARK    4  A    between atoms: C_14  and  C_15 
ROOT
HETATM    1  C   UNL     1      41.188 -13.000   1.350  1.00  0.00     0.164 C 
HETATM    2  N   UNL     1      39.768 -13.162   1.054  1.00  0.00    -0.074 N 
HETATM    3  C   UNL     1      39.221 -14.274   0.475  1.00  0.00     0.736 A 
HETATM    4  N   UNL     1      37.928 -14.104   0.375  1.00  0.00     0.131 NA
HETATM    5  C   UNL     1      37.744 -12.837   0.848  1.00  0.00     0.753 A 
HETATM    6  N   UNL     1      38.839 -12.217   1.284  1.00  0.00     0.037 NA
HETATM    7  N   UNL     1      39.980 -15.318   0.100  1.00  0.00    -0.214 N 
HETATM    8  C   UNL     1      41.421 -15.340   0.303  1.00  0.00     0.135 C 
HETATM    9  C   UNL     1      41.983 -13.901   0.379  1.00  0.00     0.063 C 
HETATM   10  H   UNL     1      39.534 -16.168  -0.231  1.00  0.00     0.178 HD
ENDROOT
BRANCH   1  11
HETATM   11  C   UNL     1      41.546 -13.202   2.823  1.00  0.00    -0.030 A 
HETATM   12  C   UNL     1      42.869 -13.372   3.282  1.00  0.00     0.046 A 
HETATM   13  C   UNL     1      43.154 -13.530   4.641  1.00  0.00     0.068 A 
HETATM   14  C   UNL     1      42.109 -13.528   5.563  1.00  0.00     0.037 A 
HETATM   15  C   UNL     1      40.791 -13.391   5.136  1.00  0.00     0.003 A 
HETATM   16  C   UNL     1      40.512 -13.239   3.778  1.00  0.00     0.009 A 
BRANCH  13  17
HETATM   17  O   UNL     1      44.398 -13.686   5.189  1.00  0.00    -0.356 OA
HETATM   18  C   UNL     1      44.456 -14.141   6.535  1.00  0.00     0.210 C 
ENDBRANCH  13  17
ENDBRANCH   1  11
BRANCH   8  19
HETATM   19  C   UNL     1      41.845 -16.225   1.467  1.00  0.00    -0.035 A 
HETATM   20  C   UNL     1      40.961 -16.636   2.479  1.00  0.00     0.010 A 
HETATM   21  C   UNL     1      41.409 -17.409   3.553  1.00  0.00     0.019 A 
HETATM   22  C   UNL     1      42.745 -17.792   3.622  1.00  0.00     0.011 A 
HETATM   23 BR   UNL     1      43.354 -18.827   5.082  1.00  0.00    -0.051 Br
HETATM   24  C   UNL     1      43.636 -17.418   2.622  1.00  0.00     0.019 A 
HETATM   25  C   UNL     1      43.187 -16.640   1.550  1.00  0.00     0.010 A 
ENDBRANCH   8  19
BRANCH   5  26
HETATM   26  N   UNL     1      36.514 -12.338   0.870  1.00  0.00    -0.229 N 
HETATM   27  H   UNL     1      35.951 -12.532   1.687  1.00  0.00     0.174 HD
HETATM   28  H   UNL     1      36.373 -11.429   0.451  1.00  0.00     0.174 HD
ENDBRANCH   5  26
TORSDOF 4
ENDMDL
MODEL 6
REMARK VINA RESULT:      -6.8      3.808      6.371
REMARK  4 active torsions:
REMARK  status: ('A' for Active; 'I' for Inactive)
REMARK    1  A    between atoms: O_2  and  C_3 
REMARK    2  A    between atoms: C_5  and  C_6 
REMARK    3  A    between atoms: C_10  and  N_11 
REMARK    4  A    between atoms: C_14  and  C_15 
ROOT
HETATM    1  C   UNL     1      40.468 -15.514   3.448  1.00  0.00     0.164 C 
HETATM    2  N   UNL     1      41.555 -14.866   4.173  1.00  0.00    -0.074 N 
HETATM    3  C   UNL     1      42.852 -14.816   3.742  1.00  0.00     0.736 A 
HETATM    4  N   UNL     1      43.561 -14.143   4.611  1.00  0.00     0.131 NA
HETATM    5  C   UNL     1      42.657 -13.859   5.594  1.00  0.00     0.753 A 
HETATM    6  N   UNL     1      41.411 -14.274   5.373  1.00  0.00     0.037 NA
HETATM    7  N   UNL     1      43.235 -15.405   2.595  1.00  0.00    -0.214 N 
HETATM    8  C   UNL     1      42.296 -16.109   1.735  1.00  0.00     0.135 C 
HETATM    9  C   UNL     1      41.082 -16.612   2.551  1.00  0.00     0.063 C 
HETATM   10  H   UNL     1      44.180 -15.263   2.251  1.00  0.00     0.178 HD
ENDROOT
BRANCH   1  11
HETATM   11  C   UNL     1      39.548 -14.544   2.704  1.00  0.00    -0.030 A 
HETATM   12  C   UNL     1      39.510 -13.158   2.969  1.00  0.00     0.046 A 
HETATM   13  C   UNL     1      38.672 -12.303   2.248  1.00  0.00     0.068 A 
HETATM   14  C   UNL     1      37.850 -12.829   1.253  1.00  0.00     0.037 A 
HETATM   15  C   UNL     1      37.847 -14.196   0.990  1.00  0.00     0.003 A 
HETATM   16  C   UNL     1      38.681 -15.046   1.716  1.00  0.00     0.009 A 
BRANCH  13  17
HETATM   17  O   UNL     1      38.570 -10.948   2.415  1.00  0.00    -0.356 OA
HETATM   18  C   UNL     1      38.241 -10.484   3.719  1.00  0.00     0.210 C 
ENDBRANCH  13  17
ENDBRANCH   1  11
BRANCH   8  19
HETATM   19  C   UNL     1      41.913 -15.315   0.495  1.00  0.00    -0.035 A 
HETATM   20  C   UNL     1      42.074 -13.924   0.395  1.00  0.00     0.010 A 
HETATM   21  C   UNL     1      41.663 -13.232  -0.747  1.00  0.00     0.019 A 
HETATM   22  C   UNL     1      41.095 -13.927  -1.811  1.00  0.00     0.011 A 
HETATM   23 BR   UNL     1      40.527 -12.990  -3.351  1.00  0.00    -0.051 Br
HETATM   24  C   UNL     1      40.945 -15.308  -1.747  1.00  0.00     0.019 A 
HETATM   25  C   UNL     1      41.353 -15.997  -0.602  1.00  0.00     0.010 A 
ENDBRANCH   8  19
BRANCH   5  26
HETATM   26  N   UNL     1      43.067 -13.180   6.658  1.00  0.00    -0.229 N 
HETATM   27  H   UNL     1      42.847 -12.193   6.690  1.00  0.00     0.174 HD
HETATM   28  H   UNL     1      43.054 -13.657   7.549  1.00  0.00     0.174 HD
ENDBRANCH   5  26
TORSDOF 4
ENDMDL
MODEL 7
REMARK VINA RESULT:      -6.4      3.969      6.024
REMARK  4 active torsions:
REMARK  status: ('A' for Active; 'I' for Inactive)
REMARK    1  A    between atoms: O_2  and  C_3 
REMARK    2  A    between atoms: C_5  and  C_6 
REMARK    3  A    between atoms: C_10  and  N_11 
REMARK    4  A    between atoms: C_14  and  C_15 
ROOT
HETATM    1  C   UNL     1      39.584 -12.747   4.383  1.00  0.00     0.164 C 
HETATM    2  N   UNL     1      40.405 -11.827   5.164  1.00  0.00    -0.074 N 
HETATM    3  C   UNL     1      41.334 -12.214   6.090  1.00  0.00     0.736 A 
HETATM    4  N   UNL     1      41.906 -11.147   6.586  1.00  0.00     0.131 NA
HETATM    5  C   UNL     1      41.239 -10.126   5.974  1.00  0.00     0.753 A 
HETATM    6  N   UNL     1      40.313 -10.487   5.087  1.00  0.00     0.037 NA
HETATM    7  N   UNL     1      41.543 -13.511   6.377  1.00  0.00    -0.214 N 
HETATM    8  C   UNL     1      40.815 -14.579   5.708  1.00  0.00     0.135 C 
HETATM    9  C   UNL     1      39.456 -14.064   5.180  1.00  0.00     0.063 C 
HETATM   10  H   UNL     1      42.309 -13.771   6.991  1.00  0.00     0.178 HD
ENDROOT
BRANCH   1  11
HETATM   11  C   UNL     1      40.058 -12.935   2.941  1.00  0.00    -0.030 A 
HETATM   12  C   UNL     1      41.134 -12.215   2.380  1.00  0.00     0.046 A 
HETATM   13  C   UNL     1      41.550 -12.435   1.064  1.00  0.00     0.068 A 
HETATM   14  C   UNL     1      40.883 -13.380   0.286  1.00  0.00     0.037 A 
HETATM   15  C   UNL     1      39.800 -14.084   0.804  1.00  0.00     0.003 A 
HETATM   16  C   UNL     1      39.386 -13.856   2.116  1.00  0.00     0.009 A 
BRANCH  13  17
HETATM   17  O   UNL     1      42.587 -11.804   0.433  1.00  0.00    -0.356 OA
HETATM   18  C   UNL     1      42.575 -11.813  -0.989  1.00  0.00     0.210 C 
ENDBRANCH  13  17
ENDBRANCH   1  11
BRANCH   8  19
HETATM   19  C   UNL     1      41.646 -15.300   4.657  1.00  0.00    -0.035 A 
HETATM   20  C   UNL     1      42.880 -14.817   4.192  1.00  0.00     0.010 A 
HETATM   21  C   UNL     1      43.584 -15.491   3.190  1.00  0.00     0.019 A 
HETATM   22  C   UNL     1      43.068 -16.665   2.649  1.00  0.00     0.011 A 
HETATM   23 BR   UNL     1      44.013 -17.569   1.285  1.00  0.00    -0.051 Br
HETATM   24  C   UNL     1      41.859 -17.177   3.108  1.00  0.00     0.019 A 
HETATM   25  C   UNL     1      41.154 -16.499   4.107  1.00  0.00     0.010 A 
ENDBRANCH   8  19
BRANCH   5  26
HETATM   26  N   UNL     1      41.575  -8.877   6.274  1.00  0.00    -0.229 N 
HETATM   27  H   UNL     1      41.224  -8.501   7.144  1.00  0.00     0.174 HD
HETATM   28  H   UNL     1      42.497  -8.565   6.005  1.00  0.00     0.174 HD
ENDBRANCH   5  26
TORSDOF 4
ENDMDL
MODEL 8
REMARK VINA RESULT:      -6.3      3.754      6.383
REMARK  4 active torsions:
REMARK  status: ('A' for Active; 'I' for Inactive)
REMARK    1  A    between atoms: O_2  and  C_3 
REMARK    2  A    between atoms: C_5  and  C_6 
REMARK    3  A    between atoms: C_10  and  N_11 
REMARK    4  A    between atoms: C_14  and  C_15 
ROOT
HETATM    1  C   UNL     1      40.530 -15.485   3.692  1.00  0.00     0.164 C 
HETATM    2  N   UNL     1      41.651 -14.891   4.412  1.00  0.00    -0.074 N 
HETATM    3  C   UNL     1      42.953 -14.939   3.994  1.00  0.00     0.736 A 
HETATM    4  N   UNL     1      43.697 -14.291   4.854  1.00  0.00     0.131 NA
HETATM    5  C   UNL     1      42.805 -13.922   5.818  1.00  0.00     0.753 A 
HETATM    6  N   UNL     1      41.536 -14.258   5.594  1.00  0.00     0.037 NA
HETATM    7  N   UNL     1      43.306 -15.583   2.867  1.00  0.00    -0.214 N 
HETATM    8  C   UNL     1      42.330 -16.245   2.016  1.00  0.00     0.135 C 
HETATM    9  C   UNL     1      41.078 -16.644   2.831  1.00  0.00     0.063 C 
HETATM   10  H   UNL     1      44.261 -15.513   2.530  1.00  0.00     0.178 HD
ENDROOT
BRANCH   1  11
HETATM   11  C   UNL     1      39.684 -14.475   2.913  1.00  0.00    -0.030 A 
HETATM   12  C   UNL     1      38.852 -14.835   1.832  1.00  0.00     0.046 A 
HETATM   13  C   UNL     1      38.077 -13.883   1.162  1.00  0.00     0.068 A 
HETATM   14  C   UNL     1      38.132 -12.551   1.565  1.00  0.00     0.037 A 
HETATM   15  C   UNL     1      38.966 -12.164   2.611  1.00  0.00     0.003 A 
HETATM   16  C   UNL     1      39.742 -13.116   3.272  1.00  0.00     0.009 A 
BRANCH  13  17
HETATM   17  O   UNL     1      37.230 -14.130   0.116  1.00  0.00    -0.356 OA
HETATM   18  C   UNL     1      37.693 -13.780  -1.182  1.00  0.00     0.210 C 
ENDBRANCH  13  17
ENDBRANCH   1  11
BRANCH   8  19
HETATM   19  C   UNL     1      42.013 -15.461   0.751  1.00  0.00    -0.035 A 
HETATM   20  C   UNL     1      42.238 -14.080   0.628  1.00  0.00     0.010 A 
HETATM   21  C   UNL     1      41.885 -13.395  -0.537  1.00  0.00     0.019 A 
HETATM   22  C   UNL     1      41.314 -14.086  -1.602  1.00  0.00     0.011 A 
HETATM   23 BR   UNL     1      40.824 -13.157  -3.173  1.00  0.00    -0.051 Br
HETATM   24  C   UNL     1      41.101 -15.458  -1.515  1.00  0.00     0.019 A 
HETATM   25  C   UNL     1      41.450 -16.140  -0.346  1.00  0.00     0.010 A 
ENDBRANCH   8  19
BRANCH   5  26
HETATM   26  N   UNL     1      43.249 -13.243   6.869  1.00  0.00    -0.229 N 
HETATM   27  H   UNL     1      44.164 -12.820   6.793  1.00  0.00     0.174 HD
HETATM   28  H   UNL     1      42.571 -12.719   7.405  1.00  0.00     0.174 HD
ENDBRANCH   5  26
TORSDOF 4
ENDMDL
MODEL 9
REMARK VINA RESULT:      -6.2      3.692      5.873
REMARK  4 active torsions:
REMARK  status: ('A' for Active; 'I' for Inactive)
REMARK    1  A    between atoms: O_2  and  C_3 
REMARK    2  A    between atoms: C_5  and  C_6 
REMARK    3  A    between atoms: C_10  and  N_11 
REMARK    4  A    between atoms: C_14  and  C_15 
ROOT
HETATM    1  C   UNL     1      42.454 -14.176   2.532  1.00  0.00     0.164 C 
HETATM    2  N   UNL     1      42.250 -15.600   2.779  1.00  0.00    -0.074 N 
HETATM    3  C   UNL     1      41.203 -16.120   3.488  1.00  0.00     0.736 A 
HETATM    4  N   UNL     1      41.307 -17.424   3.500  1.00  0.00     0.131 NA
HETATM    5  C   UNL     1      42.479 -17.647   2.837  1.00  0.00     0.753 A 
HETATM    6  N   UNL     1      43.094 -16.563   2.368  1.00  0.00     0.037 NA
HETATM    7  N   UNL     1      40.271 -15.329   4.050  1.00  0.00    -0.214 N 
HETATM    8  C   UNL     1      40.307 -13.880   3.922  1.00  0.00     0.135 C 
HETATM    9  C   UNL     1      41.751 -13.391   3.662  1.00  0.00     0.063 C 
HETATM   10  H   UNL     1      39.452 -15.748   4.480  1.00  0.00     0.178 HD
ENDROOT
BRANCH   1  11
HETATM   11  C   UNL     1      42.063 -13.725   1.124  1.00  0.00    -0.030 A 
HETATM   12  C   UNL     1      41.711 -14.624   0.094  1.00  0.00     0.046 A 
HETATM   13  C   UNL     1      41.337 -14.167  -1.173  1.00  0.00     0.068 A 
HETATM   14  C   UNL     1      41.318 -12.798  -1.428  1.00  0.00     0.037 A 
HETATM   15  C   UNL     1      41.687 -11.890  -0.439  1.00  0.00     0.003 A 
HETATM   16  C   UNL     1      42.066 -12.351   0.822  1.00  0.00     0.009 A 
BRANCH  13  17
HETATM   17  O   UNL     1      40.965 -14.951  -2.231  1.00  0.00    -0.356 OA
HETATM   18  C   UNL     1      40.880 -14.318  -3.502  1.00  0.00     0.210 C 
ENDBRANCH  13  17
ENDBRANCH   1  11
BRANCH   8  19
HETATM   19  C   UNL     1      39.291 -13.345   2.923  1.00  0.00    -0.035 A 
HETATM   20  C   UNL     1      38.682 -14.148   1.944  1.00  0.00     0.010 A 
HETATM   21  C   UNL     1      37.791 -13.600   1.018  1.00  0.00     0.019 A 
HETATM   22  C   UNL     1      37.487 -12.243   1.067  1.00  0.00     0.011 A 
HETATM   23 BR   UNL     1      36.292 -11.499  -0.194  1.00  0.00    -0.051 Br
HETATM   24  C   UNL     1      38.059 -11.430   2.041  1.00  0.00     0.019 A 
HETATM   25  C   UNL     1      38.953 -11.979   2.963  1.00  0.00     0.010 A 
ENDBRANCH   8  19
BRANCH   5  26
HETATM   26  N   UNL     1      42.895 -18.898   2.682  1.00  0.00    -0.229 N 
HETATM   27  H   UNL     1      43.533 -19.262   3.377  1.00  0.00     0.174 HD
HETATM   28  H   UNL     1      42.235 -19.565   2.306  1.00  0.00     0.174 HD
ENDBRANCH   5  26
TORSDOF 4
ENDMDL
MODEL 10
REMARK VINA RESULT:      -6.1      3.327      5.163
REMARK  4 active torsions:
REMARK  status: ('A' for Active; 'I' for Inactive)
REMARK    1  A    between atoms: O_2  and  C_3 
REMARK    2  A    between atoms: C_5  and  C_6 
REMARK    3  A    between atoms: C_10  and  N_11 
REMARK    4  A    between atoms: C_14  and  C_15 
ROOT
HETATM    1  C   UNL     1      41.359 -17.114   3.877  1.00  0.00     0.164 C 
HETATM    2  N   UNL     1      42.351 -17.989   3.260  1.00  0.00    -0.074 N 
HETATM    3  C   UNL     1      42.403 -18.279   1.925  1.00  0.00     0.736 A 
HETATM    4  N   UNL     1      43.422 -19.069   1.704  1.00  0.00     0.131 NA
HETATM    5  C   UNL     1      43.922 -19.286   2.954  1.00  0.00     0.753 A 
HETATM    6  N   UNL     1      43.307 -18.643   3.945  1.00  0.00     0.037 NA
HETATM    7  N   UNL     1      41.498 -17.785   1.061  1.00  0.00    -0.214 N 
HETATM    8  C   UNL     1      40.426 -16.899   1.487  1.00  0.00     0.135 C 
HETATM    9  C   UNL     1      40.099 -17.118   2.983  1.00  0.00     0.063 C 
HETATM   10  H   UNL     1      41.624 -17.933   0.065  1.00  0.00     0.178 HD
ENDROOT
BRANCH   1  11
HETATM   11  C   UNL     1      41.882 -15.716   4.211  1.00  0.00    -0.030 A 
HETATM   12  C   UNL     1      41.193 -14.812   5.046  1.00  0.00     0.046 A 
HETATM   13  C   UNL     1      41.720 -13.552   5.344  1.00  0.00     0.068 A 
HETATM   14  C   UNL     1      42.947 -13.177   4.801  1.00  0.00     0.037 A 
HETATM   15  C   UNL     1      43.635 -14.039   3.951  1.00  0.00     0.003 A 
HETATM   16  C   UNL     1      43.103 -15.293   3.652  1.00  0.00     0.009 A 
BRANCH  13  17
HETATM   17  O   UNL     1      41.141 -12.610   6.151  1.00  0.00    -0.356 OA
HETATM   18  C   UNL     1      41.364 -11.247   5.812  1.00  0.00     0.210 C 
ENDBRANCH  13  17
ENDBRANCH   1  11
BRANCH   8  19
HETATM   19  C   UNL     1      40.675 -15.442   1.123  1.00  0.00    -0.035 A 
HETATM   20  C   UNL     1      41.713 -15.033   0.269  1.00  0.00     0.010 A 
HETATM   21  C   UNL     1      41.932 -13.679   0.002  1.00  0.00     0.019 A 
HETATM   22  C   UNL     1      41.108 -12.717   0.577  1.00  0.00     0.011 A 
HETATM   23 BR   UNL     1      41.412 -10.885   0.227  1.00  0.00    -0.051 Br
HETATM   24  C   UNL     1      40.060 -13.096   1.409  1.00  0.00     0.019 A 
HETATM   25  C   UNL     1      39.845 -14.451   1.678  1.00  0.00     0.010 A 
ENDBRANCH   8  19
BRANCH   5  26
HETATM   26  N   UNL     1      44.980 -20.078   3.089  1.00  0.00    -0.229 N 
HETATM   27  H   UNL     1      44.842 -20.955   3.573  1.00  0.00     0.174 HD
HETATM   28  H   UNL     1      45.644 -20.101   2.327  1.00  0.00     0.174 HD
ENDBRANCH   5  26
TORSDOF 4
ENDMDL
