MODEL 1
REMARK VINA RESULT:      -8.2      0.000      0.000
REMARK  5 active torsions:
REMARK  status: ('A' for Active; 'I' for Inactive)
REMARK    1  A    between atoms: C_8  and  C_9 
REMARK       I    between atoms: N_10  and  C_11 
REMARK       I    between atoms: C_11  and  N_12 
REMARK    2  A    between atoms: N_12  and  C_13 
REMARK    3  A    between atoms: C_15  and  O_16 
REMARK    4  A    between atoms: O_16  and  C_17 
REMARK    5  A    between atoms: C_17  and  C_18 
ROOT
HETATM    1  C   UNL     1      43.280 -16.111   4.662  1.00  0.00     0.126 C 
HETATM    2  N   UNL     1      43.776 -15.772   5.991  1.00  0.00    -0.325 N 
HETATM    3  C   UNL     1      44.259 -14.499   6.265  1.00  0.00     0.323 C 
HETATM    4  N   UNL     1      44.416 -14.286   7.620  1.00  0.00    -0.309 N 
HETATM    5  O   UNL     1      44.455 -13.668   5.385  1.00  0.00    -0.247 OA
HETATM    6  C   UNL     1      44.237 -16.960   6.698  1.00  0.00     0.128 C 
HETATM    7  C   UNL     1      44.364 -18.019   5.614  1.00  0.00     0.022 C 
HETATM    8  C   UNL     1      43.248 -17.646   4.650  1.00  0.00     0.032 C 
HETATM    9  H   UNL     1      43.839 -14.883   8.192  1.00  0.00     0.170 HD
ENDROOT
BRANCH   4  10
HETATM   10  C   UNL     1      44.915 -13.123   8.233  1.00  0.00     0.039 A 
HETATM   11  C   UNL     1      44.067 -12.442   9.113  1.00  0.00     0.066 A 
HETATM   12  C   UNL     1      44.475 -11.256   9.729  1.00  0.00     0.071 A 
HETATM   13  C   UNL     1      45.772 -10.787   9.526  1.00  0.00     0.037 A 
HETATM   14  C   UNL     1      46.633 -11.477   8.670  1.00  0.00     0.005 A 
HETATM   15  C   UNL     1      46.203 -12.634   8.016  1.00  0.00     0.030 A 
BRANCH  12  16
HETATM   16  O   UNL     1      43.521 -10.652  10.502  1.00  0.00    -0.347 OA
BRANCH  16  17
HETATM   17  C   UNL     1      43.741 -10.676  11.913  1.00  0.00     0.208 C 
BRANCH  17  18
HETATM   18  C   UNL     1      43.110  -9.443  12.517  1.00  0.00    -0.069 C 
HETATM   19  C   UNL     1      43.254  -9.278  14.003  1.00  0.00     0.044 C 
HETATM   20  C   UNL     1      42.460  -8.534  11.769  1.00  0.00     0.016 C 
ENDBRANCH  17  18
ENDBRANCH  16  17
ENDBRANCH  12  16
ENDBRANCH   4  10
BRANCH   1  21
HETATM   21  C   UNL     1      41.925 -15.522   4.398  1.00  0.00     0.014 A 
HETATM   22  C   UNL     1      40.773 -15.747   5.137  1.00  0.00     0.034 A 
HETATM   23  C   UNL     1      40.516 -16.590   6.327  1.00  0.00     0.070 C 
HETATM   24  N   UNL     1      39.788 -15.013   4.543  1.00  0.00    -0.282 N 
HETATM   25  H   UNL     1      38.809 -14.951   4.802  1.00  0.00     0.189 HD
HETATM   26  N   UNL     1      40.210 -14.284   3.506  1.00  0.00    -0.179 NA
HETATM   27  C   UNL     1      41.505 -14.599   3.390  1.00  0.00     0.061 A 
HETATM   28  C   UNL     1      42.299 -13.981   2.297  1.00  0.00     0.073 C 
ENDBRANCH   1  21
TORSDOF 5
ENDMDL
MODEL 2
REMARK VINA RESULT:      -8.1      6.637      9.418
REMARK  5 active torsions:
REMARK  status: ('A' for Active; 'I' for Inactive)
REMARK    1  A    between atoms: C_8  and  C_9 
REMARK       I    between atoms: N_10  and  C_11 
REMARK       I    between atoms: C_11  and  N_12 
REMARK    2  A    between atoms: N_12  and  C_13 
REMARK    3  A    between atoms: C_15  and  O_16 
REMARK    4  A    between atoms: O_16  and  C_17 
REMARK    5  A    between atoms: C_17  and  C_18 
ROOT
HETATM    1  C   UNL     1      39.607 -14.386  -0.419  1.00  0.00     0.126 C 
HETATM    2  N   UNL     1      39.996 -14.595   0.972  1.00  0.00    -0.325 N 
HETATM    3  C   UNL     1      40.580 -15.789   1.373  1.00  0.00     0.323 C 
HETATM    4  N   UNL     1      41.127 -15.698   2.637  1.00  0.00    -0.309 N 
HETATM    5  O   UNL     1      40.637 -16.772   0.640  1.00  0.00    -0.247 OA
HETATM    6  C   UNL     1      39.204 -13.763   1.868  1.00  0.00     0.128 C 
HETATM    7  C   UNL     1      38.035 -13.296   1.016  1.00  0.00     0.022 C 
HETATM    8  C   UNL     1      38.654 -13.184  -0.369  1.00  0.00     0.032 C 
HETATM    9  H   UNL     1      41.358 -14.755   2.910  1.00  0.00     0.170 HD
ENDROOT
BRANCH   4  10
HETATM   10  C   UNL     1      41.762 -16.729   3.352  1.00  0.00     0.039 A 
HETATM   11  C   UNL     1      42.708 -17.501   2.670  1.00  0.00     0.066 A 
HETATM   12  C   UNL     1      43.350 -18.570   3.300  1.00  0.00     0.071 A 
HETATM   13  C   UNL     1      43.105 -18.821   4.649  1.00  0.00     0.037 A 
HETATM   14  C   UNL     1      42.181 -18.037   5.343  1.00  0.00     0.005 A 
HETATM   15  C   UNL     1      41.503 -17.003   4.695  1.00  0.00     0.030 A 
BRANCH  12  16
HETATM   16  O   UNL     1      44.192 -19.289   2.496  1.00  0.00    -0.347 OA
BRANCH  16  17
HETATM   17  C   UNL     1      45.026 -20.248   3.148  1.00  0.00     0.208 C 
BRANCH  17  18
HETATM   18  C   UNL     1      44.501 -21.630   2.836  1.00  0.00    -0.069 C 
HETATM   19  C   UNL     1      43.925 -21.832   1.463  1.00  0.00     0.044 C 
HETATM   20  C   UNL     1      44.549 -22.631   3.731  1.00  0.00     0.016 C 
ENDBRANCH  17  18
ENDBRANCH  16  17
ENDBRANCH  12  16
ENDBRANCH   4  10
BRANCH   1  21
HETATM   21  C   UNL     1      40.791 -14.123  -1.303  1.00  0.00     0.014 A 
HETATM   22  C   UNL     1      41.096 -14.782  -2.485  1.00  0.00     0.034 A 
HETATM   23  C   UNL     1      40.417 -15.887  -3.199  1.00  0.00     0.070 C 
HETATM   24  N   UNL     1      42.249 -14.219  -2.951  1.00  0.00    -0.282 N 
HETATM   25  H   UNL     1      42.775 -14.464  -3.783  1.00  0.00     0.189 HD
HETATM   26  N   UNL     1      42.698 -13.209  -2.199  1.00  0.00    -0.179 NA
HETATM   27  C   UNL     1      41.833 -13.151  -1.179  1.00  0.00     0.061 A 
HETATM   28  C   UNL     1      42.049 -12.140  -0.113  1.00  0.00     0.073 C 
ENDBRANCH   1  21
TORSDOF 5
ENDMDL
MODEL 3
REMARK VINA RESULT:      -8.1      5.009      7.975
REMARK  5 active torsions:
REMARK  status: ('A' for Active; 'I' for Inactive)
REMARK    1  A    between atoms: C_8  and  C_9 
REMARK       I    between atoms: N_10  and  C_11 
REMARK       I    between atoms: C_11  and  N_12 
REMARK    2  A    between atoms: N_12  and  C_13 
REMARK    3  A    between atoms: C_15  and  O_16 
REMARK    4  A    between atoms: O_16  and  C_17 
REMARK    5  A    between atoms: C_17  and  C_18 
ROOT
HETATM    1  C   UNL     1      40.153 -14.332  -0.305  1.00  0.00     0.126 C 
HETATM    2  N   UNL     1      40.854 -14.750   0.905  1.00  0.00    -0.325 N 
HETATM    3  C   UNL     1      41.393 -16.025   1.007  1.00  0.00     0.323 C 
HETATM    4  N   UNL     1      42.246 -16.140   2.088  1.00  0.00    -0.309 N 
HETATM    5  O   UNL     1      41.163 -16.904   0.183  1.00  0.00    -0.247 OA
HETATM    6  C   UNL     1      40.402 -13.988   2.062  1.00  0.00     0.128 C 
HETATM    7  C   UNL     1      39.111 -13.331   1.600  1.00  0.00     0.022 C 
HETATM    8  C   UNL     1      39.372 -13.082   0.122  1.00  0.00     0.032 C 
HETATM    9  H   UNL     1      42.633 -15.260   2.391  1.00  0.00     0.170 HD
ENDROOT
BRANCH   4  10
HETATM   10  C   UNL     1      42.929 -17.300   2.496  1.00  0.00     0.039 A 
HETATM   11  C   UNL     1      42.973 -17.575   3.866  1.00  0.00     0.066 A 
HETATM   12  C   UNL     1      43.668 -18.685   4.353  1.00  0.00     0.071 A 
HETATM   13  C   UNL     1      44.257 -19.575   3.456  1.00  0.00     0.037 A 
HETATM   14  C   UNL     1      44.193 -19.320   2.084  1.00  0.00     0.005 A 
HETATM   15  C   UNL     1      43.542 -18.181   1.606  1.00  0.00     0.030 A 
BRANCH  12  16
HETATM   16  O   UNL     1      43.697 -18.792   5.716  1.00  0.00    -0.347 OA
BRANCH  16  17
HETATM   17  C   UNL     1      44.732 -18.071   6.387  1.00  0.00     0.208 C 
BRANCH  17  18
HETATM   18  C   UNL     1      44.095 -16.988   7.226  1.00  0.00    -0.069 C 
HETATM   19  C   UNL     1      44.301 -15.575   6.762  1.00  0.00     0.044 C 
HETATM   20  C   UNL     1      43.375 -17.268   8.326  1.00  0.00     0.016 C 
ENDBRANCH  17  18
ENDBRANCH  16  17
ENDBRANCH  12  16
ENDBRANCH   4  10
BRANCH   1  21
HETATM   21  C   UNL     1      41.099 -14.040  -1.434  1.00  0.00     0.014 A 
HETATM   22  C   UNL     1      41.184 -14.732  -2.633  1.00  0.00     0.034 A 
HETATM   23  C   UNL     1      40.442 -15.906  -3.148  1.00  0.00     0.070 C 
HETATM   24  N   UNL     1      42.171 -14.125  -3.355  1.00  0.00    -0.282 N 
HETATM   25  H   UNL     1      42.520 -14.376  -4.274  1.00  0.00     0.189 HD
HETATM   26  N   UNL     1      42.703 -13.059  -2.750  1.00  0.00    -0.179 NA
HETATM   27  C   UNL     1      42.077 -13.006  -1.569  1.00  0.00     0.061 A 
HETATM   28  C   UNL     1      42.450 -11.938  -0.607  1.00  0.00     0.073 C 
ENDBRANCH   1  21
TORSDOF 5
ENDMDL
MODEL 4
REMARK VINA RESULT:      -7.8      6.216      9.327
REMARK  5 active torsions:
REMARK  status: ('A' for Active; 'I' for Inactive)
REMARK    1  A    between atoms: C_8  and  C_9 
REMARK       I    between atoms: N_10  and  C_11 
REMARK       I    between atoms: C_11  and  N_12 
REMARK    2  A    between atoms: N_12  and  C_13 
REMARK    3  A    between atoms: C_15  and  O_16 
REMARK    4  A    between atoms: O_16  and  C_17 
REMARK    5  A    between atoms: C_17  and  C_18 
ROOT
HETATM    1  C   UNL     1      39.504 -13.973  -0.840  1.00  0.00     0.126 C 
HETATM    2  N   UNL     1      40.014 -13.936   0.527  1.00  0.00    -0.325 N 
HETATM    3  C   UNL     1      40.400 -15.104   1.171  1.00  0.00     0.323 C 
HETATM    4  N   UNL     1      41.107 -14.845   2.329  1.00  0.00    -0.309 N 
HETATM    5  O   UNL     1      40.173 -16.216   0.707  1.00  0.00    -0.247 OA
HETATM    6  C   UNL     1      39.518 -12.767   1.240  1.00  0.00     0.128 C 
HETATM    7  C   UNL     1      38.365 -12.264   0.386  1.00  0.00     0.022 C 
HETATM    8  C   UNL     1      38.817 -12.613  -1.024  1.00  0.00     0.032 C 
HETATM    9  H   UNL     1      41.549 -13.939   2.338  1.00  0.00     0.170 HD
ENDROOT
BRANCH   4  10
HETATM   10  C   UNL     1      41.613 -15.798   3.232  1.00  0.00     0.039 A 
HETATM   11  C   UNL     1      42.683 -16.589   2.804  1.00  0.00     0.066 A 
HETATM   12  C   UNL     1      43.213 -17.585   3.629  1.00  0.00     0.071 A 
HETATM   13  C   UNL     1      42.722 -17.739   4.924  1.00  0.00     0.037 A 
HETATM   14  C   UNL     1      41.671 -16.933   5.367  1.00  0.00     0.005 A 
HETATM   15  C   UNL     1      41.109 -15.975   4.521  1.00  0.00     0.030 A 
BRANCH  12  16
HETATM   16  O   UNL     1      44.204 -18.337   3.058  1.00  0.00    -0.347 OA
BRANCH  16  17
HETATM   17  C   UNL     1      43.788 -19.312   2.100  1.00  0.00     0.208 C 
BRANCH  17  18
HETATM   18  C   UNL     1      44.235 -20.674   2.579  1.00  0.00    -0.069 C 
HETATM   19  C   UNL     1      44.019 -21.819   1.631  1.00  0.00     0.044 C 
HETATM   20  C   UNL     1      44.803 -20.856   3.783  1.00  0.00     0.016 C 
ENDBRANCH  17  18
ENDBRANCH  16  17
ENDBRANCH  12  16
ENDBRANCH   4  10
BRANCH   1  21
HETATM   21  C   UNL     1      40.597 -14.187  -1.846  1.00  0.00     0.014 A 
HETATM   22  C   UNL     1      41.798 -13.496  -1.913  1.00  0.00     0.034 A 
HETATM   23  C   UNL     1      42.348 -12.395  -1.090  1.00  0.00     0.070 C 
HETATM   24  N   UNL     1      42.482 -14.019  -2.973  1.00  0.00    -0.282 N 
HETATM   25  H   UNL     1      43.390 -13.743  -3.331  1.00  0.00     0.189 HD
HETATM   26  N   UNL     1      41.850 -15.031  -3.575  1.00  0.00    -0.179 NA
HETATM   27  C   UNL     1      40.691 -15.132  -2.914  1.00  0.00     0.061 A 
HETATM   28  C   UNL     1      39.707 -16.158  -3.346  1.00  0.00     0.073 C 
ENDBRANCH   1  21
TORSDOF 5
ENDMDL
MODEL 5
REMARK VINA RESULT:      -7.6      7.718     10.427
REMARK  5 active torsions:
REMARK  status: ('A' for Active; 'I' for Inactive)
REMARK    1  A    between atoms: C_8  and  C_9 
REMARK       I    between atoms: N_10  and  C_11 
REMARK       I    between atoms: C_11  and  N_12 
REMARK    2  A    between atoms: N_12  and  C_13 
REMARK    3  A    between atoms: C_15  and  O_16 
REMARK    4  A    between atoms: O_16  and  C_17 
REMARK    5  A    between atoms: C_17  and  C_18 
ROOT
HETATM    1  C   UNL     1      40.027 -13.064  -2.566  1.00  0.00     0.126 C 
HETATM    2  N   UNL     1      41.033 -13.928  -1.959  1.00  0.00    -0.325 N 
HETATM    3  C   UNL     1      40.804 -14.527  -0.728  1.00  0.00     0.323 C 
HETATM    4  N   UNL     1      41.731 -15.514  -0.453  1.00  0.00    -0.309 N 
HETATM    5  O   UNL     1      39.847 -14.230  -0.020  1.00  0.00    -0.247 OA
HETATM    6  C   UNL     1      42.368 -13.596  -2.440  1.00  0.00     0.128 C 
HETATM    7  C   UNL     1      42.207 -12.232  -3.091  1.00  0.00     0.022 C 
HETATM    8  C   UNL     1      40.793 -12.293  -3.650  1.00  0.00     0.032 C 
HETATM    9  H   UNL     1      42.164 -15.901  -1.276  1.00  0.00     0.170 HD
ENDROOT
BRANCH   4  10
HETATM   10  C   UNL     1      41.806 -16.289   0.718  1.00  0.00     0.039 A 
HETATM   11  C   UNL     1      42.829 -17.240   0.798  1.00  0.00     0.066 A 
HETATM   12  C   UNL     1      42.944 -18.077   1.912  1.00  0.00     0.071 A 
HETATM   13  C   UNL     1      42.078 -17.908   2.991  1.00  0.00     0.037 A 
HETATM   14  C   UNL     1      41.071 -16.942   2.928  1.00  0.00     0.005 A 
HETATM   15  C   UNL     1      40.927 -16.144   1.792  1.00  0.00     0.030 A 
BRANCH  12  16
HETATM   16  O   UNL     1      43.938 -19.012   1.827  1.00  0.00    -0.347 OA
BRANCH  16  17
HETATM   17  C   UNL     1      44.240 -19.727   3.026  1.00  0.00     0.208 C 
BRANCH  17  18
HETATM   18  C   UNL     1      44.237 -21.206   2.715  1.00  0.00    -0.069 C 
HETATM   19  C   UNL     1      44.674 -22.123   3.822  1.00  0.00     0.044 C 
HETATM   20  C   UNL     1      43.856 -21.683   1.518  1.00  0.00     0.016 C 
ENDBRANCH  17  18
ENDBRANCH  16  17
ENDBRANCH  12  16
ENDBRANCH   4  10
BRANCH   1  21
HETATM   21  C   UNL     1      38.882 -13.846  -3.141  1.00  0.00     0.014 A 
HETATM   22  C   UNL     1      37.590 -13.384  -3.342  1.00  0.00     0.034 A 
HETATM   23  C   UNL     1      36.958 -12.075  -3.060  1.00  0.00     0.070 C 
HETATM   24  N   UNL     1      36.891 -14.424  -3.884  1.00  0.00    -0.282 N 
HETATM   25  H   UNL     1      35.911 -14.454  -4.142  1.00  0.00     0.189 HD
HETATM   26  N   UNL     1      37.633 -15.514  -4.104  1.00  0.00    -0.179 NA
HETATM   27  C   UNL     1      38.843 -15.186  -3.638  1.00  0.00     0.061 A 
HETATM   28  C   UNL     1      39.931 -16.196  -3.697  1.00  0.00     0.073 C 
ENDBRANCH   1  21
TORSDOF 5
ENDMDL
MODEL 6
REMARK VINA RESULT:      -7.5      4.741      7.911
REMARK  5 active torsions:
REMARK  status: ('A' for Active; 'I' for Inactive)
REMARK    1  A    between atoms: C_8  and  C_9 
REMARK       I    between atoms: N_10  and  C_11 
REMARK       I    between atoms: C_11  and  N_12 
REMARK    2  A    between atoms: N_12  and  C_13 
REMARK    3  A    between atoms: C_15  and  O_16 
REMARK    4  A    between atoms: O_16  and  C_17 
REMARK    5  A    between atoms: C_17  and  C_18 
ROOT
HETATM    1  C   UNL     1      39.826 -13.874   3.882  1.00  0.00     0.126 C 
HETATM    2  N   UNL     1      40.862 -14.229   4.845  1.00  0.00    -0.325 N 
HETATM    3  C   UNL     1      41.229 -15.555   5.035  1.00  0.00     0.323 C 
HETATM    4  N   UNL     1      42.397 -15.668   5.763  1.00  0.00    -0.309 N 
HETATM    5  O   UNL     1      40.598 -16.487   4.549  1.00  0.00    -0.247 OA
HETATM    6  C   UNL     1      40.973 -13.221   5.892  1.00  0.00     0.128 C 
HETATM    7  C   UNL     1      39.701 -12.399   5.760  1.00  0.00     0.022 C 
HETATM    8  C   UNL     1      39.428 -12.441   4.264  1.00  0.00     0.032 C 
HETATM    9  H   UNL     1      42.981 -14.847   5.720  1.00  0.00     0.170 HD
ENDROOT
BRANCH   4  10
HETATM   10  C   UNL     1      43.024 -16.863   6.160  1.00  0.00     0.039 A 
HETATM   11  C   UNL     1      43.785 -17.541   5.202  1.00  0.00     0.066 A 
HETATM   12  C   UNL     1      44.405 -18.756   5.508  1.00  0.00     0.071 A 
HETATM   13  C   UNL     1      44.331 -19.258   6.806  1.00  0.00     0.037 A 
HETATM   14  C   UNL     1      43.595 -18.571   7.774  1.00  0.00     0.005 A 
HETATM   15  C   UNL     1      42.934 -17.384   7.450  1.00  0.00     0.030 A 
BRANCH  12  16
HETATM   16  O   UNL     1      45.050 -19.351   4.459  1.00  0.00    -0.347 OA
BRANCH  16  17
HETATM   17  C   UNL     1      44.586 -20.649   4.083  1.00  0.00     0.208 C 
BRANCH  17  18
HETATM   18  C   UNL     1      44.161 -20.604   2.634  1.00  0.00    -0.069 C 
HETATM   19  C   UNL     1      44.308 -21.880   1.854  1.00  0.00     0.044 C 
HETATM   20  C   UNL     1      43.671 -19.487   2.068  1.00  0.00     0.016 C 
ENDBRANCH  17  18
ENDBRANCH  16  17
ENDBRANCH  12  16
ENDBRANCH   4  10
BRANCH   1  21
HETATM   21  C   UNL     1      40.318 -13.957   2.466  1.00  0.00     0.014 A 
HETATM   22  C   UNL     1      39.545 -14.210   1.342  1.00  0.00     0.034 A 
HETATM   23  C   UNL     1      38.098 -14.478   1.182  1.00  0.00     0.070 C 
HETATM   24  N   UNL     1      40.401 -14.192   0.278  1.00  0.00    -0.282 N 
HETATM   25  H   UNL     1      40.189 -14.358  -0.700  1.00  0.00     0.189 HD
HETATM   26  N   UNL     1      41.662 -13.896   0.606  1.00  0.00    -0.179 NA
HETATM   27  C   UNL     1      41.633 -13.771   1.938  1.00  0.00     0.061 A 
HETATM   28  C   UNL     1      42.897 -13.466   2.657  1.00  0.00     0.073 C 
ENDBRANCH   1  21
TORSDOF 5
ENDMDL
MODEL 7
REMARK VINA RESULT:      -7.5      5.638      8.876
REMARK  5 active torsions:
REMARK  status: ('A' for Active; 'I' for Inactive)
REMARK    1  A    between atoms: C_8  and  C_9 
REMARK       I    between atoms: N_10  and  C_11 
REMARK       I    between atoms: C_11  and  N_12 
REMARK    2  A    between atoms: N_12  and  C_13 
REMARK    3  A    between atoms: C_15  and  O_16 
REMARK    4  A    between atoms: O_16  and  C_17 
REMARK    5  A    between atoms: C_17  and  C_18 
ROOT
HETATM    1  C   UNL     1      42.376 -17.235   3.431  1.00  0.00     0.126 C 
HETATM    2  N   UNL     1      42.589 -16.829   2.046  1.00  0.00    -0.325 N 
HETATM    3  C   UNL     1      41.537 -16.349   1.277  1.00  0.00     0.323 C 
HETATM    4  N   UNL     1      41.978 -15.761   0.108  1.00  0.00    -0.309 N 
HETATM    5  O   UNL     1      40.371 -16.406   1.651  1.00  0.00    -0.247 OA
HETATM    6  C   UNL     1      43.740 -17.513   1.471  1.00  0.00     0.128 C 
HETATM    7  C   UNL     1      44.020 -18.656   2.433  1.00  0.00     0.022 C 
HETATM    8  C   UNL     1      43.617 -18.068   3.777  1.00  0.00     0.032 C 
HETATM    9  H   UNL     1      42.931 -15.434   0.155  1.00  0.00     0.170 HD
ENDROOT
BRANCH   4  10
HETATM   10  C   UNL     1      41.175 -15.207  -0.905  1.00  0.00     0.039 A 
HETATM   11  C   UNL     1      40.540 -13.990  -0.634  1.00  0.00     0.066 A 
HETATM   12  C   UNL     1      39.694 -13.398  -1.575  1.00  0.00     0.071 A 
HETATM   13  C   UNL     1      39.543 -13.985  -2.830  1.00  0.00     0.037 A 
HETATM   14  C   UNL     1      40.196 -15.186  -3.117  1.00  0.00     0.005 A 
HETATM   15  C   UNL     1      40.999 -15.801  -2.154  1.00  0.00     0.030 A 
BRANCH  12  16
HETATM   16  O   UNL     1      39.077 -12.252  -1.151  1.00  0.00    -0.347 OA
BRANCH  16  17
HETATM   17  C   UNL     1      38.809 -12.157   0.249  1.00  0.00     0.208 C 
BRANCH  17  18
HETATM   18  C   UNL     1      37.435 -12.726   0.513  1.00  0.00    -0.069 C 
HETATM   19  C   UNL     1      36.285 -11.763   0.429  1.00  0.00     0.044 C 
HETATM   20  C   UNL     1      37.243 -14.025   0.802  1.00  0.00     0.016 C 
ENDBRANCH  17  18
ENDBRANCH  16  17
ENDBRANCH  12  16
ENDBRANCH   4  10
BRANCH   1  21
HETATM   21  C   UNL     1      42.221 -16.057   4.348  1.00  0.00     0.014 A 
HETATM   22  C   UNL     1      41.452 -16.009   5.501  1.00  0.00     0.034 A 
HETATM   23  C   UNL     1      40.584 -17.019   6.149  1.00  0.00     0.070 C 
HETATM   24  N   UNL     1      41.609 -14.754   6.014  1.00  0.00    -0.282 N 
HETATM   25  H   UNL     1      41.178 -14.356   6.842  1.00  0.00     0.189 HD
HETATM   26  N   UNL     1      42.459 -13.991   5.320  1.00  0.00    -0.179 NA
HETATM   27  C   UNL     1      42.824 -14.762   4.290  1.00  0.00     0.061 A 
HETATM   28  C   UNL     1      43.761 -14.209   3.278  1.00  0.00     0.073 C 
ENDBRANCH   1  21
TORSDOF 5
ENDMDL
MODEL 8
REMARK VINA RESULT:      -7.5      6.447      9.496
REMARK  5 active torsions:
REMARK  status: ('A' for Active; 'I' for Inactive)
REMARK    1  A    between atoms: C_8  and  C_9 
REMARK       I    between atoms: N_10  and  C_11 
REMARK       I    between atoms: C_11  and  N_12 
REMARK    2  A    between atoms: N_12  and  C_13 
REMARK    3  A    between atoms: C_15  and  O_16 
REMARK    4  A    between atoms: O_16  and  C_17 
REMARK    5  A    between atoms: C_17  and  C_18 
ROOT
HETATM    1  C   UNL     1      40.070 -12.402  -0.778  1.00  0.00     0.126 C 
HETATM    2  N   UNL     1      40.927 -12.847   0.316  1.00  0.00    -0.325 N 
HETATM    3  C   UNL     1      40.635 -14.009   1.017  1.00  0.00     0.323 C 
HETATM    4  N   UNL     1      41.691 -14.412   1.811  1.00  0.00    -0.309 N 
HETATM    5  O   UNL     1      39.576 -14.612   0.879  1.00  0.00    -0.247 OA
HETATM    6  C   UNL     1      41.646 -11.726   0.908  1.00  0.00     0.128 C 
HETATM    7  C   UNL     1      40.919 -10.495   0.390  1.00  0.00     0.022 C 
HETATM    8  C   UNL     1      40.463 -10.934  -0.994  1.00  0.00     0.032 C 
HETATM    9  H   UNL     1      42.585 -14.066   1.500  1.00  0.00     0.170 HD
ENDROOT
BRANCH   4  10
HETATM   10  C   UNL     1      41.715 -15.525   2.671  1.00  0.00     0.039 A 
HETATM   11  C   UNL     1      42.205 -16.729   2.156  1.00  0.00     0.066 A 
HETATM   12  C   UNL     1      42.222 -17.889   2.936  1.00  0.00     0.071 A 
HETATM   13  C   UNL     1      41.821 -17.826   4.269  1.00  0.00     0.037 A 
HETATM   14  C   UNL     1      41.356 -16.620   4.798  1.00  0.00     0.005 A 
HETATM   15  C   UNL     1      41.292 -15.476   3.999  1.00  0.00     0.030 A 
BRANCH  12  16
HETATM   16  O   UNL     1      42.652 -19.012   2.285  1.00  0.00    -0.347 OA
BRANCH  16  17
HETATM   17  C   UNL     1      44.066 -19.213   2.234  1.00  0.00     0.208 C 
BRANCH  17  18
HETATM   18  C   UNL     1      44.371 -20.601   2.747  1.00  0.00    -0.069 C 
HETATM   19  C   UNL     1      44.088 -21.739   1.807  1.00  0.00     0.044 C 
HETATM   20  C   UNL     1      44.874 -20.814   3.975  1.00  0.00     0.016 C 
ENDBRANCH  17  18
ENDBRANCH  16  17
ENDBRANCH  12  16
ENDBRANCH   4  10
BRANCH   1  21
HETATM   21  C   UNL     1      40.268 -13.221  -2.020  1.00  0.00     0.014 A 
HETATM   22  C   UNL     1      39.289 -13.926  -2.704  1.00  0.00     0.034 A 
HETATM   23  C   UNL     1      37.842 -14.104  -2.444  1.00  0.00     0.070 C 
HETATM   24  N   UNL     1      39.912 -14.516  -3.765  1.00  0.00    -0.282 N 
HETATM   25  H   UNL     1      39.509 -15.124  -4.470  1.00  0.00     0.189 HD
HETATM   26  N   UNL     1      41.210 -14.212  -3.864  1.00  0.00    -0.179 NA
HETATM   27  C   UNL     1      41.448 -13.442  -2.797  1.00  0.00     0.061 A 
HETATM   28  C   UNL     1      42.827 -12.938  -2.570  1.00  0.00     0.073 C 
ENDBRANCH   1  21
TORSDOF 5
ENDMDL
MODEL 9
REMARK VINA RESULT:      -7.2      5.351      8.005
REMARK  5 active torsions:
REMARK  status: ('A' for Active; 'I' for Inactive)
REMARK    1  A    between atoms: C_8  and  C_9 
REMARK       I    between atoms: N_10  and  C_11 
REMARK       I    between atoms: C_11  and  N_12 
REMARK    2  A    between atoms: N_12  and  C_13 
REMARK    3  A    between atoms: C_15  and  O_16 
REMARK    4  A    between atoms: O_16  and  C_17 
REMARK    5  A    between atoms: C_17  and  C_18 
ROOT
HETATM    1  C   UNL     1      40.652 -12.922  -0.644  1.00  0.00     0.126 C 
HETATM    2  N   UNL     1      40.860 -14.360  -0.516  1.00  0.00    -0.325 N 
HETATM    3  C   UNL     1      41.678 -14.874   0.481  1.00  0.00     0.323 C 
HETATM    4  N   UNL     1      41.531 -16.240   0.618  1.00  0.00    -0.309 N 
HETATM    5  O   UNL     1      42.391 -14.160   1.178  1.00  0.00    -0.247 OA
HETATM    6  C   UNL     1      40.651 -15.034  -1.792  1.00  0.00     0.128 C 
HETATM    7  C   UNL     1      40.673 -13.914  -2.819  1.00  0.00     0.022 C 
HETATM    8  C   UNL     1      40.071 -12.746  -2.053  1.00  0.00     0.032 C 
HETATM    9  H   UNL     1      40.645 -16.586   0.282  1.00  0.00     0.170 HD
ENDROOT
BRANCH   4  10
HETATM   10  C   UNL     1      42.232 -17.073   1.508  1.00  0.00     0.039 A 
HETATM   11  C   UNL     1      41.650 -17.319   2.756  1.00  0.00     0.066 A 
HETATM   12  C   UNL     1      42.304 -18.103   3.710  1.00  0.00     0.071 A 
HETATM   13  C   UNL     1      43.515 -18.713   3.386  1.00  0.00     0.037 A 
HETATM   14  C   UNL     1      44.088 -18.492   2.131  1.00  0.00     0.005 A 
HETATM   15  C   UNL     1      43.456 -17.666   1.200  1.00  0.00     0.030 A 
BRANCH  12  16
HETATM   16  O   UNL     1      41.661 -18.198   4.914  1.00  0.00    -0.347 OA
BRANCH  16  17
HETATM   17  C   UNL     1      41.347 -16.966   5.564  1.00  0.00     0.208 C 
BRANCH  17  18
HETATM   18  C   UNL     1      42.517 -16.572   6.435  1.00  0.00    -0.069 C 
HETATM   19  C   UNL     1      42.826 -17.481   7.590  1.00  0.00     0.044 C 
HETATM   20  C   UNL     1      43.250 -15.472   6.191  1.00  0.00     0.016 C 
ENDBRANCH  17  18
ENDBRANCH  16  17
ENDBRANCH  12  16
ENDBRANCH   4  10
BRANCH   1  21
HETATM   21  C   UNL     1      39.727 -12.389   0.412  1.00  0.00     0.014 A 
HETATM   22  C   UNL     1      39.932 -11.258   1.188  1.00  0.00     0.034 A 
HETATM   23  C   UNL     1      41.050 -10.289   1.241  1.00  0.00     0.070 C 
HETATM   24  N   UNL     1      38.843 -11.152   2.004  1.00  0.00    -0.282 N 
HETATM   25  H   UNL     1      38.660 -10.456   2.719  1.00  0.00     0.189 HD
HETATM   26  N   UNL     1      37.916 -12.091   1.791  1.00  0.00    -0.179 NA
HETATM   27  C   UNL     1      38.449 -12.866   0.839  1.00  0.00     0.061 A 
HETATM   28  C   UNL     1      37.686 -14.051   0.368  1.00  0.00     0.073 C 
ENDBRANCH   1  21
TORSDOF 5
ENDMDL
MODEL 10
REMARK VINA RESULT:      -7.2      5.586      8.924
REMARK  5 active torsions:
REMARK  status: ('A' for Active; 'I' for Inactive)
REMARK    1  A    between atoms: C_8  and  C_9 
REMARK       I    between atoms: N_10  and  C_11 
REMARK       I    between atoms: C_11  and  N_12 
REMARK    2  A    between atoms: N_12  and  C_13 
REMARK    3  A    between atoms: C_15  and  O_16 
REMARK    4  A    between atoms: O_16  and  C_17 
REMARK    5  A    between atoms: C_17  and  C_18 
ROOT
HETATM    1  C   UNL     1      42.328 -17.166   3.456  1.00  0.00     0.126 C 
HETATM    2  N   UNL     1      42.598 -16.733   2.089  1.00  0.00    -0.325 N 
HETATM    3  C   UNL     1      41.591 -16.186   1.306  1.00  0.00     0.323 C 
HETATM    4  N   UNL     1      42.089 -15.588   0.166  1.00  0.00    -0.309 N 
HETATM    5  O   UNL     1      40.412 -16.201   1.647  1.00  0.00    -0.247 OA
HETATM    6  C   UNL     1      43.734 -17.453   1.526  1.00  0.00     0.128 C 
HETATM    7  C   UNL     1      43.935 -18.633   2.464  1.00  0.00     0.022 C 
HETATM    8  C   UNL     1      43.521 -18.063   3.812  1.00  0.00     0.032 C 
HETATM    9  H   UNL     1      43.054 -15.306   0.247  1.00  0.00     0.170 HD
ENDROOT
BRANCH   4  10
HETATM   10  C   UNL     1      41.341 -14.972  -0.853  1.00  0.00     0.039 A 
HETATM   11  C   UNL     1      41.019 -13.620  -0.691  1.00  0.00     0.066 A 
HETATM   12  C   UNL     1      40.243 -12.949  -1.640  1.00  0.00     0.071 A 
HETATM   13  C   UNL     1      39.852 -13.613  -2.801  1.00  0.00     0.037 A 
HETATM   14  C   UNL     1      40.193 -14.955  -2.982  1.00  0.00     0.005 A 
HETATM   15  C   UNL     1      40.924 -15.636  -2.006  1.00  0.00     0.030 A 
BRANCH  12  16
HETATM   16  O   UNL     1      39.937 -11.655  -1.320  1.00  0.00    -0.347 OA
BRANCH  16  17
HETATM   17  C   UNL     1      40.955 -10.910  -0.648  1.00  0.00     0.208 C 
BRANCH  17  18
HETATM   18  C   UNL     1      41.865 -10.298  -1.688  1.00  0.00    -0.069 C 
HETATM   19  C   UNL     1      43.340 -10.501  -1.489  1.00  0.00     0.044 C 
HETATM   20  C   UNL     1      41.386  -9.612  -2.741  1.00  0.00     0.016 C 
ENDBRANCH  17  18
ENDBRANCH  16  17
ENDBRANCH  12  16
ENDBRANCH   4  10
BRANCH   1  21
HETATM   21  C   UNL     1      42.200 -16.006   4.401  1.00  0.00     0.014 A 
HETATM   22  C   UNL     1      41.438 -15.971   5.559  1.00  0.00     0.034 A 
HETATM   23  C   UNL     1      40.554 -16.979   6.187  1.00  0.00     0.070 C 
HETATM   24  N   UNL     1      41.621 -14.731   6.100  1.00  0.00    -0.282 N 
HETATM   25  H   UNL     1      41.202 -14.345   6.939  1.00  0.00     0.189 HD
HETATM   26  N   UNL     1      42.482 -13.968   5.419  1.00  0.00    -0.179 NA
HETATM   27  C   UNL     1      42.828 -14.722   4.370  1.00  0.00     0.061 A 
HETATM   28  C   UNL     1      43.770 -14.164   3.366  1.00  0.00     0.073 C 
ENDBRANCH   1  21
TORSDOF 5
ENDMDL
