MODEL 1
REMARK VINA RESULT:      -7.4      0.000      0.000
REMARK  7 active torsions:
REMARK  status: ('A' for Active; 'I' for Inactive)
REMARK    1  A    between atoms: O_2  and  C_3 
REMARK    2  A    between atoms: C_4  and  C_5 
REMARK    3  A    between atoms: C_6  and  C_7 
REMARK       I    between atoms: C_7  and  N_8 
REMARK    4  A    between atoms: N_8  and  C_9 
REMARK    5  A    between atoms: C_9  and  C_10 
REMARK    6  A    between atoms: C_10  and  N_11 
REMARK    7  A    between atoms: C_10  and  C_18 
ROOT
HETATM    1  C   UNL     1      40.912 -16.880   1.887  1.00  0.00     0.241 C 
HETATM    2  N   UNL     1      41.894 -16.634   2.818  1.00  0.00    -0.355 N 
HETATM    3  O   UNL     1      41.051 -17.679   0.974  1.00  0.00    -0.269 OA
HETATM    4  H   UNL     1      41.737 -15.885   3.485  1.00  0.00     0.162 HD
ENDROOT
BRANCH   2   5
HETATM    5  C   UNL     1      43.261 -17.081   2.582  1.00  0.00     0.163 C 
BRANCH   5   6
HETATM    6  C   UNL     1      43.910 -17.935   3.700  1.00  0.00     0.262 C 
BRANCH   6   7
HETATM    7  N   UNL     1      43.909 -19.445   3.432  1.00  0.00    -0.059 N 
HETATM    8  H   UNL     1      43.027 -19.731   3.882  1.00  0.00     0.280 HD
HETATM    9  C   UNL     1      43.763 -19.877   1.994  1.00  0.00     0.236 C 
HETATM   10  C   UNL     1      43.393 -21.356   1.970  1.00  0.00     0.028 C 
HETATM   11  C   UNL     1      44.432 -22.202   2.702  1.00  0.00     0.003 C 
HETATM   12  C   UNL     1      44.694 -21.679   4.111  1.00  0.00     0.028 C 
HETATM   13  C   UNL     1      45.024 -20.191   4.117  1.00  0.00     0.236 C 
ENDBRANCH   6   7
BRANCH   6  14
HETATM   14  C   UNL     1      43.386 -17.616   5.071  1.00  0.00     0.085 A 
HETATM   15  O   UNL     1      43.548 -16.319   5.481  1.00  0.00    -0.325 OA
HETATM   16  C   UNL     1      43.002 -16.220   6.720  1.00  0.00     0.142 A 
HETATM   17  C   UNL     1      42.478 -17.428   7.111  1.00  0.00     0.027 A 
HETATM   18  C   UNL     1      42.714 -18.329   6.044  1.00  0.00     0.037 A 
ENDBRANCH   6  14
ENDBRANCH   5   6
ENDBRANCH   2   5
BRANCH   1  19
HETATM   19  C   UNL     1      39.670 -16.119   2.150  1.00  0.00     0.075 C 
HETATM   20  C   UNL     1      39.399 -14.921   1.610  1.00  0.00     0.020 C 
BRANCH  20  21
HETATM   21  C   UNL     1      40.297 -14.153   0.740  1.00  0.00    -0.001 A 
HETATM   22  C   UNL     1      41.190 -13.209   1.269  1.00  0.00     0.078 A 
HETATM   23  C   UNL     1      42.010 -12.455   0.426  1.00  0.00     0.039 A 
HETATM   24  C   UNL     1      41.980 -12.673  -0.952  1.00  0.00     0.022 A 
HETATM   25  C   UNL     1      41.120 -13.634  -1.479  1.00  0.00     0.012 A 
HETATM   26  C   UNL     1      40.281 -14.375  -0.644  1.00  0.00     0.033 A 
HETATM   27 BR   UNL     1      41.075 -13.933  -3.345  1.00  0.00    -0.051 Br
BRANCH  22  28
HETATM   28  O   UNL     1      41.200 -12.958   2.618  1.00  0.00    -0.355 OA
HETATM   29  C   UNL     1      42.511 -13.141   3.152  1.00  0.00     0.210 C 
ENDBRANCH  22  28
ENDBRANCH  20  21
ENDBRANCH   1  19
TORSDOF 7
ENDMDL
MODEL 2
REMARK VINA RESULT:      -7.3      1.730      2.564
REMARK  7 active torsions:
REMARK  status: ('A' for Active; 'I' for Inactive)
REMARK    1  A    between atoms: O_2  and  C_3 
REMARK    2  A    between atoms: C_4  and  C_5 
REMARK    3  A    between atoms: C_6  and  C_7 
REMARK       I    between atoms: C_7  and  N_8 
REMARK    4  A    between atoms: N_8  and  C_9 
REMARK    5  A    between atoms: C_9  and  C_10 
REMARK    6  A    between atoms: C_10  and  N_11 
REMARK    7  A    between atoms: C_10  and  C_18 
ROOT
HETATM    1  C   UNL     1      42.372 -14.758   2.278  1.00  0.00     0.241 C 
HETATM    2  N   UNL     1      42.546 -16.100   2.036  1.00  0.00    -0.355 N 
HETATM    3  O   UNL     1      43.299 -14.008   2.544  1.00  0.00    -0.269 OA
HETATM    4  H   UNL     1      41.715 -16.672   1.920  1.00  0.00     0.162 HD
ENDROOT
BRANCH   2   5
HETATM    5  C   UNL     1      43.800 -16.756   2.389  1.00  0.00     0.163 C 
BRANCH   5   6
HETATM    6  C   UNL     1      43.772 -17.666   3.644  1.00  0.00     0.262 C 
BRANCH   6   7
HETATM    7  N   UNL     1      43.807 -19.169   3.343  1.00  0.00    -0.059 N 
HETATM    8  H   UNL     1      42.908 -19.478   3.740  1.00  0.00     0.280 HD
HETATM    9  C   UNL     1      43.742 -19.570   1.890  1.00  0.00     0.236 C 
HETATM   10  C   UNL     1      43.396 -21.053   1.813  1.00  0.00     0.028 C 
HETATM   11  C   UNL     1      44.409 -21.901   2.579  1.00  0.00     0.003 C 
HETATM   12  C   UNL     1      44.590 -21.407   4.012  1.00  0.00     0.028 C 
HETATM   13  C   UNL     1      44.897 -19.914   4.068  1.00  0.00     0.236 C 
ENDBRANCH   6   7
BRANCH   6  14
HETATM   14  C   UNL     1      42.671 -17.319   4.604  1.00  0.00     0.085 A 
HETATM   15  O   UNL     1      42.838 -16.153   5.303  1.00  0.00    -0.325 OA
HETATM   16  C   UNL     1      41.745 -16.002   6.095  1.00  0.00     0.142 A 
HETATM   17  C   UNL     1      40.871 -17.044   5.910  1.00  0.00     0.027 A 
HETATM   18  C   UNL     1      41.459 -17.891   4.940  1.00  0.00     0.037 A 
ENDBRANCH   6  14
ENDBRANCH   5   6
ENDBRANCH   2   5
BRANCH   1  19
HETATM   19  C   UNL     1      40.964 -14.327   2.127  1.00  0.00     0.075 C 
HETATM   20  C   UNL     1      40.499 -13.656   1.062  1.00  0.00     0.020 C 
BRANCH  20  21
HETATM   21  C   UNL     1      41.302 -13.190  -0.074  1.00  0.00    -0.001 A 
HETATM   22  C   UNL     1      41.460 -13.977  -1.224  1.00  0.00     0.078 A 
HETATM   23  C   UNL     1      42.261 -13.539  -2.282  1.00  0.00     0.039 A 
HETATM   24  C   UNL     1      42.873 -12.286  -2.220  1.00  0.00     0.022 A 
HETATM   25  C   UNL     1      42.689 -11.486  -1.094  1.00  0.00     0.012 A 
HETATM   26  C   UNL     1      41.909 -11.927  -0.024  1.00  0.00     0.033 A 
HETATM   27 BR   UNL     1      43.516  -9.787  -1.006  1.00  0.00    -0.051 Br
BRANCH  22  28
HETATM   28  O   UNL     1      40.898 -15.228  -1.279  1.00  0.00    -0.355 OA
HETATM   29  C   UNL     1      40.796 -15.672  -2.632  1.00  0.00     0.210 C 
ENDBRANCH  22  28
ENDBRANCH  20  21
ENDBRANCH   1  19
TORSDOF 7
ENDMDL
MODEL 3
REMARK VINA RESULT:      -7.2      1.631      1.907
REMARK  7 active torsions:
REMARK  status: ('A' for Active; 'I' for Inactive)
REMARK    1  A    between atoms: O_2  and  C_3 
REMARK    2  A    between atoms: C_4  and  C_5 
REMARK    3  A    between atoms: C_6  and  C_7 
REMARK       I    between atoms: C_7  and  N_8 
REMARK    4  A    between atoms: N_8  and  C_9 
REMARK    5  A    between atoms: C_9  and  C_10 
REMARK    6  A    between atoms: C_10  and  N_11 
REMARK    7  A    between atoms: C_10  and  C_18 
ROOT
HETATM    1  C   UNL     1      42.635 -14.545   2.687  1.00  0.00     0.241 C 
HETATM    2  N   UNL     1      42.523 -15.865   2.319  1.00  0.00    -0.355 N 
HETATM    3  O   UNL     1      43.712 -13.998   2.867  1.00  0.00    -0.269 OA
HETATM    4  H   UNL     1      41.591 -16.269   2.286  1.00  0.00     0.162 HD
ENDROOT
BRANCH   2   5
HETATM    5  C   UNL     1      43.667 -16.761   2.430  1.00  0.00     0.163 C 
BRANCH   5   6
HETATM    6  C   UNL     1      43.710 -17.675   3.681  1.00  0.00     0.262 C 
BRANCH   6   7
HETATM    7  N   UNL     1      43.772 -19.175   3.373  1.00  0.00    -0.059 N 
HETATM    8  H   UNL     1      42.872 -19.500   3.758  1.00  0.00     0.280 HD
HETATM    9  C   UNL     1      43.731 -19.570   1.918  1.00  0.00     0.236 C 
HETATM   10  C   UNL     1      43.409 -21.058   1.830  1.00  0.00     0.028 C 
HETATM   11  C   UNL     1      44.425 -21.894   2.605  1.00  0.00     0.003 C 
HETATM   12  C   UNL     1      44.580 -21.404   4.042  1.00  0.00     0.028 C 
HETATM   13  C   UNL     1      44.863 -19.908   4.109  1.00  0.00     0.236 C 
ENDBRANCH   6   7
BRANCH   6  14
HETATM   14  C   UNL     1      42.637 -17.359   4.684  1.00  0.00     0.085 A 
HETATM   15  O   UNL     1      42.896 -16.302   5.516  1.00  0.00    -0.325 OA
HETATM   16  C   UNL     1      41.817 -16.160   6.328  1.00  0.00     0.142 A 
HETATM   17  C   UNL     1      40.861 -17.099   6.025  1.00  0.00     0.027 A 
HETATM   18  C   UNL     1      41.383 -17.867   4.956  1.00  0.00     0.037 A 
ENDBRANCH   6  14
ENDBRANCH   5   6
ENDBRANCH   2   5
BRANCH   1  19
HETATM   19  C   UNL     1      41.325 -13.863   2.781  1.00  0.00     0.075 C 
HETATM   20  C   UNL     1      40.656 -13.380   1.724  1.00  0.00     0.020 C 
BRANCH  20  21
HETATM   21  C   UNL     1      41.131 -13.387   0.335  1.00  0.00    -0.001 A 
HETATM   22  C   UNL     1      42.015 -12.405  -0.136  1.00  0.00     0.078 A 
HETATM   23  C   UNL     1      42.427 -12.400  -1.471  1.00  0.00     0.039 A 
HETATM   24  C   UNL     1      41.996 -13.407  -2.337  1.00  0.00     0.022 A 
HETATM   25  C   UNL     1      41.146 -14.404  -1.864  1.00  0.00     0.012 A 
HETATM   26  C   UNL     1      40.712 -14.402  -0.537  1.00  0.00     0.033 A 
HETATM   27 BR   UNL     1      40.560 -15.770  -3.032  1.00  0.00    -0.051 Br
BRANCH  22  28
HETATM   28  O   UNL     1      42.413 -11.388   0.695  1.00  0.00    -0.355 OA
HETATM   29  C   UNL     1      41.775 -10.164   0.328  1.00  0.00     0.210 C 
ENDBRANCH  22  28
ENDBRANCH  20  21
ENDBRANCH   1  19
TORSDOF 7
ENDMDL
MODEL 4
REMARK VINA RESULT:      -7.1      1.529      1.855
REMARK  7 active torsions:
REMARK  status: ('A' for Active; 'I' for Inactive)
REMARK    1  A    between atoms: O_2  and  C_3 
REMARK    2  A    between atoms: C_4  and  C_5 
REMARK    3  A    between atoms: C_6  and  C_7 
REMARK       I    between atoms: C_7  and  N_8 
REMARK    4  A    between atoms: N_8  and  C_9 
REMARK    5  A    between atoms: C_9  and  C_10 
REMARK    6  A    between atoms: C_10  and  N_11 
REMARK    7  A    between atoms: C_10  and  C_18 
ROOT
HETATM    1  C   UNL     1      41.465 -16.894   1.780  1.00  0.00     0.241 C 
HETATM    2  N   UNL     1      42.083 -17.135   2.984  1.00  0.00    -0.355 N 
HETATM    3  O   UNL     1      42.074 -16.839   0.723  1.00  0.00    -0.269 OA
HETATM    4  H   UNL     1      41.520 -17.067   3.827  1.00  0.00     0.162 HD
ENDROOT
BRANCH   2   5
HETATM    5  C   UNL     1      43.532 -17.027   3.103  1.00  0.00     0.163 C 
BRANCH   5   6
HETATM    6  C   UNL     1      44.217 -18.003   4.094  1.00  0.00     0.262 C 
BRANCH   6   7
HETATM    7  N   UNL     1      44.114 -19.483   3.705  1.00  0.00    -0.059 N 
HETATM    8  H   UNL     1      43.175 -19.721   4.058  1.00  0.00     0.280 HD
HETATM    9  C   UNL     1      44.059 -19.794   2.230  1.00  0.00     0.236 C 
HETATM   10  C   UNL     1      43.571 -21.228   2.057  1.00  0.00     0.028 C 
HETATM   11  C   UNL     1      44.469 -22.214   2.800  1.00  0.00     0.003 C 
HETATM   12  C   UNL     1      44.648 -21.822   4.264  1.00  0.00     0.028 C 
HETATM   13  C   UNL     1      45.099 -20.373   4.416  1.00  0.00     0.236 C 
ENDBRANCH   6   7
BRANCH   6  14
HETATM   14  C   UNL     1      43.816 -17.776   5.523  1.00  0.00     0.085 A 
HETATM   15  O   UNL     1      42.468 -17.775   5.768  1.00  0.00    -0.325 OA
HETATM   16  C   UNL     1      42.305 -17.577   7.101  1.00  0.00     0.142 A 
HETATM   17  C   UNL     1      43.525 -17.464   7.723  1.00  0.00     0.027 A 
HETATM   18  C   UNL     1      44.503 -17.604   6.709  1.00  0.00     0.037 A 
ENDBRANCH   6  14
ENDBRANCH   5   6
ENDBRANCH   2   5
BRANCH   1  19
HETATM   19  C   UNL     1      39.995 -16.768   1.906  1.00  0.00     0.075 C 
HETATM   20  C   UNL     1      39.356 -15.598   2.053  1.00  0.00     0.020 C 
BRANCH  20  21
HETATM   21  C   UNL     1      39.996 -14.283   2.178  1.00  0.00    -0.001 A 
HETATM   22  C   UNL     1      40.601 -13.879   3.378  1.00  0.00     0.078 A 
HETATM   23  C   UNL     1      41.170 -12.609   3.496  1.00  0.00     0.039 A 
HETATM   24  C   UNL     1      41.185 -11.748   2.398  1.00  0.00     0.022 A 
HETATM   25  C   UNL     1      40.617 -12.158   1.193  1.00  0.00     0.012 A 
HETATM   26  C   UNL     1      40.026 -13.417   1.076  1.00  0.00     0.033 A 
HETATM   27 BR   UNL     1      40.635 -10.995  -0.297  1.00  0.00    -0.051 Br
BRANCH  22  28
HETATM   28  O   UNL     1      40.556 -14.701   4.476  1.00  0.00    -0.355 OA
HETATM   29  C   UNL     1      41.571 -14.340   5.413  1.00  0.00     0.210 C 
ENDBRANCH  22  28
ENDBRANCH  20  21
ENDBRANCH   1  19
TORSDOF 7
ENDMDL
MODEL 5
REMARK VINA RESULT:      -7.1      2.555      3.664
REMARK  7 active torsions:
REMARK  status: ('A' for Active; 'I' for Inactive)
REMARK    1  A    between atoms: O_2  and  C_3 
REMARK    2  A    between atoms: C_4  and  C_5 
REMARK    3  A    between atoms: C_6  and  C_7 
REMARK       I    between atoms: C_7  and  N_8 
REMARK    4  A    between atoms: N_8  and  C_9 
REMARK    5  A    between atoms: C_9  and  C_10 
REMARK    6  A    between atoms: C_10  and  N_11 
REMARK    7  A    between atoms: C_10  and  C_18 
ROOT
HETATM    1  C   UNL     1      41.804 -15.603   1.137  1.00  0.00     0.241 C 
HETATM    2  N   UNL     1      43.033 -16.127   1.462  1.00  0.00    -0.355 N 
HETATM    3  O   UNL     1      40.770 -16.249   1.207  1.00  0.00    -0.269 OA
HETATM    4  H   UNL     1      43.854 -15.556   1.282  1.00  0.00     0.162 HD
ENDROOT
BRANCH   2   5
HETATM    5  C   UNL     1      43.205 -17.567   1.609  1.00  0.00     0.163 C 
BRANCH   5   6
HETATM    6  C   UNL     1      43.838 -18.055   2.937  1.00  0.00     0.262 C 
BRANCH   6   7
HETATM    7  N   UNL     1      44.234 -19.536   2.948  1.00  0.00    -0.059 N 
HETATM    8  H   UNL     1      45.193 -19.493   2.571  1.00  0.00     0.280 HD
HETATM    9  C   UNL     1      44.384 -20.187   4.301  1.00  0.00     0.236 C 
HETATM   10  C   UNL     1      45.144 -21.497   4.125  1.00  0.00     0.028 C 
HETATM   11  C   UNL     1      44.437 -22.422   3.138  1.00  0.00     0.003 C 
HETATM   12  C   UNL     1      44.149 -21.721   1.814  1.00  0.00     0.028 C 
HETATM   13  C   UNL     1      43.423 -20.395   2.014  1.00  0.00     0.236 C 
ENDBRANCH   6   7
BRANCH   6  14
HETATM   14  C   UNL     1      43.030 -17.689   4.149  1.00  0.00     0.085 A 
HETATM   15  O   UNL     1      41.670 -17.698   3.980  1.00  0.00    -0.325 OA
HETATM   16  C   UNL     1      41.117 -17.364   5.174  1.00  0.00     0.142 A 
HETATM   17  C   UNL     1      42.097 -17.154   6.114  1.00  0.00     0.027 A 
HETATM   18  C   UNL     1      43.332 -17.374   5.459  1.00  0.00     0.037 A 
ENDBRANCH   6  14
ENDBRANCH   5   6
ENDBRANCH   2   5
BRANCH   1  19
HETATM   19  C   UNL     1      41.874 -14.176   0.752  1.00  0.00     0.075 C 
HETATM   20  C   UNL     1      41.877 -13.164   1.633  1.00  0.00     0.020 C 
BRANCH  20  21
HETATM   21  C   UNL     1      41.747 -13.296   3.089  1.00  0.00    -0.001 A 
HETATM   22  C   UNL     1      40.495 -13.230   3.717  1.00  0.00     0.078 A 
HETATM   23  C   UNL     1      40.390 -13.316   5.107  1.00  0.00     0.039 A 
HETATM   24  C   UNL     1      41.534 -13.520   5.880  1.00  0.00     0.022 A 
HETATM   25  C   UNL     1      42.777 -13.623   5.257  1.00  0.00     0.012 A 
HETATM   26  C   UNL     1      42.891 -13.514   3.871  1.00  0.00     0.033 A 
HETATM   27 BR   UNL     1      44.329 -13.900   6.301  1.00  0.00    -0.051 Br
BRANCH  22  28
HETATM   28  O   UNL     1      39.369 -12.988   2.971  1.00  0.00    -0.355 OA
HETATM   29  C   UNL     1      38.761 -11.758   3.366  1.00  0.00     0.210 C 
ENDBRANCH  22  28
ENDBRANCH  20  21
ENDBRANCH   1  19
TORSDOF 7
ENDMDL
MODEL 6
REMARK VINA RESULT:      -7.1      2.696      7.277
REMARK  7 active torsions:
REMARK  status: ('A' for Active; 'I' for Inactive)
REMARK    1  A    between atoms: O_2  and  C_3 
REMARK    2  A    between atoms: C_4  and  C_5 
REMARK    3  A    between atoms: C_6  and  C_7 
REMARK       I    between atoms: C_7  and  N_8 
REMARK    4  A    between atoms: N_8  and  C_9 
REMARK    5  A    between atoms: C_9  and  C_10 
REMARK    6  A    between atoms: C_10  and  N_11 
REMARK    7  A    between atoms: C_10  and  C_18 
ROOT
HETATM    1  C   UNL     1      43.414 -17.782   1.271  1.00  0.00     0.241 C 
HETATM    2  N   UNL     1      42.132 -17.315   1.105  1.00  0.00    -0.355 N 
HETATM    3  O   UNL     1      44.382 -17.042   1.354  1.00  0.00    -0.269 OA
HETATM    4  H   UNL     1      41.396 -17.997   0.946  1.00  0.00     0.162 HD
ENDROOT
BRANCH   2   5
HETATM    5  C   UNL     1      41.897 -15.932   0.707  1.00  0.00     0.163 C 
BRANCH   5   6
HETATM    6  C   UNL     1      40.954 -15.103   1.617  1.00  0.00     0.262 C 
BRANCH   6   7
HETATM    7  N   UNL     1      39.935 -14.241   0.863  1.00  0.00    -0.059 N 
HETATM    8  H   UNL     1      40.199 -13.295   1.172  1.00  0.00     0.280 HD
HETATM    9  C   UNL     1      40.062 -14.202  -0.640  1.00  0.00     0.236 C 
HETATM   10  C   UNL     1      39.248 -13.024  -1.163  1.00  0.00     0.028 C 
HETATM   11  C   UNL     1      37.787 -13.122  -0.731  1.00  0.00     0.003 C 
HETATM   12  C   UNL     1      37.656 -13.311   0.778  1.00  0.00     0.028 C 
HETATM   13  C   UNL     1      38.507 -14.469   1.285  1.00  0.00     0.236 C 
ENDBRANCH   6   7
BRANCH   6  14
HETATM   14  C   UNL     1      41.685 -14.309   2.662  1.00  0.00     0.085 A 
HETATM   15  O   UNL     1      42.996 -14.653   2.859  1.00  0.00    -0.325 OA
HETATM   16  C   UNL     1      43.487 -13.823   3.815  1.00  0.00     0.142 A 
HETATM   17  C   UNL     1      42.518 -12.941   4.228  1.00  0.00     0.027 A 
HETATM   18  C   UNL     1      41.357 -13.244   3.478  1.00  0.00     0.037 A 
ENDBRANCH   6  14
ENDBRANCH   5   6
ENDBRANCH   2   5
BRANCH   1  19
HETATM   19  C   UNL     1      43.475 -19.256   1.392  1.00  0.00     0.075 C 
HETATM   20  C   UNL     1      43.520 -19.909   2.562  1.00  0.00     0.020 C 
BRANCH  20  21
HETATM   21  C   UNL     1      43.582 -19.283   3.889  1.00  0.00    -0.001 A 
HETATM   22  C   UNL     1      44.572 -19.641   4.816  1.00  0.00     0.078 A 
HETATM   23  C   UNL     1      44.594 -19.068   6.090  1.00  0.00     0.039 A 
HETATM   24  C   UNL     1      43.655 -18.094   6.432  1.00  0.00     0.022 A 
HETATM   25  C   UNL     1      42.691 -17.709   5.501  1.00  0.00     0.012 A 
HETATM   26  C   UNL     1      42.649 -18.295   4.235  1.00  0.00     0.033 A 
HETATM   27 BR   UNL     1      41.417 -16.390   5.959  1.00  0.00    -0.051 Br
BRANCH  22  28
HETATM   28  O   UNL     1      45.475 -20.626   4.506  1.00  0.00    -0.355 OA
HETATM   29  C   UNL     1      45.080 -21.869   5.089  1.00  0.00     0.210 C 
ENDBRANCH  22  28
ENDBRANCH  20  21
ENDBRANCH   1  19
TORSDOF 7
ENDMDL
MODEL 7
REMARK VINA RESULT:      -6.9      3.115      7.159
REMARK  7 active torsions:
REMARK  status: ('A' for Active; 'I' for Inactive)
REMARK    1  A    between atoms: O_2  and  C_3 
REMARK    2  A    between atoms: C_4  and  C_5 
REMARK    3  A    between atoms: C_6  and  C_7 
REMARK       I    between atoms: C_7  and  N_8 
REMARK    4  A    between atoms: N_8  and  C_9 
REMARK    5  A    between atoms: C_9  and  C_10 
REMARK    6  A    between atoms: C_10  and  N_11 
REMARK    7  A    between atoms: C_10  and  C_18 
ROOT
HETATM    1  C   UNL     1      41.662 -17.050   4.625  1.00  0.00     0.241 C 
HETATM    2  N   UNL     1      41.494 -16.307   3.480  1.00  0.00    -0.355 N 
HETATM    3  O   UNL     1      40.886 -17.931   4.962  1.00  0.00    -0.269 OA
HETATM    4  H   UNL     1      42.128 -15.529   3.323  1.00  0.00     0.162 HD
ENDROOT
BRANCH   2   5
HETATM    5  C   UNL     1      40.220 -16.321   2.772  1.00  0.00     0.163 C 
BRANCH   5   6
HETATM    6  C   UNL     1      39.582 -14.941   2.472  1.00  0.00     0.262 C 
BRANCH   6   7
HETATM    7  N   UNL     1      39.886 -14.388   1.075  1.00  0.00    -0.059 N 
HETATM    8  H   UNL     1      40.401 -13.525   1.304  1.00  0.00     0.280 HD
HETATM    9  C   UNL     1      40.839 -15.188   0.222  1.00  0.00     0.236 C 
HETATM   10  C   UNL     1      41.311 -14.308  -0.929  1.00  0.00     0.028 C 
HETATM   11  C   UNL     1      40.135 -13.787  -1.751  1.00  0.00     0.003 C 
HETATM   12  C   UNL     1      39.092 -13.103  -0.871  1.00  0.00     0.028 C 
HETATM   13  C   UNL     1      38.661 -13.985   0.296  1.00  0.00     0.236 C 
ENDBRANCH   6   7
BRANCH   6  14
HETATM   14  C   UNL     1      39.848 -13.920   3.541  1.00  0.00     0.085 A 
HETATM   15  O   UNL     1      39.624 -14.336   4.827  1.00  0.00    -0.325 OA
HETATM   16  C   UNL     1      39.934 -13.295   5.643  1.00  0.00     0.142 A 
HETATM   17  C   UNL     1      40.365 -12.220   4.905  1.00  0.00     0.027 A 
HETATM   18  C   UNL     1      40.322 -12.623   3.549  1.00  0.00     0.037 A 
ENDBRANCH   6  14
ENDBRANCH   5   6
ENDBRANCH   2   5
BRANCH   1  19
HETATM   19  C   UNL     1      42.898 -16.699   5.359  1.00  0.00     0.075 C 
HETATM   20  C   UNL     1      44.055 -17.368   5.236  1.00  0.00     0.020 C 
BRANCH  20  21
HETATM   21  C   UNL     1      44.265 -18.571   4.423  1.00  0.00    -0.001 A 
HETATM   22  C   UNL     1      44.282 -18.507   3.022  1.00  0.00     0.078 A 
HETATM   23  C   UNL     1      44.442 -19.667   2.258  1.00  0.00     0.039 A 
HETATM   24  C   UNL     1      44.638 -20.895   2.891  1.00  0.00     0.022 A 
HETATM   25  C   UNL     1      44.658 -20.957   4.283  1.00  0.00     0.012 A 
HETATM   26  C   UNL     1      44.475 -19.807   5.051  1.00  0.00     0.033 A 
HETATM   27 BR   UNL     1      44.923 -22.620   5.145  1.00  0.00    -0.051 Br
BRANCH  22  28
HETATM   28  O   UNL     1      44.049 -17.312   2.389  1.00  0.00    -0.355 OA
HETATM   29  C   UNL     1      43.765 -17.525   1.006  1.00  0.00     0.210 C 
ENDBRANCH  22  28
ENDBRANCH  20  21
ENDBRANCH   1  19
TORSDOF 7
ENDMDL
MODEL 8
REMARK VINA RESULT:      -6.9      2.727      7.451
REMARK  7 active torsions:
REMARK  status: ('A' for Active; 'I' for Inactive)
REMARK    1  A    between atoms: O_2  and  C_3 
REMARK    2  A    between atoms: C_4  and  C_5 
REMARK    3  A    between atoms: C_6  and  C_7 
REMARK       I    between atoms: C_7  and  N_8 
REMARK    4  A    between atoms: N_8  and  C_9 
REMARK    5  A    between atoms: C_9  and  C_10 
REMARK    6  A    between atoms: C_10  and  N_11 
REMARK    7  A    between atoms: C_10  and  C_18 
ROOT
HETATM    1  C   UNL     1      41.994 -14.798   5.726  1.00  0.00     0.241 C 
HETATM    2  N   UNL     1      41.551 -13.955   4.734  1.00  0.00    -0.355 N 
HETATM    3  O   UNL     1      43.111 -14.717   6.214  1.00  0.00    -0.269 OA
HETATM    4  H   UNL     1      40.648 -14.152   4.314  1.00  0.00     0.162 HD
ENDROOT
BRANCH   2   5
HETATM    5  C   UNL     1      42.496 -13.125   3.997  1.00  0.00     0.163 C 
BRANCH   5   6
HETATM    6  C   UNL     1      42.559 -13.345   2.464  1.00  0.00     0.262 C 
BRANCH   6   7
HETATM    7  N   UNL     1      42.163 -12.123   1.628  1.00  0.00    -0.059 N 
HETATM    8  H   UNL     1      42.988 -11.517   1.750  1.00  0.00     0.280 HD
HETATM    9  C   UNL     1      42.056 -12.328   0.137  1.00  0.00     0.236 C 
HETATM   10  C   UNL     1      42.048 -10.962  -0.539  1.00  0.00     0.028 C 
HETATM   11  C   UNL     1      40.910 -10.089  -0.015  1.00  0.00     0.003 C 
HETATM   12  C   UNL     1      40.925  -9.997   1.508  1.00  0.00     0.028 C 
HETATM   13  C   UNL     1      40.973 -11.372   2.164  1.00  0.00     0.236 C 
ENDBRANCH   6   7
BRANCH   6  14
HETATM   14  C   UNL     1      41.837 -14.582   2.013  1.00  0.00     0.085 A 
HETATM   15  O   UNL     1      40.482 -14.584   2.211  1.00  0.00    -0.325 OA
HETATM   16  C   UNL     1      40.009 -15.762   1.728  1.00  0.00     0.142 A 
HETATM   17  C   UNL     1      41.035 -16.514   1.210  1.00  0.00     0.027 A 
HETATM   18  C   UNL     1      42.214 -15.751   1.381  1.00  0.00     0.037 A 
ENDBRANCH   6  14
ENDBRANCH   5   6
ENDBRANCH   2   5
BRANCH   1  19
HETATM   19  C   UNL     1      40.958 -15.761   6.164  1.00  0.00     0.075 C 
HETATM   20  C   UNL     1      41.115 -17.093   6.133  1.00  0.00     0.020 C 
BRANCH  20  21
HETATM   21  C   UNL     1      42.288 -17.804   5.610  1.00  0.00    -0.001 A 
HETATM   22  C   UNL     1      43.372 -18.125   6.440  1.00  0.00     0.078 A 
HETATM   23  C   UNL     1      44.500 -18.766   5.920  1.00  0.00     0.039 A 
HETATM   24  C   UNL     1      44.533 -19.136   4.575  1.00  0.00     0.022 A 
HETATM   25  C   UNL     1      43.442 -18.851   3.756  1.00  0.00     0.012 A 
HETATM   26  C   UNL     1      42.323 -18.190   4.263  1.00  0.00     0.033 A 
HETATM   27 BR   UNL     1      43.482 -19.351   1.932  1.00  0.00    -0.051 Br
BRANCH  22  28
HETATM   28  O   UNL     1      43.369 -17.730   7.754  1.00  0.00    -0.355 OA
HETATM   29  C   UNL     1      44.204 -18.584   8.536  1.00  0.00     0.210 C 
ENDBRANCH  22  28
ENDBRANCH  20  21
ENDBRANCH   1  19
TORSDOF 7
ENDMDL
MODEL 9
REMARK VINA RESULT:      -6.9      3.078      7.152
REMARK  7 active torsions:
REMARK  status: ('A' for Active; 'I' for Inactive)
REMARK    1  A    between atoms: O_2  and  C_3 
REMARK    2  A    between atoms: C_4  and  C_5 
REMARK    3  A    between atoms: C_6  and  C_7 
REMARK       I    between atoms: C_7  and  N_8 
REMARK    4  A    between atoms: N_8  and  C_9 
REMARK    5  A    between atoms: C_9  and  C_10 
REMARK    6  A    between atoms: C_10  and  N_11 
REMARK    7  A    between atoms: C_10  and  C_18 
ROOT
HETATM    1  C   UNL     1      41.576 -16.992   1.155  1.00  0.00     0.241 C 
HETATM    2  N   UNL     1      41.148 -15.832   1.756  1.00  0.00    -0.355 N 
HETATM    3  O   UNL     1      40.867 -17.980   1.045  1.00  0.00    -0.269 OA
HETATM    4  H   UNL     1      41.830 -15.092   1.897  1.00  0.00     0.162 HD
ENDROOT
BRANCH   2   5
HETATM    5  C   UNL     1      39.936 -15.826   2.567  1.00  0.00     0.163 C 
BRANCH   5   6
HETATM    6  C   UNL     1      39.403 -14.436   3.000  1.00  0.00     0.262 C 
BRANCH   6   7
HETATM    7  N   UNL     1      38.873 -13.570   1.851  1.00  0.00    -0.059 N 
HETATM    8  H   UNL     1      39.715 -13.471   1.265  1.00  0.00     0.280 HD
HETATM    9  C   UNL     1      37.847 -14.203   0.944  1.00  0.00     0.236 C 
HETATM   10  C   UNL     1      37.742 -13.364  -0.325  1.00  0.00     0.028 C 
HETATM   11  C   UNL     1      37.384 -11.915  -0.006  1.00  0.00     0.003 C 
HETATM   12  C   UNL     1      38.332 -11.313   1.026  1.00  0.00     0.028 C 
HETATM   13  C   UNL     1      38.453 -12.186   2.270  1.00  0.00     0.236 C 
ENDBRANCH   6   7
BRANCH   6  14
HETATM   14  C   UNL     1      40.364 -13.676   3.868  1.00  0.00     0.085 A 
HETATM   15  O   UNL     1      41.507 -13.242   3.250  1.00  0.00    -0.325 OA
HETATM   16  C   UNL     1      42.233 -12.568   4.179  1.00  0.00     0.142 A 
HETATM   17  C   UNL     1      41.571 -12.548   5.382  1.00  0.00     0.027 A 
HETATM   18  C   UNL     1      40.360 -13.252   5.183  1.00  0.00     0.037 A 
ENDBRANCH   6  14
ENDBRANCH   5   6
ENDBRANCH   2   5
BRANCH   1  19
HETATM   19  C   UNL     1      42.952 -16.885   0.620  1.00  0.00     0.075 C 
HETATM   20  C   UNL     1      44.017 -17.483   1.173  1.00  0.00     0.020 C 
BRANCH  20  21
HETATM   21  C   UNL     1      44.009 -18.271   2.412  1.00  0.00    -0.001 A 
HETATM   22  C   UNL     1      43.751 -17.671   3.653  1.00  0.00     0.078 A 
HETATM   23  C   UNL     1      43.787 -18.425   4.829  1.00  0.00     0.039 A 
HETATM   24  C   UNL     1      44.033 -19.797   4.769  1.00  0.00     0.022 A 
HETATM   25  C   UNL     1      44.255 -20.404   3.534  1.00  0.00     0.012 A 
HETATM   26  C   UNL     1      44.244 -19.652   2.358  1.00  0.00     0.033 A 
HETATM   27 BR   UNL     1      44.589 -22.263   3.448  1.00  0.00    -0.051 Br
BRANCH  22  28
HETATM   28  O   UNL     1      43.549 -16.316   3.729  1.00  0.00    -0.355 OA
HETATM   29  C   UNL     1      43.242 -15.930   5.069  1.00  0.00     0.210 C 
ENDBRANCH  22  28
ENDBRANCH  20  21
ENDBRANCH   1  19
TORSDOF 7
ENDMDL
MODEL 10
REMARK VINA RESULT:      -6.8      3.269      7.953
REMARK  7 active torsions:
REMARK  status: ('A' for Active; 'I' for Inactive)
REMARK    1  A    between atoms: O_2  and  C_3 
REMARK    2  A    between atoms: C_4  and  C_5 
REMARK    3  A    between atoms: C_6  and  C_7 
REMARK       I    between atoms: C_7  and  N_8 
REMARK    4  A    between atoms: N_8  and  C_9 
REMARK    5  A    between atoms: C_9  and  C_10 
REMARK    6  A    between atoms: C_10  and  N_11 
REMARK    7  A    between atoms: C_10  and  C_18 
ROOT
HETATM    1  C   UNL     1      40.201 -14.360   0.605  1.00  0.00     0.241 C 
HETATM    2  N   UNL     1      40.345 -15.337  -0.351  1.00  0.00    -0.355 N 
HETATM    3  O   UNL     1      40.770 -13.281   0.541  1.00  0.00    -0.269 OA
HETATM    4  H   UNL     1      39.917 -16.241  -0.173  1.00  0.00     0.162 HD
ENDROOT
BRANCH   2   5
HETATM    5  C   UNL     1      41.424 -15.258  -1.328  1.00  0.00     0.163 C 
BRANCH   5   6
HETATM    6  C   UNL     1      41.101 -14.524  -2.655  1.00  0.00     0.262 C 
BRANCH   6   7
HETATM    7  N   UNL     1      41.493 -13.042  -2.675  1.00  0.00    -0.059 N 
HETATM    8  H   UNL     1      40.812 -12.641  -2.014  1.00  0.00     0.280 HD
HETATM    9  C   UNL     1      42.841 -12.690  -2.095  1.00  0.00     0.236 C 
HETATM   10  C   UNL     1      42.882 -11.186  -1.847  1.00  0.00     0.028 C 
HETATM   11  C   UNL     1      42.606 -10.403  -3.128  1.00  0.00     0.003 C 
HETATM   12  C   UNL     1      41.314 -10.858  -3.801  1.00  0.00     0.028 C 
HETATM   13  C   UNL     1      41.277 -12.368  -4.005  1.00  0.00     0.236 C 
ENDBRANCH   6   7
BRANCH   6  14
HETATM   14  C   UNL     1      39.688 -14.729  -3.117  1.00  0.00     0.085 A 
HETATM   15  O   UNL     1      38.752 -13.904  -2.551  1.00  0.00    -0.325 OA
HETATM   16  C   UNL     1      37.553 -14.222  -3.102  1.00  0.00     0.142 A 
HETATM   17  C   UNL     1      37.701 -15.230  -4.023  1.00  0.00     0.027 A 
HETATM   18  C   UNL     1      39.079 -15.552  -4.044  1.00  0.00     0.037 A 
ENDBRANCH   6  14
ENDBRANCH   5   6
ENDBRANCH   2   5
BRANCH   1  19
HETATM   19  C   UNL     1      39.249 -14.741   1.673  1.00  0.00     0.075 C 
HETATM   20  C   UNL     1      39.599 -15.411   2.781  1.00  0.00     0.020 C 
BRANCH  20  21
HETATM   21  C   UNL     1      40.939 -15.926   3.082  1.00  0.00    -0.001 A 
HETATM   22  C   UNL     1      41.841 -15.192   3.868  1.00  0.00     0.078 A 
HETATM   23  C   UNL     1      43.129 -15.676   4.112  1.00  0.00     0.039 A 
HETATM   24  C   UNL     1      43.511 -16.922   3.615  1.00  0.00     0.022 A 
HETATM   25  C   UNL     1      42.606 -17.671   2.864  1.00  0.00     0.012 A 
HETATM   26  C   UNL     1      41.326 -17.183   2.596  1.00  0.00     0.033 A 
HETATM   27 BR   UNL     1      43.120 -19.360   2.188  1.00  0.00    -0.051 Br
BRANCH  22  28
HETATM   28  O   UNL     1      41.490 -13.948   4.328  1.00  0.00    -0.355 OA
HETATM   29  C   UNL     1      42.328 -12.946   3.750  1.00  0.00     0.210 C 
ENDBRANCH  22  28
ENDBRANCH  20  21
ENDBRANCH   1  19
TORSDOF 7
ENDMDL
