MODEL 1
REMARK VINA RESULT:      -8.7      0.000      0.000
REMARK  6 active torsions:
REMARK  status: ('A' for Active; 'I' for Inactive)
REMARK    1  A    between atoms: C_2  and  O_3 
REMARK    2  A    between atoms: C_2  and  C_4 
REMARK    3  A    between atoms: C_6  and  N_7 
REMARK       I    between atoms: N_7  and  C_8 
REMARK    4  A    between atoms: C_8  and  C_9 
REMARK    5  A    between atoms: C_12  and  C_13 
REMARK    6  A    between atoms: C_18  and  C_19 
ROOT
HETATM    1  C   UNL     1      40.534 -15.518   1.413  1.00  0.00     0.096 A 
HETATM    2  C   UNL     1      40.309 -14.644   0.366  1.00  0.00     0.138 A 
HETATM    3  N   UNL     1      39.038 -14.151   0.524  1.00  0.00    -0.240 N 
HETATM    4  C   UNL     1      38.372 -13.290  -0.439  1.00  0.00     0.221 C 
HETATM    5  C   UNL     1      39.392 -12.680  -1.424  1.00  0.00     0.068 C 
HETATM    6  C   UNL     1      40.427 -13.717  -1.885  1.00  0.00     0.143 C 
HETATM    7  N   UNL     1      41.073 -14.264  -0.690  1.00  0.00    -0.363 N 
HETATM    8  N   UNL     1      38.387 -14.698   1.563  1.00  0.00    -0.181 NA
HETATM    9  C   UNL     1      39.303 -15.500   2.115  1.00  0.00     0.160 A 
HETATM   10  H   UNL     1      41.922 -14.808  -0.876  1.00  0.00     0.162 HD
ENDROOT
BRANCH   1  11
HETATM   11  C   UNL     1      41.754 -16.289   1.633  1.00  0.00     0.261 C 
HETATM   12  N   UNL     1      41.593 -17.382   2.468  1.00  0.00    -0.323 N 
HETATM   13  H   UNL     1      40.687 -17.505   2.896  1.00  0.00     0.169 HD
HETATM   14  O   UNL     1      42.807 -15.957   1.095  1.00  0.00    -0.267 OA
BRANCH  12  15
HETATM   15  C   UNL     1      42.559 -18.346   2.827  1.00  0.00     0.035 A 
HETATM   16  C   UNL     1      43.179 -18.411   4.079  1.00  0.00     0.039 A 
HETATM   17  C   UNL     1      44.145 -19.393   4.364  1.00  0.00    -0.028 A 
HETATM   18  C   UNL     1      44.477 -20.323   3.371  1.00  0.00     0.010 A 
HETATM   19  C   UNL     1      43.868 -20.267   2.120  1.00  0.00     0.003 A 
HETATM   20  C   UNL     1      42.914 -19.285   1.851  1.00  0.00     0.029 A 
BRANCH  17  21
HETATM   21  C   UNL     1      44.771 -19.451   5.741  1.00  0.00     0.147 C 
HETATM   22  C   UNL     1      45.078 -18.056   6.272  1.00  0.00     0.044 C 
BRANCH  21  23
HETATM   23  O   UNL     1      43.891 -20.113   6.648  1.00  0.00    -0.391 OA
HETATM   24  H   UNL     1      43.870 -21.049   6.387  1.00  0.00     0.210 HD
ENDBRANCH  21  23
ENDBRANCH  17  21
ENDBRANCH  12  15
ENDBRANCH   1  11
BRANCH   4  25
HETATM   25  C   UNL     1      37.602 -12.181   0.242  1.00  0.00     0.409 C 
HETATM   26  F   UNL     1      38.266 -11.665   1.301  1.00  0.00    -0.169 F 
HETATM   27  F   UNL     1      37.411 -11.153  -0.630  1.00  0.00    -0.169 F 
HETATM   28  F   UNL     1      36.372 -12.550   0.656  1.00  0.00    -0.169 F 
ENDBRANCH   4  25
BRANCH   6  29
HETATM   29  C   UNL     1      39.825 -14.740  -2.803  1.00  0.00     0.075 A 
HETATM   30  O   UNL     1      38.679 -14.379  -3.453  1.00  0.00    -0.325 OA
HETATM   31  C   UNL     1      38.307 -15.434  -4.222  1.00  0.00     0.142 A 
HETATM   32  C   UNL     1      39.198 -16.471  -4.080  1.00  0.00     0.027 A 
HETATM   33  C   UNL     1      40.180 -16.024  -3.166  1.00  0.00     0.037 A 
ENDBRANCH   6  29
TORSDOF 6
ENDMDL
MODEL 2
REMARK VINA RESULT:      -8.6      1.156      1.836
REMARK  6 active torsions:
REMARK  status: ('A' for Active; 'I' for Inactive)
REMARK    1  A    between atoms: C_2  and  O_3 
REMARK    2  A    between atoms: C_2  and  C_4 
REMARK    3  A    between atoms: C_6  and  N_7 
REMARK       I    between atoms: N_7  and  C_8 
REMARK    4  A    between atoms: C_8  and  C_9 
REMARK    5  A    between atoms: C_12  and  C_13 
REMARK    6  A    between atoms: C_18  and  C_19 
ROOT
HETATM    1  C   UNL     1      40.552 -15.615   1.433  1.00  0.00     0.096 A 
HETATM    2  C   UNL     1      40.335 -14.722   0.400  1.00  0.00     0.138 A 
HETATM    3  N   UNL     1      39.073 -14.214   0.571  1.00  0.00    -0.240 N 
HETATM    4  C   UNL     1      38.415 -13.329  -0.376  1.00  0.00     0.221 C 
HETATM    5  C   UNL     1      39.439 -12.718  -1.356  1.00  0.00     0.068 C 
HETATM    6  C   UNL     1      40.458 -13.763  -1.837  1.00  0.00     0.143 C 
HETATM    7  N   UNL     1      41.101 -14.337  -0.652  1.00  0.00    -0.363 N 
HETATM    8  N   UNL     1      38.417 -14.768   1.604  1.00  0.00    -0.181 NA
HETATM    9  C   UNL     1      39.324 -15.590   2.140  1.00  0.00     0.160 A 
HETATM   10  H   UNL     1      41.942 -14.890  -0.850  1.00  0.00     0.162 HD
ENDROOT
BRANCH   1  11
HETATM   11  C   UNL     1      41.762 -16.406   1.637  1.00  0.00     0.261 C 
HETATM   12  N   UNL     1      41.759 -17.161   2.798  1.00  0.00    -0.323 N 
HETATM   13  H   UNL     1      40.973 -17.046   3.419  1.00  0.00     0.169 HD
HETATM   14  O   UNL     1      42.673 -16.374   0.814  1.00  0.00    -0.267 OA
BRANCH  12  15
HETATM   15  C   UNL     1      42.747 -18.064   3.245  1.00  0.00     0.035 A 
HETATM   16  C   UNL     1      43.057 -19.270   2.609  1.00  0.00     0.039 A 
HETATM   17  C   UNL     1      44.048 -20.129   3.120  1.00  0.00    -0.028 A 
HETATM   18  C   UNL     1      44.736 -19.754   4.280  1.00  0.00     0.010 A 
HETATM   19  C   UNL     1      44.436 -18.556   4.922  1.00  0.00     0.003 A 
HETATM   20  C   UNL     1      43.447 -17.716   4.407  1.00  0.00     0.029 A 
BRANCH  17  21
HETATM   21  C   UNL     1      44.378 -21.411   2.386  1.00  0.00     0.147 C 
HETATM   22  C   UNL     1      44.640 -22.557   3.356  1.00  0.00     0.044 C 
BRANCH  21  23
HETATM   23  O   UNL     1      43.301 -21.767   1.521  1.00  0.00    -0.391 OA
HETATM   24  H   UNL     1      42.482 -21.668   2.035  1.00  0.00     0.210 HD
ENDBRANCH  21  23
ENDBRANCH  17  21
ENDBRANCH  12  15
ENDBRANCH   1  11
BRANCH   4  25
HETATM   25  C   UNL     1      37.663 -12.219   0.324  1.00  0.00     0.409 C 
HETATM   26  F   UNL     1      38.316 -11.762   1.417  1.00  0.00    -0.169 F 
HETATM   27  F   UNL     1      37.526 -11.156  -0.515  1.00  0.00    -0.169 F 
HETATM   28  F   UNL     1      36.412 -12.563   0.695  1.00  0.00    -0.169 F 
ENDBRANCH   4  25
BRANCH   6  29
HETATM   29  C   UNL     1      39.838 -14.763  -2.768  1.00  0.00     0.075 A 
HETATM   30  O   UNL     1      38.667 -14.396  -3.367  1.00  0.00    -0.325 OA
HETATM   31  C   UNL     1      38.282 -15.429  -4.158  1.00  0.00     0.142 A 
HETATM   32  C   UNL     1      39.190 -16.459  -4.081  1.00  0.00     0.027 A 
HETATM   33  C   UNL     1      40.198 -16.029  -3.185  1.00  0.00     0.037 A 
ENDBRANCH   6  29
TORSDOF 6
ENDMDL
MODEL 3
REMARK VINA RESULT:      -8.5      3.333      8.529
REMARK  6 active torsions:
REMARK  status: ('A' for Active; 'I' for Inactive)
REMARK    1  A    between atoms: C_2  and  O_3 
REMARK    2  A    between atoms: C_2  and  C_4 
REMARK    3  A    between atoms: C_6  and  N_7 
REMARK       I    between atoms: N_7  and  C_8 
REMARK    4  A    between atoms: C_8  and  C_9 
REMARK    5  A    between atoms: C_12  and  C_13 
REMARK    6  A    between atoms: C_18  and  C_19 
ROOT
HETATM    1  C   UNL     1      41.851 -15.043   2.498  1.00  0.00     0.096 A 
HETATM    2  C   UNL     1      42.027 -15.898   3.569  1.00  0.00     0.138 A 
HETATM    3  N   UNL     1      43.057 -15.390   4.320  1.00  0.00    -0.240 N 
HETATM    4  C   UNL     1      43.635 -16.062   5.472  1.00  0.00     0.221 C 
HETATM    5  C   UNL     1      42.699 -17.180   5.980  1.00  0.00     0.068 C 
HETATM    6  C   UNL     1      42.099 -17.989   4.820  1.00  0.00     0.143 C 
HETATM    7  N   UNL     1      41.408 -17.050   3.932  1.00  0.00    -0.363 N 
HETATM    8  N   UNL     1      43.619 -14.299   3.773  1.00  0.00    -0.181 NA
HETATM    9  C   UNL     1      42.869 -14.075   2.690  1.00  0.00     0.160 A 
HETATM   10  H   UNL     1      40.794 -17.492   3.240  1.00  0.00     0.162 HD
ENDROOT
BRANCH   1  11
HETATM   11  C   UNL     1      40.871 -15.206   1.428  1.00  0.00     0.261 C 
HETATM   12  N   UNL     1      41.269 -14.687   0.208  1.00  0.00    -0.323 N 
HETATM   13  H   UNL     1      42.148 -14.191   0.183  1.00  0.00     0.169 HD
HETATM   14  O   UNL     1      39.801 -15.770   1.644  1.00  0.00    -0.267 OA
BRANCH  12  15
HETATM   15  C   UNL     1      40.577 -14.736  -1.021  1.00  0.00     0.035 A 
HETATM   16  C   UNL     1      39.486 -13.923  -1.343  1.00  0.00     0.039 A 
HETATM   17  C   UNL     1      38.834 -14.036  -2.585  1.00  0.00    -0.028 A 
HETATM   18  C   UNL     1      39.301 -14.978  -3.510  1.00  0.00     0.010 A 
HETATM   19  C   UNL     1      40.385 -15.794  -3.201  1.00  0.00     0.003 A 
HETATM   20  C   UNL     1      41.019 -15.673  -1.963  1.00  0.00     0.029 A 
BRANCH  17  21
HETATM   21  C   UNL     1      37.677 -13.116  -2.910  1.00  0.00     0.147 C 
HETATM   22  C   UNL     1      37.549 -11.998  -1.883  1.00  0.00     0.044 C 
BRANCH  21  23
HETATM   23  O   UNL     1      37.859 -12.544  -4.204  1.00  0.00    -0.391 OA
HETATM   24  H   UNL     1      37.006 -12.155  -4.462  1.00  0.00     0.210 HD
ENDBRANCH  21  23
ENDBRANCH  17  21
ENDBRANCH  12  15
ENDBRANCH   1  11
BRANCH   4  25
HETATM   25  C   UNL     1      43.923 -15.095   6.598  1.00  0.00     0.409 C 
HETATM   26  F   UNL     1      43.079 -14.038   6.600  1.00  0.00    -0.169 F 
HETATM   27  F   UNL     1      43.759 -15.722   7.795  1.00  0.00    -0.169 F 
HETATM   28  F   UNL     1      45.187 -14.623   6.596  1.00  0.00    -0.169 F 
ENDBRANCH   4  25
BRANCH   6  29
HETATM   29  C   UNL     1      43.125 -18.855   4.150  1.00  0.00     0.075 A 
HETATM   30  O   UNL     1      43.973 -19.543   4.971  1.00  0.00    -0.325 OA
HETATM   31  C   UNL     1      44.810 -20.255   4.173  1.00  0.00     0.142 A 
HETATM   32  C   UNL     1      44.513 -20.038   2.848  1.00  0.00     0.027 A 
HETATM   33  C   UNL     1      43.423 -19.136   2.832  1.00  0.00     0.037 A 
ENDBRANCH   6  29
TORSDOF 6
ENDMDL
MODEL 4
REMARK VINA RESULT:      -8.4      2.434      2.905
REMARK  6 active torsions:
REMARK  status: ('A' for Active; 'I' for Inactive)
REMARK    1  A    between atoms: C_2  and  O_3 
REMARK    2  A    between atoms: C_2  and  C_4 
REMARK    3  A    between atoms: C_6  and  N_7 
REMARK       I    between atoms: N_7  and  C_8 
REMARK    4  A    between atoms: C_8  and  C_9 
REMARK    5  A    between atoms: C_12  and  C_13 
REMARK    6  A    between atoms: C_18  and  C_19 
ROOT
HETATM    1  C   UNL     1      41.625 -14.498   0.733  1.00  0.00     0.096 A 
HETATM    2  C   UNL     1      41.665 -14.298  -0.633  1.00  0.00     0.138 A 
HETATM    3  N   UNL     1      41.549 -12.947  -0.842  1.00  0.00    -0.240 N 
HETATM    4  C   UNL     1      41.426 -12.331  -2.153  1.00  0.00     0.221 C 
HETATM    5  C   UNL     1      41.852 -13.317  -3.262  1.00  0.00     0.068 C 
HETATM    6  C   UNL     1      41.306 -14.730  -3.005  1.00  0.00     0.143 C 
HETATM    7  N   UNL     1      41.771 -15.154  -1.681  1.00  0.00    -0.363 N 
HETATM    8  N   UNL     1      41.360 -12.253   0.293  1.00  0.00    -0.181 NA
HETATM    9  C   UNL     1      41.437 -13.189   1.244  1.00  0.00     0.160 A 
HETATM   10  H   UNL     1      41.648 -16.153  -1.486  1.00  0.00     0.162 HD
ENDROOT
BRANCH   1  11
HETATM   11  C   UNL     1      41.697 -15.791   1.408  1.00  0.00     0.261 C 
HETATM   12  N   UNL     1      42.980 -16.180   1.756  1.00  0.00    -0.323 N 
HETATM   13  H   UNL     1      43.738 -15.586   1.456  1.00  0.00     0.169 HD
HETATM   14  O   UNL     1      40.675 -16.435   1.631  1.00  0.00    -0.267 OA
BRANCH  12  15
HETATM   15  C   UNL     1      43.370 -17.339   2.461  1.00  0.00     0.035 A 
HETATM   16  C   UNL     1      43.537 -17.397   3.848  1.00  0.00     0.039 A 
HETATM   17  C   UNL     1      43.942 -18.585   4.484  1.00  0.00    -0.028 A 
HETATM   18  C   UNL     1      44.170 -19.726   3.704  1.00  0.00     0.010 A 
HETATM   19  C   UNL     1      44.009 -19.679   2.322  1.00  0.00     0.003 A 
HETATM   20  C   UNL     1      43.610 -18.493   1.705  1.00  0.00     0.029 A 
BRANCH  17  21
HETATM   21  C   UNL     1      44.081 -18.618   5.990  1.00  0.00     0.147 C 
HETATM   22  C   UNL     1      43.843 -20.019   6.541  1.00  0.00     0.044 C 
BRANCH  21  23
HETATM   23  O   UNL     1      45.385 -18.182   6.369  1.00  0.00    -0.391 OA
HETATM   24  H   UNL     1      45.840 -17.913   5.553  1.00  0.00     0.210 HD
ENDBRANCH  21  23
ENDBRANCH  17  21
ENDBRANCH  12  15
ENDBRANCH   1  11
BRANCH   4  25
HETATM   25  C   UNL     1      42.250 -11.068  -2.258  1.00  0.00     0.409 C 
HETATM   26  F   UNL     1      43.413 -11.151  -1.572  1.00  0.00    -0.169 F 
HETATM   27  F   UNL     1      42.585 -10.844  -3.559  1.00  0.00    -0.169 F 
HETATM   28  F   UNL     1      41.598  -9.960  -1.847  1.00  0.00    -0.169 F 
ENDBRANCH   4  25
BRANCH   6  29
HETATM   29  C   UNL     1      39.822 -14.805  -3.209  1.00  0.00     0.075 A 
HETATM   30  O   UNL     1      39.385 -15.585  -4.241  1.00  0.00    -0.325 OA
HETATM   31  C   UNL     1      38.029 -15.515  -4.249  1.00  0.00     0.142 A 
HETATM   32  C   UNL     1      37.583 -14.701  -3.234  1.00  0.00     0.027 A 
HETATM   33  C   UNL     1      38.740 -14.244  -2.560  1.00  0.00     0.037 A 
ENDBRANCH   6  29
TORSDOF 6
ENDMDL
MODEL 5
REMARK VINA RESULT:      -8.3      2.597      3.394
REMARK  6 active torsions:
REMARK  status: ('A' for Active; 'I' for Inactive)
REMARK    1  A    between atoms: C_2  and  O_3 
REMARK    2  A    between atoms: C_2  and  C_4 
REMARK    3  A    between atoms: C_6  and  N_7 
REMARK       I    between atoms: N_7  and  C_8 
REMARK    4  A    between atoms: C_8  and  C_9 
REMARK    5  A    between atoms: C_12  and  C_13 
REMARK    6  A    between atoms: C_18  and  C_19 
ROOT
HETATM    1  C   UNL     1      41.775 -14.697   0.665  1.00  0.00     0.096 A 
HETATM    2  C   UNL     1      41.755 -14.443  -0.693  1.00  0.00     0.138 A 
HETATM    3  N   UNL     1      41.662 -13.082  -0.843  1.00  0.00    -0.240 N 
HETATM    4  C   UNL     1      41.491 -12.412  -2.122  1.00  0.00     0.221 C 
HETATM    5  C   UNL     1      41.841 -13.362  -3.287  1.00  0.00     0.068 C 
HETATM    6  C   UNL     1      41.275 -14.772  -3.060  1.00  0.00     0.143 C 
HETATM    7  N   UNL     1      41.791 -15.258  -1.778  1.00  0.00    -0.363 N 
HETATM    8  N   UNL     1      41.543 -12.431   0.326  1.00  0.00    -0.181 NA
HETATM    9  C   UNL     1      41.643 -13.405   1.235  1.00  0.00     0.160 A 
HETATM   10  H   UNL     1      41.654 -16.261  -1.616  1.00  0.00     0.162 HD
ENDROOT
BRANCH   1  11
HETATM   11  C   UNL     1      41.848 -16.017   1.285  1.00  0.00     0.261 C 
HETATM   12  N   UNL     1      43.042 -16.273   1.938  1.00  0.00    -0.323 N 
HETATM   13  H   UNL     1      43.764 -15.572   1.869  1.00  0.00     0.169 HD
HETATM   14  O   UNL     1      40.900 -16.794   1.209  1.00  0.00    -0.267 OA
BRANCH  12  15
HETATM   15  C   UNL     1      43.395 -17.424   2.675  1.00  0.00     0.035 A 
HETATM   16  C   UNL     1      43.598 -18.687   2.112  1.00  0.00     0.039 A 
HETATM   17  C   UNL     1      43.937 -19.795   2.911  1.00  0.00    -0.028 A 
HETATM   18  C   UNL     1      44.078 -19.615   4.292  1.00  0.00     0.010 A 
HETATM   19  C   UNL     1      43.876 -18.362   4.865  1.00  0.00     0.003 A 
HETATM   20  C   UNL     1      43.537 -17.273   4.060  1.00  0.00     0.029 A 
BRANCH  17  21
HETATM   21  C   UNL     1      44.180 -21.140   2.261  1.00  0.00     0.147 C 
HETATM   22  C   UNL     1      44.573 -22.193   3.290  1.00  0.00     0.044 C 
BRANCH  21  23
HETATM   23  O   UNL     1      43.004 -21.571   1.577  1.00  0.00    -0.391 OA
HETATM   24  H   UNL     1      42.821 -20.910   0.889  1.00  0.00     0.210 HD
ENDBRANCH  21  23
ENDBRANCH  17  21
ENDBRANCH  12  15
ENDBRANCH   1  11
BRANCH   4  25
HETATM   25  C   UNL     1      42.339 -11.164  -2.216  1.00  0.00     0.409 C 
HETATM   26  F   UNL     1      42.673 -10.860  -3.492  1.00  0.00    -0.169 F 
HETATM   27  F   UNL     1      41.641 -10.097  -1.737  1.00  0.00    -0.169 F 
HETATM   28  F   UNL     1      43.473 -11.223  -1.488  1.00  0.00    -0.169 F 
ENDBRANCH   4  25
BRANCH   6  29
HETATM   29  C   UNL     1      39.781 -14.805  -3.194  1.00  0.00     0.075 A 
HETATM   30  O   UNL     1      39.278 -15.517  -4.247  1.00  0.00    -0.325 OA
HETATM   31  C   UNL     1      37.925 -15.420  -4.184  1.00  0.00     0.142 A 
HETATM   32  C   UNL     1      37.547 -14.657  -3.105  1.00  0.00     0.027 A 
HETATM   33  C   UNL     1      38.744 -14.261  -2.463  1.00  0.00     0.037 A 
ENDBRANCH   6  29
TORSDOF 6
ENDMDL
MODEL 6
REMARK VINA RESULT:      -8.2      3.456      8.373
REMARK  6 active torsions:
REMARK  status: ('A' for Active; 'I' for Inactive)
REMARK    1  A    between atoms: C_2  and  O_3 
REMARK    2  A    between atoms: C_2  and  C_4 
REMARK    3  A    between atoms: C_6  and  N_7 
REMARK       I    between atoms: N_7  and  C_8 
REMARK    4  A    between atoms: C_8  and  C_9 
REMARK    5  A    between atoms: C_12  and  C_13 
REMARK    6  A    between atoms: C_18  and  C_19 
ROOT
HETATM    1  C   UNL     1      41.375 -14.460   2.908  1.00  0.00     0.096 A 
HETATM    2  C   UNL     1      41.655 -15.430   3.852  1.00  0.00     0.138 A 
HETATM    3  N   UNL     1      42.786 -15.025   4.515  1.00  0.00    -0.240 N 
HETATM    4  C   UNL     1      43.482 -15.829   5.507  1.00  0.00     0.221 C 
HETATM    5  C   UNL     1      42.581 -16.978   6.009  1.00  0.00     0.068 C 
HETATM    6  C   UNL     1      41.817 -17.645   4.855  1.00  0.00     0.143 C 
HETATM    7  N   UNL     1      41.050 -16.604   4.167  1.00  0.00    -0.363 N 
HETATM    8  N   UNL     1      43.310 -13.892   4.020  1.00  0.00    -0.181 NA
HETATM    9  C   UNL     1      42.438 -13.538   3.071  1.00  0.00     0.160 A 
HETATM   10  H   UNL     1      40.342 -16.957   3.515  1.00  0.00     0.162 HD
ENDROOT
BRANCH   1  11
HETATM   11  C   UNL     1      40.264 -14.489   1.960  1.00  0.00     0.261 C 
HETATM   12  N   UNL     1      40.503 -13.797   0.784  1.00  0.00    -0.323 N 
HETATM   13  H   UNL     1      41.371 -13.288   0.718  1.00  0.00     0.169 HD
HETATM   14  O   UNL     1      39.231 -15.096   2.229  1.00  0.00    -0.267 OA
BRANCH  12  15
HETATM   15  C   UNL     1      39.657 -13.686  -0.340  1.00  0.00     0.035 A 
HETATM   16  C   UNL     1      39.817 -14.418  -1.520  1.00  0.00     0.039 A 
HETATM   17  C   UNL     1      38.942 -14.246  -2.609  1.00  0.00    -0.028 A 
HETATM   18  C   UNL     1      37.889 -13.330  -2.492  1.00  0.00     0.010 A 
HETATM   19  C   UNL     1      37.721 -12.595  -1.322  1.00  0.00     0.003 A 
HETATM   20  C   UNL     1      38.599 -12.773  -0.252  1.00  0.00     0.029 A 
BRANCH  17  21
HETATM   21  C   UNL     1      39.128 -15.080  -3.858  1.00  0.00     0.147 C 
HETATM   22  C   UNL     1      39.717 -16.447  -3.533  1.00  0.00     0.044 C 
BRANCH  21  23
HETATM   23  O   UNL     1      37.876 -15.254  -4.518  1.00  0.00    -0.391 OA
HETATM   24  H   UNL     1      37.306 -14.518  -4.242  1.00  0.00     0.210 HD
ENDBRANCH  21  23
ENDBRANCH  17  21
ENDBRANCH  12  15
ENDBRANCH   1  11
BRANCH   4  25
HETATM   25  C   UNL     1      43.938 -14.995   6.683  1.00  0.00     0.409 C 
HETATM   26  F   UNL     1      43.842 -15.659   7.857  1.00  0.00    -0.169 F 
HETATM   27  F   UNL     1      45.251 -14.669   6.532  1.00  0.00    -0.169 F 
HETATM   28  F   UNL     1      43.277 -13.825   6.806  1.00  0.00    -0.169 F 
ENDBRANCH   4  25
BRANCH   6  29
HETATM   29  C   UNL     1      42.724 -18.452   3.973  1.00  0.00     0.075 A 
HETATM   30  O   UNL     1      42.397 -18.506   2.648  1.00  0.00    -0.325 OA
HETATM   31  C   UNL     1      43.334 -19.275   2.037  1.00  0.00     0.142 A 
HETATM   32  C   UNL     1      44.264 -19.717   2.949  1.00  0.00     0.027 A 
HETATM   33  C   UNL     1      43.872 -19.184   4.199  1.00  0.00     0.037 A 
ENDBRANCH   6  29
TORSDOF 6
ENDMDL
MODEL 7
REMARK VINA RESULT:      -8.1      2.476      4.147
REMARK  6 active torsions:
REMARK  status: ('A' for Active; 'I' for Inactive)
REMARK    1  A    between atoms: C_2  and  O_3 
REMARK    2  A    between atoms: C_2  and  C_4 
REMARK    3  A    between atoms: C_6  and  N_7 
REMARK       I    between atoms: N_7  and  C_8 
REMARK    4  A    between atoms: C_8  and  C_9 
REMARK    5  A    between atoms: C_12  and  C_13 
REMARK    6  A    between atoms: C_18  and  C_19 
ROOT
HETATM    1  C   UNL     1      40.999 -15.810   0.502  1.00  0.00     0.096 A 
HETATM    2  C   UNL     1      39.865 -15.020   0.489  1.00  0.00     0.138 A 
HETATM    3  N   UNL     1      39.953 -14.214  -0.617  1.00  0.00    -0.240 N 
HETATM    4  C   UNL     1      39.014 -13.149  -0.928  1.00  0.00     0.221 C 
HETATM    5  C   UNL     1      37.715 -13.309  -0.109  1.00  0.00     0.068 C 
HETATM    6  C   UNL     1      38.008 -13.696   1.349  1.00  0.00     0.143 C 
HETATM    7  N   UNL     1      38.805 -14.926   1.333  1.00  0.00    -0.363 N 
HETATM    8  N   UNL     1      41.105 -14.369  -1.291  1.00  0.00    -0.181 NA
HETATM    9  C   UNL     1      41.719 -15.355  -0.630  1.00  0.00     0.160 A 
HETATM   10  H   UNL     1      38.884 -15.394   2.241  1.00  0.00     0.162 HD
ENDROOT
BRANCH   1  11
HETATM   11  C   UNL     1      41.332 -16.807   1.516  1.00  0.00     0.261 C 
HETATM   12  N   UNL     1      42.644 -17.248   1.470  1.00  0.00    -0.323 N 
HETATM   13  H   UNL     1      43.219 -16.905   0.715  1.00  0.00     0.169 HD
HETATM   14  O   UNL     1      40.486 -17.182   2.323  1.00  0.00    -0.267 OA
BRANCH  12  15
HETATM   15  C   UNL     1      43.282 -18.157   2.341  1.00  0.00     0.035 A 
HETATM   16  C   UNL     1      43.642 -19.462   1.991  1.00  0.00     0.039 A 
HETATM   17  C   UNL     1      44.265 -20.319   2.917  1.00  0.00    -0.028 A 
HETATM   18  C   UNL     1      44.534 -19.842   4.206  1.00  0.00     0.010 A 
HETATM   19  C   UNL     1      44.179 -18.545   4.566  1.00  0.00     0.003 A 
HETATM   20  C   UNL     1      43.558 -17.707   3.638  1.00  0.00     0.029 A 
BRANCH  17  21
HETATM   21  C   UNL     1      44.668 -21.714   2.492  1.00  0.00     0.147 C 
HETATM   22  C   UNL     1      44.576 -22.699   3.651  1.00  0.00     0.044 C 
BRANCH  21  23
HETATM   23  O   UNL     1      43.826 -22.162   1.431  1.00  0.00    -0.391 OA
HETATM   24  H   UNL     1      44.262 -21.911   0.600  1.00  0.00     0.210 HD
ENDBRANCH  21  23
ENDBRANCH  17  21
ENDBRANCH  12  15
ENDBRANCH   1  11
BRANCH   4  25
HETATM   25  C   UNL     1      38.680 -13.110  -2.402  1.00  0.00     0.409 C 
HETATM   26  F   UNL     1      39.603 -12.435  -3.124  1.00  0.00    -0.169 F 
HETATM   27  F   UNL     1      38.652 -14.377  -2.900  1.00  0.00    -0.169 F 
HETATM   28  F   UNL     1      37.468 -12.579  -2.669  1.00  0.00    -0.169 F 
ENDBRANCH   4  25
BRANCH   6  29
HETATM   29  C   UNL     1      38.611 -12.560   2.121  1.00  0.00     0.075 A 
HETATM   30  O   UNL     1      38.000 -11.345   1.996  1.00  0.00    -0.325 OA
HETATM   31  C   UNL     1      38.695 -10.468   2.766  1.00  0.00     0.142 A 
HETATM   32  C   UNL     1      39.745 -11.102   3.389  1.00  0.00     0.027 A 
HETATM   33  C   UNL     1      39.690 -12.454   2.976  1.00  0.00     0.037 A 
ENDBRANCH   6  29
TORSDOF 6
ENDMDL
MODEL 8
REMARK VINA RESULT:      -8.0      2.264      3.753
REMARK  6 active torsions:
REMARK  status: ('A' for Active; 'I' for Inactive)
REMARK    1  A    between atoms: C_2  and  O_3 
REMARK    2  A    between atoms: C_2  and  C_4 
REMARK    3  A    between atoms: C_6  and  N_7 
REMARK       I    between atoms: N_7  and  C_8 
REMARK    4  A    between atoms: C_8  and  C_9 
REMARK    5  A    between atoms: C_12  and  C_13 
REMARK    6  A    between atoms: C_18  and  C_19 
ROOT
HETATM    1  C   UNL     1      41.200 -16.119   0.849  1.00  0.00     0.096 A 
HETATM    2  C   UNL     1      40.041 -15.369   0.778  1.00  0.00     0.138 A 
HETATM    3  N   UNL     1      40.109 -14.639  -0.382  1.00  0.00    -0.240 N 
HETATM    4  C   UNL     1      39.137 -13.629  -0.769  1.00  0.00     0.221 C 
HETATM    5  C   UNL     1      37.840 -13.775   0.055  1.00  0.00     0.068 C 
HETATM    6  C   UNL     1      38.137 -14.051   1.537  1.00  0.00     0.143 C 
HETATM    7  N   UNL     1      38.975 -15.251   1.609  1.00  0.00    -0.363 N 
HETATM    8  N   UNL     1      41.269 -14.803  -1.040  1.00  0.00    -0.181 NA
HETATM    9  C   UNL     1      41.912 -15.719  -0.310  1.00  0.00     0.160 A 
HETATM   10  H   UNL     1      39.064 -15.653   2.548  1.00  0.00     0.162 HD
ENDROOT
BRANCH   1  11
HETATM   11  C   UNL     1      41.560 -17.031   1.931  1.00  0.00     0.261 C 
HETATM   12  N   UNL     1      42.762 -17.692   1.740  1.00  0.00    -0.323 N 
HETATM   13  H   UNL     1      43.235 -17.543   0.862  1.00  0.00     0.169 HD
HETATM   14  O   UNL     1      40.828 -17.159   2.908  1.00  0.00    -0.267 OA
BRANCH  12  15
HETATM   15  C   UNL     1      43.406 -18.587   2.621  1.00  0.00     0.035 A 
HETATM   16  C   UNL     1      43.712 -18.296   3.954  1.00  0.00     0.039 A 
HETATM   17  C   UNL     1      44.368 -19.234   4.773  1.00  0.00    -0.028 A 
HETATM   18  C   UNL     1      44.707 -20.482   4.234  1.00  0.00     0.010 A 
HETATM   19  C   UNL     1      44.408 -20.782   2.908  1.00  0.00     0.003 A 
HETATM   20  C   UNL     1      43.761 -19.840   2.107  1.00  0.00     0.029 A 
BRANCH  17  21
HETATM   21  C   UNL     1      44.654 -18.895   6.220  1.00  0.00     0.147 C 
HETATM   22  C   UNL     1      44.747 -17.388   6.431  1.00  0.00     0.044 C 
BRANCH  21  23
HETATM   23  O   UNL     1      43.625 -19.422   7.056  1.00  0.00    -0.391 OA
HETATM   24  H   UNL     1      43.154 -18.661   7.436  1.00  0.00     0.210 HD
ENDBRANCH  21  23
ENDBRANCH  17  21
ENDBRANCH  12  15
ENDBRANCH   1  11
BRANCH   4  25
HETATM   25  C   UNL     1      38.810 -13.704  -2.243  1.00  0.00     0.409 C 
HETATM   26  F   UNL     1      37.591 -13.191  -2.529  1.00  0.00    -0.169 F 
HETATM   27  F   UNL     1      39.712 -12.970  -2.951  1.00  0.00    -0.169 F 
HETATM   28  F   UNL     1      38.870 -14.953  -2.748  1.00  0.00    -0.169 F 
ENDBRANCH   4  25
BRANCH   6  29
HETATM   29  C   UNL     1      38.699 -12.845   2.231  1.00  0.00     0.075 A 
HETATM   30  O   UNL     1      37.957 -11.700   2.161  1.00  0.00    -0.325 OA
HETATM   31  C   UNL     1      38.636 -10.743   2.845  1.00  0.00     0.142 A 
HETATM   32  C   UNL     1      39.805 -11.254   3.357  1.00  0.00     0.027 A 
HETATM   33  C   UNL     1      39.846 -12.613   2.964  1.00  0.00     0.037 A 
ENDBRANCH   6  29
TORSDOF 6
ENDMDL
MODEL 9
REMARK VINA RESULT:      -7.8      3.360      4.124
REMARK  6 active torsions:
REMARK  status: ('A' for Active; 'I' for Inactive)
REMARK    1  A    between atoms: C_2  and  O_3 
REMARK    2  A    between atoms: C_2  and  C_4 
REMARK    3  A    between atoms: C_6  and  N_7 
REMARK       I    between atoms: N_7  and  C_8 
REMARK    4  A    between atoms: C_8  and  C_9 
REMARK    5  A    between atoms: C_12  and  C_13 
REMARK    6  A    between atoms: C_18  and  C_19 
ROOT
HETATM    1  C   UNL     1      41.868 -15.121   4.351  1.00  0.00     0.096 A 
HETATM    2  C   UNL     1      41.404 -13.949   3.783  1.00  0.00     0.138 A 
HETATM    3  N   UNL     1      40.635 -13.324   4.732  1.00  0.00    -0.240 N 
HETATM    4  C   UNL     1      39.862 -12.116   4.489  1.00  0.00     0.221 C 
HETATM    5  C   UNL     1      40.334 -11.416   3.197  1.00  0.00     0.068 C 
HETATM    6  C   UNL     1      40.589 -12.424   2.066  1.00  0.00     0.143 C 
HETATM    7  N   UNL     1      41.566 -13.402   2.551  1.00  0.00    -0.363 N 
HETATM    8  N   UNL     1      40.502 -14.042   5.859  1.00  0.00    -0.181 NA
HETATM    9  C   UNL     1      41.273 -15.111   5.637  1.00  0.00     0.160 A 
HETATM   10  H   UNL     1      41.971 -13.998   1.821  1.00  0.00     0.162 HD
ENDROOT
BRANCH   1  11
HETATM   11  C   UNL     1      42.712 -16.112   3.690  1.00  0.00     0.261 C 
HETATM   12  N   UNL     1      42.473 -17.418   4.087  1.00  0.00    -0.323 N 
HETATM   13  H   UNL     1      41.804 -17.558   4.829  1.00  0.00     0.169 HD
HETATM   14  O   UNL     1      43.545 -15.766   2.856  1.00  0.00    -0.267 OA
BRANCH  12  15
HETATM   15  C   UNL     1      43.078 -18.595   3.598  1.00  0.00     0.035 A 
HETATM   16  C   UNL     1      43.747 -19.527   4.397  1.00  0.00     0.039 A 
HETATM   17  C   UNL     1      44.339 -20.674   3.839  1.00  0.00    -0.028 A 
HETATM   18  C   UNL     1      44.243 -20.881   2.457  1.00  0.00     0.010 A 
HETATM   19  C   UNL     1      43.581 -19.960   1.651  1.00  0.00     0.003 A 
HETATM   20  C   UNL     1      43.002 -18.824   2.219  1.00  0.00     0.029 A 
BRANCH  17  21
HETATM   21  C   UNL     1      45.027 -21.676   4.741  1.00  0.00     0.147 C 
HETATM   22  C   UNL     1      44.435 -21.661   6.145  1.00  0.00     0.044 C 
BRANCH  21  23
HETATM   23  O   UNL     1      44.903 -22.989   4.195  1.00  0.00    -0.391 OA
HETATM   24  H   UNL     1      45.017 -23.612   4.932  1.00  0.00     0.210 HD
ENDBRANCH  21  23
ENDBRANCH  17  21
ENDBRANCH  12  15
ENDBRANCH   1  11
BRANCH   4  25
HETATM   25  C   UNL     1      39.956 -11.151   5.649  1.00  0.00     0.409 C 
HETATM   26  F   UNL     1      41.223 -10.999   6.096  1.00  0.00    -0.169 F 
HETATM   27  F   UNL     1      39.537  -9.917   5.254  1.00  0.00    -0.169 F 
HETATM   28  F   UNL     1      39.178 -11.489   6.699  1.00  0.00    -0.169 F 
ENDBRANCH   4  25
BRANCH   6  29
HETATM   29  C   UNL     1      39.312 -13.011   1.539  1.00  0.00     0.075 A 
HETATM   30  O   UNL     1      38.346 -12.126   1.155  1.00  0.00    -0.325 OA
HETATM   31  C   UNL     1      37.288 -12.856   0.716  1.00  0.00     0.142 A 
HETATM   32  C   UNL     1      37.559 -14.201   0.810  1.00  0.00     0.027 A 
HETATM   33  C   UNL     1      38.867 -14.303   1.339  1.00  0.00     0.037 A 
ENDBRANCH   6  29
TORSDOF 6
ENDMDL
MODEL 10
REMARK VINA RESULT:      -7.7      1.815      2.206
REMARK  6 active torsions:
REMARK  status: ('A' for Active; 'I' for Inactive)
REMARK    1  A    between atoms: C_2  and  O_3 
REMARK    2  A    between atoms: C_2  and  C_4 
REMARK    3  A    between atoms: C_6  and  N_7 
REMARK       I    between atoms: N_7  and  C_8 
REMARK    4  A    between atoms: C_8  and  C_9 
REMARK    5  A    between atoms: C_12  and  C_13 
REMARK    6  A    between atoms: C_18  and  C_19 
ROOT
HETATM    1  C   UNL     1      40.820 -15.104   1.968  1.00  0.00     0.096 A 
HETATM    2  C   UNL     1      40.846 -13.801   1.509  1.00  0.00     0.138 A 
HETATM    3  N   UNL     1      39.547 -13.445   1.246  1.00  0.00    -0.240 N 
HETATM    4  C   UNL     1      39.154 -12.189   0.629  1.00  0.00     0.221 C 
HETATM    5  C   UNL     1      40.308 -11.165   0.691  1.00  0.00     0.068 C 
HETATM    6  C   UNL     1      41.661 -11.813   0.358  1.00  0.00     0.143 C 
HETATM    7  N   UNL     1      41.862 -12.929   1.287  1.00  0.00    -0.363 N 
HETATM    8  N   UNL     1      38.678 -14.453   1.431  1.00  0.00    -0.181 NA
HETATM    9  C   UNL     1      39.446 -15.442   1.896  1.00  0.00     0.160 A 
HETATM   10  H   UNL     1      42.816 -13.304   1.301  1.00  0.00     0.162 HD
ENDROOT
BRANCH   1  11
HETATM   11  C   UNL     1      41.986 -15.896   2.352  1.00  0.00     0.261 C 
HETATM   12  N   UNL     1      41.707 -17.228   2.611  1.00  0.00    -0.323 N 
HETATM   13  H   UNL     1      40.739 -17.510   2.582  1.00  0.00     0.169 HD
HETATM   14  O   UNL     1      43.097 -15.378   2.418  1.00  0.00    -0.267 OA
BRANCH  12  15
HETATM   15  C   UNL     1      42.618 -18.252   2.946  1.00  0.00     0.035 A 
HETATM   16  C   UNL     1      43.219 -18.392   4.201  1.00  0.00     0.039 A 
HETATM   17  C   UNL     1      44.130 -19.432   4.461  1.00  0.00    -0.028 A 
HETATM   18  C   UNL     1      44.426 -20.344   3.440  1.00  0.00     0.010 A 
HETATM   19  C   UNL     1      43.835 -20.214   2.187  1.00  0.00     0.003 A 
HETATM   20  C   UNL     1      42.936 -19.175   1.942  1.00  0.00     0.029 A 
BRANCH  17  21
HETATM   21  C   UNL     1      44.735 -19.569   5.842  1.00  0.00     0.147 C 
HETATM   22  C   UNL     1      45.116 -18.212   6.421  1.00  0.00     0.044 C 
BRANCH  21  23
HETATM   23  O   UNL     1      43.809 -20.208   6.719  1.00  0.00    -0.391 OA
HETATM   24  H   UNL     1      43.983 -19.866   7.611  1.00  0.00     0.210 HD
ENDBRANCH  21  23
ENDBRANCH  17  21
ENDBRANCH  12  15
ENDBRANCH   1  11
BRANCH   4  25
HETATM   25  C   UNL     1      37.924 -11.604   1.285  1.00  0.00     0.409 C 
HETATM   26  F   UNL     1      37.743 -10.300   0.975  1.00  0.00    -0.169 F 
HETATM   27  F   UNL     1      36.815 -12.261   0.847  1.00  0.00    -0.169 F 
HETATM   28  F   UNL     1      37.920 -11.722   2.629  1.00  0.00    -0.169 F 
ENDBRANCH   4  25
BRANCH   6  29
HETATM   29  C   UNL     1      41.769 -12.171  -1.094  1.00  0.00     0.075 A 
HETATM   30  O   UNL     1      41.901 -13.499  -1.388  1.00  0.00    -0.325 OA
HETATM   31  C   UNL     1      41.981 -13.603  -2.739  1.00  0.00     0.142 A 
HETATM   32  C   UNL     1      41.900 -12.361  -3.323  1.00  0.00     0.027 A 
HETATM   33  C   UNL     1      41.760 -11.435  -2.262  1.00  0.00     0.037 A 
ENDBRANCH   6  29
TORSDOF 6
ENDMDL
