MODEL 1
REMARK VINA RESULT:      -8.1      0.000      0.000
REMARK  6 active torsions:
REMARK  status: ('A' for Active; 'I' for Inactive)
REMARK    1  A    between atoms: N_2  and  C_5 
REMARK    2  A    between atoms: C_5  and  C_6 
REMARK    3  A    between atoms: C_6  and  N_7 
REMARK    4  A    between atoms: C_6  and  C_23 
REMARK       I    between atoms: N_7  and  C_8 
REMARK    5  A    between atoms: C_8  and  C_10 
REMARK    6  A    between atoms: C_13  and  C_17 
ROOT
HETATM    1  N   UNL     1      43.318 -17.802   3.917  1.00  0.00    -0.347 N 
HETATM    2  C   UNL     1      42.037 -17.362   3.667  1.00  0.00     0.252 C 
HETATM    3  O   UNL     1      41.140 -17.486   4.497  1.00  0.00    -0.268 OA
HETATM    4  H   UNL     1      43.925 -17.906   3.110  1.00  0.00     0.163 HD
ENDROOT
BRANCH   2   5
HETATM    5  C   UNL     1      41.778 -16.730   2.348  1.00  0.00     0.032 A 
HETATM    6  C   UNL     1      42.612 -17.061   1.279  1.00  0.00     0.018 A 
HETATM    7  C   UNL     1      42.381 -16.515   0.016  1.00  0.00     0.014 A 
HETATM    8  C   UNL     1      41.309 -15.634  -0.203  1.00  0.00    -0.017 A 
HETATM    9  C   UNL     1      40.465 -15.288   0.873  1.00  0.00    -0.050 A 
HETATM   10  C   UNL     1      39.293 -14.355   0.711  1.00  0.00     0.049 C 
HETATM   11  C   UNL     1      40.703 -15.855   2.142  1.00  0.00     0.024 A 
BRANCH   8  12
HETATM   12  C   UNL     1      41.093 -15.134  -1.547  1.00  0.00     0.011 A 
HETATM   13  C   UNL     1      40.520 -15.743  -2.685  1.00  0.00     0.152 A 
HETATM   14  N   UNL     1      40.516 -14.938  -3.750  1.00  0.00    -0.187 NA
HETATM   15  N   UNL     1      41.099 -13.815  -3.302  1.00  0.00    -0.289 N 
HETATM   16  H   UNL     1      41.214 -13.042  -3.949  1.00  0.00     0.188 HD
HETATM   17  C   UNL     1      41.469 -13.883  -1.988  1.00  0.00     0.123 A 
ENDBRANCH   8  12
ENDBRANCH   2   5
BRANCH   1  18
HETATM   18  C   UNL     1      43.662 -18.627   5.081  1.00  0.00     0.143 C 
BRANCH  18  19
HETATM   19  C   UNL     1      44.786 -18.031   5.993  1.00  0.00     0.263 C 
BRANCH  19  20
HETATM   20  N   UNL     1      44.259 -17.136   7.104  1.00  0.00    -0.076 N 
HETATM   21  C   UNL     1      44.272 -15.677   6.768  1.00  0.00     0.269 C 
HETATM   22  H   UNL     1      44.926 -17.244   7.899  1.00  0.00     0.279 HD
HETATM   23  C   UNL     1      42.929 -17.584   7.624  1.00  0.00     0.269 C 
ENDBRANCH  19  20
ENDBRANCH  18  19
BRANCH  18  24
HETATM   24  C   UNL     1      44.088 -20.007   4.608  1.00  0.00    -0.034 A 
HETATM   25  C   UNL     1      44.109 -20.303   3.236  1.00  0.00     0.009 A 
HETATM   26  C   UNL     1      44.479 -21.573   2.791  1.00  0.00     0.001 A 
HETATM   27  C   UNL     1      44.836 -22.559   3.708  1.00  0.00     0.000 A 
HETATM   28  C   UNL     1      44.826 -22.278   5.072  1.00  0.00     0.001 A 
HETATM   29  C   UNL     1      44.456 -21.010   5.521  1.00  0.00     0.009 A 
ENDBRANCH  18  24
ENDBRANCH   1  18
TORSDOF 6
ENDMDL
MODEL 2
REMARK VINA RESULT:      -8.0      1.522      2.076
REMARK  6 active torsions:
REMARK  status: ('A' for Active; 'I' for Inactive)
REMARK    1  A    between atoms: N_2  and  C_5 
REMARK    2  A    between atoms: C_5  and  C_6 
REMARK    3  A    between atoms: C_6  and  N_7 
REMARK    4  A    between atoms: C_6  and  C_23 
REMARK       I    between atoms: N_7  and  C_8 
REMARK    5  A    between atoms: C_8  and  C_10 
REMARK    6  A    between atoms: C_13  and  C_17 
ROOT
HETATM    1  N   UNL     1      42.315 -16.897   3.124  1.00  0.00    -0.347 N 
HETATM    2  C   UNL     1      41.249 -16.036   3.258  1.00  0.00     0.252 C 
HETATM    3  O   UNL     1      40.738 -15.809   4.352  1.00  0.00    -0.268 OA
HETATM    4  H   UNL     1      42.510 -17.233   2.185  1.00  0.00     0.163 HD
ENDROOT
BRANCH   2   5
HETATM    5  C   UNL     1      40.734 -15.389   2.023  1.00  0.00     0.032 A 
HETATM    6  C   UNL     1      41.596 -15.264   0.933  1.00  0.00     0.018 A 
HETATM    7  C   UNL     1      41.141 -14.693  -0.256  1.00  0.00     0.014 A 
HETATM    8  C   UNL     1      39.816 -14.244  -0.378  1.00  0.00    -0.017 A 
HETATM    9  C   UNL     1      38.940 -14.359   0.721  1.00  0.00    -0.050 A 
HETATM   10  C   UNL     1      37.504 -13.904   0.661  1.00  0.00     0.049 C 
HETATM   11  C   UNL     1      39.409 -14.947   1.914  1.00  0.00     0.024 A 
BRANCH   8  12
HETATM   12  C   UNL     1      39.389 -13.700  -1.653  1.00  0.00     0.011 A 
HETATM   13  C   UNL     1      39.302 -12.367  -2.114  1.00  0.00     0.152 A 
HETATM   14  N   UNL     1      38.843 -12.286  -3.364  1.00  0.00    -0.187 NA
HETATM   15  N   UNL     1      38.622 -13.565  -3.706  1.00  0.00    -0.289 N 
HETATM   16  H   UNL     1      38.258 -13.760  -4.633  1.00  0.00     0.188 HD
HETATM   17  C   UNL     1      38.927 -14.453  -2.713  1.00  0.00     0.123 A 
ENDBRANCH   8  12
ENDBRANCH   2   5
BRANCH   1  18
HETATM   18  C   UNL     1      42.785 -17.758   4.216  1.00  0.00     0.143 C 
BRANCH  18  19
HETATM   19  C   UNL     1      43.815 -17.083   5.182  1.00  0.00     0.263 C 
BRANCH  19  20
HETATM   20  N   UNL     1      43.169 -16.344   6.344  1.00  0.00    -0.076 N 
HETATM   21  C   UNL     1      42.518 -17.241   7.350  1.00  0.00     0.269 C 
HETATM   22  H   UNL     1      42.394 -15.781   5.930  1.00  0.00     0.279 HD
HETATM   23  C   UNL     1      44.093 -15.356   6.984  1.00  0.00     0.269 C 
ENDBRANCH  19  20
ENDBRANCH  18  19
BRANCH  18  24
HETATM   24  C   UNL     1      43.405 -19.015   3.631  1.00  0.00    -0.034 A 
HETATM   25  C   UNL     1      43.074 -19.420   2.328  1.00  0.00     0.009 A 
HETATM   26  C   UNL     1      43.622 -20.584   1.787  1.00  0.00     0.001 A 
HETATM   27  C   UNL     1      44.508 -21.354   2.537  1.00  0.00     0.000 A 
HETATM   28  C   UNL     1      44.851 -20.962   3.828  1.00  0.00     0.001 A 
HETATM   29  C   UNL     1      44.305 -19.799   4.373  1.00  0.00     0.009 A 
ENDBRANCH  18  24
ENDBRANCH   1  18
TORSDOF 6
ENDMDL
MODEL 3
REMARK VINA RESULT:      -7.7      1.622      2.478
REMARK  6 active torsions:
REMARK  status: ('A' for Active; 'I' for Inactive)
REMARK    1  A    between atoms: N_2  and  C_5 
REMARK    2  A    between atoms: C_5  and  C_6 
REMARK    3  A    between atoms: C_6  and  N_7 
REMARK    4  A    between atoms: C_6  and  C_23 
REMARK       I    between atoms: N_7  and  C_8 
REMARK    5  A    between atoms: C_8  and  C_10 
REMARK    6  A    between atoms: C_13  and  C_17 
ROOT
HETATM    1  N   UNL     1      42.574 -16.305   2.973  1.00  0.00    -0.347 N 
HETATM    2  C   UNL     1      41.405 -15.687   2.590  1.00  0.00     0.252 C 
HETATM    3  O   UNL     1      40.400 -15.715   3.296  1.00  0.00    -0.268 OA
HETATM    4  H   UNL     1      43.261 -16.464   2.242  1.00  0.00     0.163 HD
ENDROOT
BRANCH   2   5
HETATM    5  C   UNL     1      41.401 -14.982   1.282  1.00  0.00     0.032 A 
HETATM    6  C   UNL     1      41.719 -13.623   1.262  1.00  0.00     0.018 A 
HETATM    7  C   UNL     1      41.760 -12.932   0.050  1.00  0.00     0.014 A 
HETATM    8  C   UNL     1      41.491 -13.588  -1.163  1.00  0.00    -0.017 A 
HETATM    9  C   UNL     1      41.162 -14.960  -1.151  1.00  0.00    -0.050 A 
HETATM   10  C   UNL     1      40.867 -15.730  -2.413  1.00  0.00     0.049 C 
HETATM   11  C   UNL     1      41.134 -15.649   0.079  1.00  0.00     0.024 A 
BRANCH   8  12
HETATM   12  C   UNL     1      41.592 -12.828  -2.394  1.00  0.00     0.011 A 
HETATM   13  C   UNL     1      40.609 -12.161  -3.158  1.00  0.00     0.152 A 
HETATM   14  N   UNL     1      41.115 -11.580  -4.248  1.00  0.00    -0.187 NA
HETATM   15  N   UNL     1      42.422 -11.883  -4.193  1.00  0.00    -0.289 N 
HETATM   16  H   UNL     1      43.026 -11.546  -4.935  1.00  0.00     0.188 HD
HETATM   17  C   UNL     1      42.759 -12.635  -3.103  1.00  0.00     0.123 A 
ENDBRANCH   8  12
ENDBRANCH   2   5
BRANCH   1  18
HETATM   18  C   UNL     1      42.655 -17.207   4.128  1.00  0.00     0.143 C 
BRANCH  18  19
HETATM   19  C   UNL     1      43.409 -16.615   5.365  1.00  0.00     0.263 C 
BRANCH  19  20
HETATM   20  N   UNL     1      42.541 -16.492   6.608  1.00  0.00    -0.076 N 
HETATM   21  C   UNL     1      41.110 -16.877   6.392  1.00  0.00     0.269 C 
HETATM   22  H   UNL     1      42.523 -15.476   6.846  1.00  0.00     0.279 HD
HETATM   23  C   UNL     1      43.136 -17.179   7.797  1.00  0.00     0.269 C 
ENDBRANCH  19  20
ENDBRANCH  18  19
BRANCH  18  24
HETATM   24  C   UNL     1      43.334 -18.499   3.707  1.00  0.00    -0.034 A 
HETATM   25  C   UNL     1      43.051 -19.063   2.453  1.00  0.00     0.009 A 
HETATM   26  C   UNL     1      43.653 -20.261   2.063  1.00  0.00     0.001 A 
HETATM   27  C   UNL     1      44.545 -20.907   2.917  1.00  0.00     0.000 A 
HETATM   28  C   UNL     1      44.839 -20.355   4.162  1.00  0.00     0.001 A 
HETATM   29  C   UNL     1      44.239 -19.158   4.555  1.00  0.00     0.009 A 
ENDBRANCH  18  24
ENDBRANCH   1  18
TORSDOF 6
ENDMDL
MODEL 4
REMARK VINA RESULT:      -7.7      1.040      1.462
REMARK  6 active torsions:
REMARK  status: ('A' for Active; 'I' for Inactive)
REMARK    1  A    between atoms: N_2  and  C_5 
REMARK    2  A    between atoms: C_5  and  C_6 
REMARK    3  A    between atoms: C_6  and  N_7 
REMARK    4  A    between atoms: C_6  and  C_23 
REMARK       I    between atoms: N_7  and  C_8 
REMARK    5  A    between atoms: C_8  and  C_10 
REMARK    6  A    between atoms: C_13  and  C_17 
ROOT
HETATM    1  N   UNL     1      43.430 -17.536   3.571  1.00  0.00    -0.347 N 
HETATM    2  C   UNL     1      42.303 -16.748   3.503  1.00  0.00     0.252 C 
HETATM    3  O   UNL     1      41.544 -16.623   4.461  1.00  0.00    -0.268 OA
HETATM    4  H   UNL     1      43.853 -17.798   2.686  1.00  0.00     0.163 HD
ENDROOT
BRANCH   2   5
HETATM    5  C   UNL     1      42.035 -16.050   2.218  1.00  0.00     0.032 A 
HETATM    6  C   UNL     1      41.705 -16.822   1.103  1.00  0.00     0.018 A 
HETATM    7  C   UNL     1      41.412 -16.203  -0.113  1.00  0.00     0.014 A 
HETATM    8  C   UNL     1      41.437 -14.804  -0.234  1.00  0.00    -0.017 A 
HETATM    9  C   UNL     1      41.777 -14.017   0.887  1.00  0.00    -0.050 A 
HETATM   10  C   UNL     1      41.818 -12.511   0.833  1.00  0.00     0.049 C 
HETATM   11  C   UNL     1      42.060 -14.654   2.112  1.00  0.00     0.024 A 
BRANCH   8  12
HETATM   12  C   UNL     1      41.081 -14.217  -1.511  1.00  0.00     0.011 A 
HETATM   13  C   UNL     1      39.823 -13.898  -2.070  1.00  0.00     0.152 A 
HETATM   14  N   UNL     1      39.923 -13.374  -3.293  1.00  0.00    -0.187 NA
HETATM   15  N   UNL     1      41.245 -13.367  -3.529  1.00  0.00    -0.289 N 
HETATM   16  H   UNL     1      41.573 -13.008  -4.419  1.00  0.00     0.188 HD
HETATM   17  C   UNL     1      41.984 -13.867  -2.493  1.00  0.00     0.123 A 
ENDBRANCH   8  12
ENDBRANCH   2   5
BRANCH   1  18
HETATM   18  C   UNL     1      43.701 -18.440   4.695  1.00  0.00     0.143 C 
BRANCH  18  19
HETATM   19  C   UNL     1      44.849 -17.969   5.649  1.00  0.00     0.263 C 
BRANCH  19  20
HETATM   20  N   UNL     1      44.353 -17.256   6.897  1.00  0.00    -0.076 N 
HETATM   21  C   UNL     1      44.242 -15.771   6.746  1.00  0.00     0.269 C 
HETATM   22  H   UNL     1      45.086 -17.408   7.624  1.00  0.00     0.279 HD
HETATM   23  C   UNL     1      43.100 -17.862   7.448  1.00  0.00     0.269 C 
ENDBRANCH  19  20
ENDBRANCH  18  19
BRANCH  18  24
HETATM   24  C   UNL     1      44.039 -19.820   4.157  1.00  0.00    -0.034 A 
HETATM   25  C   UNL     1      44.519 -20.813   5.025  1.00  0.00     0.009 A 
HETATM   26  C   UNL     1      44.852 -22.079   4.539  1.00  0.00     0.001 A 
HETATM   27  C   UNL     1      44.706 -22.368   3.184  1.00  0.00     0.000 A 
HETATM   28  C   UNL     1      44.225 -21.395   2.312  1.00  0.00     0.001 A 
HETATM   29  C   UNL     1      43.891 -20.128   2.794  1.00  0.00     0.009 A 
ENDBRANCH  18  24
ENDBRANCH   1  18
TORSDOF 6
ENDMDL
MODEL 5
REMARK VINA RESULT:      -7.7      2.584      7.968
REMARK  6 active torsions:
REMARK  status: ('A' for Active; 'I' for Inactive)
REMARK    1  A    between atoms: N_2  and  C_5 
REMARK    2  A    between atoms: C_5  and  C_6 
REMARK    3  A    between atoms: C_6  and  N_7 
REMARK    4  A    between atoms: C_6  and  C_23 
REMARK       I    between atoms: N_7  and  C_8 
REMARK    5  A    between atoms: C_8  and  C_10 
REMARK    6  A    between atoms: C_13  and  C_17 
ROOT
HETATM    1  N   UNL     1      42.166 -15.130   1.463  1.00  0.00    -0.347 N 
HETATM    2  C   UNL     1      43.143 -15.326   2.413  1.00  0.00     0.252 C 
HETATM    3  O   UNL     1      43.766 -14.387   2.901  1.00  0.00    -0.268 OA
HETATM    4  H   UNL     1      41.887 -15.946   0.927  1.00  0.00     0.163 HD
ENDROOT
BRANCH   2   5
HETATM    5  C   UNL     1      43.420 -16.726   2.830  1.00  0.00     0.032 A 
HETATM    6  C   UNL     1      43.914 -17.615   1.873  1.00  0.00     0.018 A 
HETATM    7  C   UNL     1      44.219 -18.928   2.232  1.00  0.00     0.014 A 
HETATM    8  C   UNL     1      44.043 -19.374   3.552  1.00  0.00    -0.017 A 
HETATM    9  C   UNL     1      43.538 -18.484   4.523  1.00  0.00    -0.050 A 
HETATM   10  C   UNL     1      43.329 -18.891   5.959  1.00  0.00     0.049 C 
HETATM   11  C   UNL     1      43.243 -17.157   4.151  1.00  0.00     0.024 A 
BRANCH   8  12
HETATM   12  C   UNL     1      44.420 -20.737   3.874  1.00  0.00     0.011 A 
HETATM   13  C   UNL     1      44.945 -21.302   5.058  1.00  0.00     0.152 A 
HETATM   14  N   UNL     1      45.171 -22.613   4.943  1.00  0.00    -0.187 NA
HETATM   15  N   UNL     1      44.803 -22.890   3.682  1.00  0.00    -0.289 N 
HETATM   16  H   UNL     1      44.891 -23.847   3.355  1.00  0.00     0.188 HD
HETATM   17  C   UNL     1      44.351 -21.798   2.996  1.00  0.00     0.123 A 
ENDBRANCH   8  12
ENDBRANCH   2   5
BRANCH   1  18
HETATM   18  C   UNL     1      41.938 -13.834   0.813  1.00  0.00     0.143 C 
BRANCH  18  19
HETATM   19  C   UNL     1      40.749 -13.007   1.406  1.00  0.00     0.263 C 
BRANCH  19  20
HETATM   20  N   UNL     1      39.835 -13.816   2.314  1.00  0.00    -0.076 N 
HETATM   21  C   UNL     1      39.532 -13.151   3.621  1.00  0.00     0.269 C 
HETATM   22  H   UNL     1      40.366 -14.681   2.558  1.00  0.00     0.279 HD
HETATM   23  C   UNL     1      38.595 -14.281   1.617  1.00  0.00     0.269 C 
ENDBRANCH  19  20
ENDBRANCH  18  19
BRANCH  18  24
HETATM   24  C   UNL     1      41.696 -14.055  -0.670  1.00  0.00    -0.034 A 
HETATM   25  C   UNL     1      41.058 -15.226  -1.111  1.00  0.00     0.009 A 
HETATM   26  C   UNL     1      40.849 -15.448  -2.473  1.00  0.00     0.001 A 
HETATM   27  C   UNL     1      41.270 -14.507  -3.409  1.00  0.00     0.000 A 
HETATM   28  C   UNL     1      41.899 -13.338  -2.986  1.00  0.00     0.001 A 
HETATM   29  C   UNL     1      42.110 -13.111  -1.626  1.00  0.00     0.009 A 
ENDBRANCH  18  24
ENDBRANCH   1  18
TORSDOF 6
ENDMDL
MODEL 6
REMARK VINA RESULT:      -7.5      1.460      2.113
REMARK  6 active torsions:
REMARK  status: ('A' for Active; 'I' for Inactive)
REMARK    1  A    between atoms: N_2  and  C_5 
REMARK    2  A    between atoms: C_5  and  C_6 
REMARK    3  A    between atoms: C_6  and  N_7 
REMARK    4  A    between atoms: C_6  and  C_23 
REMARK       I    between atoms: N_7  and  C_8 
REMARK    5  A    between atoms: C_8  and  C_10 
REMARK    6  A    between atoms: C_13  and  C_17 
ROOT
HETATM    1  N   UNL     1      42.921 -17.669   3.807  1.00  0.00    -0.347 N 
HETATM    2  C   UNL     1      41.706 -17.081   4.079  1.00  0.00     0.252 C 
HETATM    3  O   UNL     1      41.141 -17.238   5.158  1.00  0.00    -0.268 OA
HETATM    4  H   UNL     1      43.194 -17.712   2.830  1.00  0.00     0.163 HD
ENDROOT
BRANCH   2   5
HETATM    5  C   UNL     1      41.098 -16.244   3.012  1.00  0.00     0.032 A 
HETATM    6  C   UNL     1      40.217 -15.229   3.388  1.00  0.00     0.018 A 
HETATM    7  C   UNL     1      39.651 -14.400   2.419  1.00  0.00     0.014 A 
HETATM    8  C   UNL     1      39.960 -14.567   1.059  1.00  0.00    -0.017 A 
HETATM    9  C   UNL     1      40.843 -15.595   0.669  1.00  0.00    -0.050 A 
HETATM   10  C   UNL     1      41.224 -15.829  -0.771  1.00  0.00     0.049 C 
HETATM   11  C   UNL     1      41.416 -16.419   1.659  1.00  0.00     0.024 A 
BRANCH   8  12
HETATM   12  C   UNL     1      39.375 -13.646   0.102  1.00  0.00     0.011 A 
HETATM   13  C   UNL     1      38.197 -13.735  -0.674  1.00  0.00     0.152 A 
HETATM   14  N   UNL     1      38.014 -12.666  -1.451  1.00  0.00    -0.187 NA
HETATM   15  N   UNL     1      39.080 -11.893  -1.186  1.00  0.00    -0.289 N 
HETATM   16  H   UNL     1      39.165 -11.007  -1.673  1.00  0.00     0.188 HD
HETATM   17  C   UNL     1      39.930 -12.438  -0.265  1.00  0.00     0.123 A 
ENDBRANCH   8  12
ENDBRANCH   2   5
BRANCH   1  18
HETATM   18  C   UNL     1      43.528 -18.679   4.681  1.00  0.00     0.143 C 
BRANCH  18  19
HETATM   19  C   UNL     1      44.807 -18.198   5.444  1.00  0.00     0.263 C 
BRANCH  19  20
HETATM   20  N   UNL     1      44.520 -17.648   6.832  1.00  0.00    -0.076 N 
HETATM   21  C   UNL     1      44.199 -16.185   6.852  1.00  0.00     0.269 C 
HETATM   22  H   UNL     1      45.409 -17.745   7.369  1.00  0.00     0.279 HD
HETATM   23  C   UNL     1      43.504 -18.458   7.574  1.00  0.00     0.269 C 
ENDBRANCH  19  20
ENDBRANCH  18  19
BRANCH  18  24
HETATM   24  C   UNL     1      43.876 -19.908   3.858  1.00  0.00    -0.034 A 
HETATM   25  C   UNL     1      43.563 -19.948   2.490  1.00  0.00     0.009 A 
HETATM   26  C   UNL     1      43.859 -21.079   1.728  1.00  0.00     0.001 A 
HETATM   27  C   UNL     1      44.472 -22.181   2.320  1.00  0.00     0.000 A 
HETATM   28  C   UNL     1      44.794 -22.154   3.675  1.00  0.00     0.001 A 
HETATM   29  C   UNL     1      44.500 -21.024   4.440  1.00  0.00     0.009 A 
ENDBRANCH  18  24
ENDBRANCH   1  18
TORSDOF 6
ENDMDL
MODEL 7
REMARK VINA RESULT:      -7.4      3.614      7.607
REMARK  6 active torsions:
REMARK  status: ('A' for Active; 'I' for Inactive)
REMARK    1  A    between atoms: N_2  and  C_5 
REMARK    2  A    between atoms: C_5  and  C_6 
REMARK    3  A    between atoms: C_6  and  N_7 
REMARK    4  A    between atoms: C_6  and  C_23 
REMARK       I    between atoms: N_7  and  C_8 
REMARK    5  A    between atoms: C_8  and  C_10 
REMARK    6  A    between atoms: C_13  and  C_17 
ROOT
HETATM    1  N   UNL     1      40.963 -14.474   4.577  1.00  0.00    -0.347 N 
HETATM    2  C   UNL     1      42.175 -14.967   5.006  1.00  0.00     0.252 C 
HETATM    3  O   UNL     1      42.850 -14.379   5.846  1.00  0.00    -0.268 OA
HETATM    4  H   UNL     1      40.597 -14.862   3.713  1.00  0.00     0.163 HD
ENDROOT
BRANCH   2   5
HETATM    5  C   UNL     1      42.641 -16.246   4.409  1.00  0.00     0.032 A 
HETATM    6  C   UNL     1      42.606 -17.397   5.199  1.00  0.00     0.018 A 
HETATM    7  C   UNL     1      43.003 -18.623   4.665  1.00  0.00     0.014 A 
HETATM    8  C   UNL     1      43.435 -18.723   3.332  1.00  0.00    -0.017 A 
HETATM    9  C   UNL     1      43.481 -17.564   2.530  1.00  0.00    -0.050 A 
HETATM   10  C   UNL     1      43.928 -17.597   1.090  1.00  0.00     0.049 C 
HETATM   11  C   UNL     1      43.067 -16.333   3.077  1.00  0.00     0.024 A 
BRANCH   8  12
HETATM   12  C   UNL     1      43.793 -20.033   2.821  1.00  0.00     0.011 A 
HETATM   13  C   UNL     1      43.188 -20.843   1.835  1.00  0.00     0.152 A 
HETATM   14  N   UNL     1      43.827 -22.002   1.662  1.00  0.00    -0.187 NA
HETATM   15  N   UNL     1      44.837 -21.944   2.544  1.00  0.00    -0.289 N 
HETATM   16  H   UNL     1      45.473 -22.732   2.601  1.00  0.00     0.188 HD
HETATM   17  C   UNL     1      44.858 -20.785   3.269  1.00  0.00     0.123 A 
ENDBRANCH   8  12
ENDBRANCH   2   5
BRANCH   1  18
HETATM   18  C   UNL     1      40.485 -13.129   4.922  1.00  0.00     0.143 C 
BRANCH  18  19
HETATM   19  C   UNL     1      39.704 -13.042   6.275  1.00  0.00     0.263 C 
BRANCH  19  20
HETATM   20  N   UNL     1      40.371 -12.146   7.308  1.00  0.00    -0.076 N 
HETATM   21  C   UNL     1      41.499 -11.325   6.765  1.00  0.00     0.269 C 
HETATM   22  H   UNL     1      40.805 -12.789   8.006  1.00  0.00     0.279 HD
HETATM   23  C   UNL     1      39.387 -11.317   8.073  1.00  0.00     0.269 C 
ENDBRANCH  19  20
ENDBRANCH  18  19
BRANCH  18  24
HETATM   24  C   UNL     1      39.597 -12.612   3.803  1.00  0.00    -0.034 A 
HETATM   25  C   UNL     1      39.460 -13.351   2.618  1.00  0.00     0.009 A 
HETATM   26  C   UNL     1      38.663 -12.876   1.575  1.00  0.00     0.001 A 
HETATM   27  C   UNL     1      37.992 -11.662   1.704  1.00  0.00     0.000 A 
HETATM   28  C   UNL     1      38.114 -10.921   2.877  1.00  0.00     0.001 A 
HETATM   29  C   UNL     1      38.910 -11.392   3.921  1.00  0.00     0.009 A 
ENDBRANCH  18  24
ENDBRANCH   1  18
TORSDOF 6
ENDMDL
MODEL 8
REMARK VINA RESULT:      -7.1      2.129      2.928
REMARK  6 active torsions:
REMARK  status: ('A' for Active; 'I' for Inactive)
REMARK    1  A    between atoms: N_2  and  C_5 
REMARK    2  A    between atoms: C_5  and  C_6 
REMARK    3  A    between atoms: C_6  and  N_7 
REMARK    4  A    between atoms: C_6  and  C_23 
REMARK       I    between atoms: N_7  and  C_8 
REMARK    5  A    between atoms: C_8  and  C_10 
REMARK    6  A    between atoms: C_13  and  C_17 
ROOT
HETATM    1  N   UNL     1      41.335 -17.020   2.556  1.00  0.00    -0.347 N 
HETATM    2  C   UNL     1      41.885 -15.963   1.866  1.00  0.00     0.252 C 
HETATM    3  O   UNL     1      42.974 -15.487   2.176  1.00  0.00    -0.268 OA
HETATM    4  H   UNL     1      40.342 -17.183   2.417  1.00  0.00     0.163 HD
ENDROOT
BRANCH   2   5
HETATM    5  C   UNL     1      41.106 -15.412   0.727  1.00  0.00     0.032 A 
HETATM    6  C   UNL     1      40.087 -14.499   1.002  1.00  0.00     0.018 A 
HETATM    7  C   UNL     1      39.355 -13.933  -0.043  1.00  0.00     0.014 A 
HETATM    8  C   UNL     1      39.633 -14.263  -1.379  1.00  0.00    -0.017 A 
HETATM    9  C   UNL     1      40.657 -15.190  -1.666  1.00  0.00    -0.050 A 
HETATM   10  C   UNL     1      41.014 -15.587  -3.075  1.00  0.00     0.049 C 
HETATM   11  C   UNL     1      41.396 -15.747  -0.602  1.00  0.00     0.024 A 
BRANCH   8  12
HETATM   12  C   UNL     1      38.868 -13.609  -2.423  1.00  0.00     0.011 A 
HETATM   13  C   UNL     1      37.647 -13.960  -3.041  1.00  0.00     0.152 A 
HETATM   14  N   UNL     1      37.278 -13.087  -3.980  1.00  0.00    -0.187 NA
HETATM   15  N   UNL     1      38.267 -12.180  -3.978  1.00  0.00    -0.289 N 
HETATM   16  H   UNL     1      38.210 -11.402  -4.628  1.00  0.00     0.188 HD
HETATM   17  C   UNL     1      39.249 -12.449  -3.066  1.00  0.00     0.123 A 
ENDBRANCH   8  12
ENDBRANCH   2   5
BRANCH   1  18
HETATM   18  C   UNL     1      41.890 -17.519   3.820  1.00  0.00     0.143 C 
BRANCH  18  19
HETATM   19  C   UNL     1      42.586 -16.430   4.702  1.00  0.00     0.263 C 
BRANCH  19  20
HETATM   20  N   UNL     1      41.668 -15.811   5.744  1.00  0.00    -0.076 N 
HETATM   21  C   UNL     1      40.984 -14.560   5.287  1.00  0.00     0.269 C 
HETATM   22  H   UNL     1      42.286 -15.518   6.533  1.00  0.00     0.279 HD
HETATM   23  C   UNL     1      40.706 -16.799   6.326  1.00  0.00     0.269 C 
ENDBRANCH  19  20
ENDBRANCH  18  19
BRANCH  18  24
HETATM   24  C   UNL     1      42.886 -18.628   3.525  1.00  0.00    -0.034 A 
HETATM   25  C   UNL     1      42.870 -19.273   2.279  1.00  0.00     0.009 A 
HETATM   26  C   UNL     1      43.767 -20.307   2.004  1.00  0.00     0.001 A 
HETATM   27  C   UNL     1      44.690 -20.706   2.967  1.00  0.00     0.000 A 
HETATM   28  C   UNL     1      44.722 -20.072   4.206  1.00  0.00     0.001 A 
HETATM   29  C   UNL     1      43.827 -19.038   4.485  1.00  0.00     0.009 A 
ENDBRANCH  18  24
ENDBRANCH   1  18
TORSDOF 6
ENDMDL
MODEL 9
REMARK VINA RESULT:      -6.9      3.401      8.128
REMARK  6 active torsions:
REMARK  status: ('A' for Active; 'I' for Inactive)
REMARK    1  A    between atoms: N_2  and  C_5 
REMARK    2  A    between atoms: C_5  and  C_6 
REMARK    3  A    between atoms: C_6  and  N_7 
REMARK    4  A    between atoms: C_6  and  C_23 
REMARK       I    between atoms: N_7  and  C_8 
REMARK    5  A    between atoms: C_8  and  C_10 
REMARK    6  A    between atoms: C_13  and  C_17 
ROOT
HETATM    1  N   UNL     1      41.496 -14.058   3.997  1.00  0.00    -0.347 N 
HETATM    2  C   UNL     1      42.778 -14.421   3.650  1.00  0.00     0.252 C 
HETATM    3  O   UNL     1      43.548 -13.629   3.112  1.00  0.00    -0.268 OA
HETATM    4  H   UNL     1      40.848 -14.817   4.188  1.00  0.00     0.163 HD
ENDROOT
BRANCH   2   5
HETATM    5  C   UNL     1      43.199 -15.814   3.948  1.00  0.00     0.032 A 
HETATM    6  C   UNL     1      43.548 -16.133   5.262  1.00  0.00     0.018 A 
HETATM    7  C   UNL     1      43.916 -17.438   5.590  1.00  0.00     0.014 A 
HETATM    8  C   UNL     1      43.935 -18.448   4.615  1.00  0.00    -0.017 A 
HETATM    9  C   UNL     1      43.592 -18.133   3.283  1.00  0.00    -0.050 A 
HETATM   10  C   UNL     1      43.585 -19.167   2.186  1.00  0.00     0.049 C 
HETATM   11  C   UNL     1      43.212 -16.813   2.966  1.00  0.00     0.024 A 
BRANCH   8  12
HETATM   12  C   UNL     1      44.284 -19.795   5.025  1.00  0.00     0.011 A 
HETATM   13  C   UNL     1      45.077 -20.783   4.399  1.00  0.00     0.152 A 
HETATM   14  N   UNL     1      45.143 -21.912   5.107  1.00  0.00    -0.187 NA
HETATM   15  N   UNL     1      44.382 -21.657   6.184  1.00  0.00    -0.289 N 
HETATM   16  H   UNL     1      44.275 -22.387   6.881  1.00  0.00     0.188 HD
HETATM   17  C   UNL     1      43.839 -20.403   6.180  1.00  0.00     0.123 A 
ENDBRANCH   8  12
ENDBRANCH   2   5
BRANCH   1  18
HETATM   18  C   UNL     1      40.885 -12.793   3.574  1.00  0.00     0.143 C 
BRANCH  18  19
HETATM   19  C   UNL     1      40.368 -11.894   4.746  1.00  0.00     0.263 C 
BRANCH  19  20
HETATM   20  N   UNL     1      41.273 -10.713   5.055  1.00  0.00    -0.076 N 
HETATM   21  C   UNL     1      40.955  -9.479   4.268  1.00  0.00     0.269 C 
HETATM   22  H   UNL     1      42.230 -10.998   4.752  1.00  0.00     0.279 HD
HETATM   23  C   UNL     1      41.377 -10.434   6.522  1.00  0.00     0.269 C 
ENDBRANCH  19  20
ENDBRANCH  18  19
BRANCH  18  24
HETATM   24  C   UNL     1      39.732 -13.086   2.629  1.00  0.00    -0.034 A 
HETATM   25  C   UNL     1      38.936 -12.035   2.147  1.00  0.00     0.009 A 
HETATM   26  C   UNL     1      37.862 -12.294   1.294  1.00  0.00     0.001 A 
HETATM   27  C   UNL     1      37.572 -13.602   0.911  1.00  0.00     0.000 A 
HETATM   28  C   UNL     1      38.357 -14.654   1.377  1.00  0.00     0.001 A 
HETATM   29  C   UNL     1      39.432 -14.399   2.230  1.00  0.00     0.009 A 
ENDBRANCH  18  24
ENDBRANCH   1  18
TORSDOF 6
ENDMDL
MODEL 10
REMARK VINA RESULT:      -6.7      2.964      8.138
REMARK  6 active torsions:
REMARK  status: ('A' for Active; 'I' for Inactive)
REMARK    1  A    between atoms: N_2  and  C_5 
REMARK    2  A    between atoms: C_5  and  C_6 
REMARK    3  A    between atoms: C_6  and  N_7 
REMARK    4  A    between atoms: C_6  and  C_23 
REMARK       I    between atoms: N_7  and  C_8 
REMARK    5  A    between atoms: C_8  and  C_10 
REMARK    6  A    between atoms: C_13  and  C_17 
ROOT
HETATM    1  N   UNL     1      41.831 -14.391   2.478  1.00  0.00    -0.347 N 
HETATM    2  C   UNL     1      43.060 -14.579   3.069  1.00  0.00     0.252 C 
HETATM    3  O   UNL     1      43.853 -13.652   3.216  1.00  0.00    -0.268 OA
HETATM    4  H   UNL     1      41.351 -15.227   2.158  1.00  0.00     0.163 HD
ENDROOT
BRANCH   2   5
HETATM    5  C   UNL     1      43.397 -15.953   3.523  1.00  0.00     0.032 A 
HETATM    6  C   UNL     1      43.642 -16.159   4.882  1.00  0.00     0.018 A 
HETATM    7  C   UNL     1      43.928 -17.441   5.354  1.00  0.00     0.014 A 
HETATM    8  C   UNL     1      43.968 -18.539   4.479  1.00  0.00    -0.017 A 
HETATM    9  C   UNL     1      43.729 -18.338   3.103  1.00  0.00    -0.050 A 
HETATM   10  C   UNL     1      43.749 -19.470   2.107  1.00  0.00     0.049 C 
HETATM   11  C   UNL     1      43.431 -17.040   2.640  1.00  0.00     0.024 A 
BRANCH   8  12
HETATM   12  C   UNL     1      44.226 -19.853   5.035  1.00  0.00     0.011 A 
HETATM   13  C   UNL     1      44.960 -20.949   4.528  1.00  0.00     0.152 A 
HETATM   14  N   UNL     1      44.949 -21.998   5.354  1.00  0.00    -0.187 NA
HETATM   15  N   UNL     1      44.198 -21.583   6.386  1.00  0.00    -0.289 N 
HETATM   16  H   UNL     1      44.039 -22.226   7.156  1.00  0.00     0.188 HD
HETATM   17  C   UNL     1      43.735 -20.305   6.242  1.00  0.00     0.123 A 
ENDBRANCH   8  12
ENDBRANCH   2   5
BRANCH   1  18
HETATM   18  C   UNL     1      41.457 -13.144   1.799  1.00  0.00     0.143 C 
BRANCH  18  19
HETATM   19  C   UNL     1      40.019 -12.626   2.133  1.00  0.00     0.263 C 
BRANCH  19  20
HETATM   20  N   UNL     1      39.988 -11.572   3.229  1.00  0.00    -0.076 N 
HETATM   21  C   UNL     1      40.520 -10.238   2.806  1.00  0.00     0.269 C 
HETATM   22  H   UNL     1      40.641 -11.910   3.969  1.00  0.00     0.279 HD
HETATM   23  C   UNL     1      38.648 -11.463   3.886  1.00  0.00     0.269 C 
ENDBRANCH  19  20
ENDBRANCH  18  19
BRANCH  18  24
HETATM   24  C   UNL     1      41.578 -13.338   0.297  1.00  0.00    -0.034 A 
HETATM   25  C   UNL     1      42.192 -12.351  -0.490  1.00  0.00     0.009 A 
HETATM   26  C   UNL     1      42.291 -12.509  -1.873  1.00  0.00     0.001 A 
HETATM   27  C   UNL     1      41.781 -13.651  -2.486  1.00  0.00     0.000 A 
HETATM   28  C   UNL     1      41.174 -14.641  -1.717  1.00  0.00     0.001 A 
HETATM   29  C   UNL     1      41.073 -14.487  -0.334  1.00  0.00     0.009 A 
ENDBRANCH  18  24
ENDBRANCH   1  18
TORSDOF 6
ENDMDL
