MODEL 1
REMARK VINA RESULT:      -9.3      0.000      0.000
REMARK  4 active torsions:
REMARK  status: ('A' for Active; 'I' for Inactive)
REMARK    1  A    between atoms: O_2  and  C_3 
REMARK    2  A    between atoms: C_4  and  C_5 
REMARK    3  A    between atoms: C_9  and  C_10 
REMARK       I    between atoms: C_10  and  N_11 
REMARK    4  A    between atoms: N_11  and  N_12 
ROOT
HETATM    1  C   UNL     1      43.255 -14.381   2.884  1.00  0.00     0.289 C 
HETATM    2  N   UNL     1      42.360 -14.026   1.883  1.00  0.00    -0.241 N 
HETATM    3  O   UNL     1      44.008 -13.602   3.459  1.00  0.00    -0.264 OA
HETATM    4  H   UNL     1      41.943 -14.763   1.333  1.00  0.00     0.192 HD
ENDROOT
BRANCH   1   5
HETATM    5  C   UNL     1      43.232 -15.784   3.215  1.00  0.00     0.121 A 
HETATM    6  N   UNL     1      42.478 -16.269   4.247  1.00  0.00    -0.272 N 
HETATM    7  N   UNL     1      42.567 -17.597   4.415  1.00  0.00    -0.174 NA
HETATM    8  H   UNL     1      41.883 -15.731   4.871  1.00  0.00     0.189 HD
HETATM    9  C   UNL     1      43.389 -18.009   3.443  1.00  0.00     0.092 A 
HETATM   10  C   UNL     1      43.840 -16.900   2.673  1.00  0.00     0.071 A 
BRANCH   9  11
HETATM   11  C   UNL     1      43.762 -19.411   3.248  1.00  0.00     0.028 A 
HETATM   12  C   UNL     1      44.415 -20.186   4.221  1.00  0.00     0.080 A 
HETATM   13  C   UNL     1      44.771 -21.512   3.946  1.00  0.00     0.037 A 
HETATM   14  C   UNL     1      44.442 -22.096   2.723  1.00  0.00     0.003 A 
HETATM   15  C   UNL     1      43.774 -21.350   1.760  1.00  0.00     0.001 A 
HETATM   16  C   UNL     1      43.442 -20.017   2.017  1.00  0.00     0.017 A 
BRANCH  12  17
HETATM   17  O   UNL     1      44.794 -19.736   5.460  1.00  0.00    -0.355 OA
HETATM   18  C   UNL     1      43.932 -20.189   6.501  1.00  0.00     0.210 C 
ENDBRANCH  12  17
ENDBRANCH   9  11
ENDBRANCH   1   5
BRANCH   2  19
HETATM   19  N   UNL     1      42.347 -12.765   1.371  1.00  0.00    -0.165 NA
HETATM   20  C   UNL     1      42.105 -12.606   0.108  1.00  0.00     0.157 A 
HETATM   21  C   UNL     1      42.278 -11.230  -0.572  1.00  0.00     0.277 A 
HETATM   22  C   UNL     1      41.688 -13.525  -0.963  1.00  0.00     0.027 A 
HETATM   23  O   UNL     1      42.561 -10.185  -0.034  1.00  0.00    -0.266 OA
HETATM   24  N   UNL     1      42.066 -11.458  -1.913  1.00  0.00    -0.321 N 
HETATM   25  C   UNL     1      41.716 -12.782  -2.146  1.00  0.00     0.048 A 
HETATM   26  H   UNL     1      42.116 -10.723  -2.602  1.00  0.00     0.169 HD
HETATM   27  C   UNL     1      41.389 -13.335  -3.367  1.00  0.00     0.030 A 
HETATM   28  C   UNL     1      41.005 -14.678  -3.385  1.00  0.00     0.002 A 
HETATM   29  C   UNL     1      40.935 -15.423  -2.195  1.00  0.00     0.001 A 
HETATM   30  C   UNL     1      41.267 -14.843  -0.964  1.00  0.00     0.016 A 
ENDBRANCH   2  19
TORSDOF 4
ENDMDL
MODEL 2
REMARK VINA RESULT:      -8.9      3.436      4.282
REMARK  4 active torsions:
REMARK  status: ('A' for Active; 'I' for Inactive)
REMARK    1  A    between atoms: O_2  and  C_3 
REMARK    2  A    between atoms: C_4  and  C_5 
REMARK    3  A    between atoms: C_9  and  C_10 
REMARK       I    between atoms: C_10  and  N_11 
REMARK    4  A    between atoms: N_11  and  N_12 
ROOT
HETATM    1  C   UNL     1      42.774 -15.458   6.209  1.00  0.00     0.289 C 
HETATM    2  N   UNL     1      41.393 -15.557   6.112  1.00  0.00    -0.241 N 
HETATM    3  O   UNL     1      43.385 -14.436   6.504  1.00  0.00    -0.264 OA
HETATM    4  H   UNL     1      41.003 -16.372   5.662  1.00  0.00     0.192 HD
ENDROOT
BRANCH   1   5
HETATM    5  C   UNL     1      43.467 -16.692   5.930  1.00  0.00     0.121 A 
HETATM    6  N   UNL     1      44.659 -17.000   6.524  1.00  0.00    -0.272 N 
HETATM    7  N   UNL     1      45.164 -18.188   6.158  1.00  0.00    -0.174 NA
HETATM    8  H   UNL     1      45.173 -16.428   7.190  1.00  0.00     0.189 HD
HETATM    9  C   UNL     1      44.262 -18.695   5.311  1.00  0.00     0.092 A 
HETATM   10  C   UNL     1      43.185 -17.782   5.130  1.00  0.00     0.071 A 
BRANCH   9  11
HETATM   11  C   UNL     1      44.411 -20.001   4.668  1.00  0.00     0.028 A 
HETATM   12  C   UNL     1      44.403 -20.190   3.275  1.00  0.00     0.080 A 
HETATM   13  C   UNL     1      44.515 -21.477   2.736  1.00  0.00     0.037 A 
HETATM   14  C   UNL     1      44.684 -22.583   3.568  1.00  0.00     0.003 A 
HETATM   15  C   UNL     1      44.719 -22.410   4.947  1.00  0.00     0.001 A 
HETATM   16  C   UNL     1      44.578 -21.132   5.493  1.00  0.00     0.017 A 
BRANCH  12  17
HETATM   17  O   UNL     1      44.245 -19.192   2.348  1.00  0.00    -0.355 OA
HETATM   18  C   UNL     1      42.934 -19.155   1.791  1.00  0.00     0.210 C 
ENDBRANCH  12  17
ENDBRANCH   9  11
ENDBRANCH   1   5
BRANCH   2  19
HETATM   19  N   UNL     1      40.603 -14.455   6.224  1.00  0.00    -0.165 NA
HETATM   20  C   UNL     1      40.090 -13.941   5.150  1.00  0.00     0.157 A 
HETATM   21  C   UNL     1      39.360 -12.581   5.184  1.00  0.00     0.277 A 
HETATM   22  C   UNL     1      40.056 -14.371   3.743  1.00  0.00     0.027 A 
HETATM   23  O   UNL     1      39.119 -11.910   6.161  1.00  0.00    -0.266 OA
HETATM   24  N   UNL     1      39.069 -12.292   3.870  1.00  0.00    -0.321 N 
HETATM   25  C   UNL     1      39.461 -13.327   3.031  1.00  0.00     0.048 A 
HETATM   26  H   UNL     1      38.585 -11.450   3.595  1.00  0.00     0.169 HD
HETATM   27  C   UNL     1      39.275 -13.384   1.665  1.00  0.00     0.030 A 
HETATM   28  C   UNL     1      39.688 -14.544   1.005  1.00  0.00     0.002 A 
HETATM   29  C   UNL     1      40.250 -15.616   1.719  1.00  0.00     0.001 A 
HETATM   30  C   UNL     1      40.429 -15.542   3.106  1.00  0.00     0.016 A 
ENDBRANCH   2  19
TORSDOF 4
ENDMDL
MODEL 3
REMARK VINA RESULT:      -8.8      1.961      8.192
REMARK  4 active torsions:
REMARK  status: ('A' for Active; 'I' for Inactive)
REMARK    1  A    between atoms: O_2  and  C_3 
REMARK    2  A    between atoms: C_4  and  C_5 
REMARK    3  A    between atoms: C_9  and  C_10 
REMARK       I    between atoms: C_10  and  N_11 
REMARK    4  A    between atoms: N_11  and  N_12 
ROOT
HETATM    1  C   UNL     1      41.684 -16.700   3.920  1.00  0.00     0.289 C 
HETATM    2  N   UNL     1      43.057 -16.855   4.048  1.00  0.00    -0.241 N 
HETATM    3  O   UNL     1      40.860 -17.015   4.772  1.00  0.00    -0.264 OA
HETATM    4  H   UNL     1      43.627 -16.764   3.220  1.00  0.00     0.192 HD
ENDROOT
BRANCH   1   5
HETATM    5  C   UNL     1      41.279 -16.114   2.666  1.00  0.00     0.121 A 
HETATM    6  N   UNL     1      39.994 -15.701   2.444  1.00  0.00    -0.272 N 
HETATM    7  N   UNL     1      39.790 -15.174   1.227  1.00  0.00    -0.174 NA
HETATM    8  H   UNL     1      39.216 -15.759   3.095  1.00  0.00     0.189 HD
HETATM    9  C   UNL     1      40.987 -15.217   0.632  1.00  0.00     0.092 A 
HETATM   10  C   UNL     1      41.949 -15.811   1.497  1.00  0.00     0.071 A 
BRANCH   9  11
HETATM   11  C   UNL     1      41.225 -14.727  -0.726  1.00  0.00     0.028 A 
HETATM   12  C   UNL     1      41.788 -13.473  -1.015  1.00  0.00     0.080 A 
HETATM   13  C   UNL     1      41.951 -13.060  -2.343  1.00  0.00     0.037 A 
HETATM   14  C   UNL     1      41.601 -13.905  -3.397  1.00  0.00     0.003 A 
HETATM   15  C   UNL     1      41.066 -15.159  -3.127  1.00  0.00     0.001 A 
HETATM   16  C   UNL     1      40.874 -15.565  -1.804  1.00  0.00     0.017 A 
BRANCH  12  17
HETATM   17  O   UNL     1      42.174 -12.550  -0.078  1.00  0.00    -0.355 OA
HETATM   18  C   UNL     1      42.352 -11.246  -0.625  1.00  0.00     0.210 C 
ENDBRANCH  12  17
ENDBRANCH   9  11
ENDBRANCH   1   5
BRANCH   2  19
HETATM   19  N   UNL     1      43.591 -17.505   5.119  1.00  0.00    -0.165 NA
HETATM   20  C   UNL     1      43.945 -18.744   4.985  1.00  0.00     0.157 A 
HETATM   21  C   UNL     1      44.362 -19.593   6.205  1.00  0.00     0.277 A 
HETATM   22  C   UNL     1      44.028 -19.650   3.828  1.00  0.00     0.027 A 
HETATM   23  O   UNL     1      44.482 -19.213   7.347  1.00  0.00    -0.266 OA
HETATM   24  N   UNL     1      44.542 -20.867   5.717  1.00  0.00    -0.321 N 
HETATM   25  C   UNL     1      44.359 -20.907   4.341  1.00  0.00     0.048 A 
HETATM   26  H   UNL     1      44.822 -21.638   6.305  1.00  0.00     0.169 HD
HETATM   27  C   UNL     1      44.510 -22.013   3.530  1.00  0.00     0.030 A 
HETATM   28  C   UNL     1      44.339 -21.833   2.155  1.00  0.00     0.002 A 
HETATM   29  C   UNL     1      44.047 -20.565   1.626  1.00  0.00     0.001 A 
HETATM   30  C   UNL     1      43.900 -19.452   2.464  1.00  0.00     0.016 A 
ENDBRANCH   2  19
TORSDOF 4
ENDMDL
MODEL 4
REMARK VINA RESULT:      -8.7      2.377      2.529
REMARK  4 active torsions:
REMARK  status: ('A' for Active; 'I' for Inactive)
REMARK    1  A    between atoms: O_2  and  C_3 
REMARK    2  A    between atoms: C_4  and  C_5 
REMARK    3  A    between atoms: C_9  and  C_10 
REMARK       I    between atoms: C_10  and  N_11 
REMARK    4  A    between atoms: N_11  and  N_12 
ROOT
HETATM    1  C   UNL     1      40.791 -15.474   2.345  1.00  0.00     0.289 C 
HETATM    2  N   UNL     1      39.791 -15.652   1.398  1.00  0.00    -0.241 N 
HETATM    3  O   UNL     1      40.840 -14.548   3.148  1.00  0.00    -0.264 OA
HETATM    4  H   UNL     1      39.950 -16.316   0.655  1.00  0.00     0.192 HD
ENDROOT
BRANCH   1   5
HETATM    5  C   UNL     1      41.804 -16.500   2.320  1.00  0.00     0.121 A 
HETATM    6  N   UNL     1      43.027 -16.292   1.745  1.00  0.00    -0.272 N 
HETATM    7  N   UNL     1      43.852 -17.348   1.813  1.00  0.00    -0.174 NA
HETATM    8  H   UNL     1      43.347 -15.443   1.288  1.00  0.00     0.189 HD
HETATM    9  C   UNL     1      43.160 -18.279   2.480  1.00  0.00     0.092 A 
HETATM   10  C   UNL     1      41.864 -17.792   2.807  1.00  0.00     0.071 A 
BRANCH   9  11
HETATM   11  C   UNL     1      43.694 -19.605   2.791  1.00  0.00     0.028 A 
HETATM   12  C   UNL     1      44.344 -19.921   3.996  1.00  0.00     0.080 A 
HETATM   13  C   UNL     1      44.860 -21.205   4.205  1.00  0.00     0.037 A 
HETATM   14  C   UNL     1      44.697 -22.202   3.243  1.00  0.00     0.003 A 
HETATM   15  C   UNL     1      44.035 -21.911   2.055  1.00  0.00     0.001 A 
HETATM   16  C   UNL     1      43.543 -20.624   1.828  1.00  0.00     0.017 A 
BRANCH  12  17
HETATM   17  O   UNL     1      44.570 -19.039   5.021  1.00  0.00    -0.355 OA
HETATM   18  C   UNL     1      44.132 -19.534   6.284  1.00  0.00     0.210 C 
ENDBRANCH  12  17
ENDBRANCH   9  11
ENDBRANCH   1   5
BRANCH   2  19
HETATM   19  N   UNL     1      38.830 -14.706   1.210  1.00  0.00    -0.165 NA
HETATM   20  C   UNL     1      38.853 -13.998   0.125  1.00  0.00     0.157 A 
HETATM   21  C   UNL     1      37.922 -12.779  -0.054  1.00  0.00     0.277 A 
HETATM   22  C   UNL     1      39.661 -14.061  -1.103  1.00  0.00     0.027 A 
HETATM   23  O   UNL     1      37.059 -12.407   0.707  1.00  0.00    -0.266 OA
HETATM   24  N   UNL     1      38.304 -12.202  -1.244  1.00  0.00    -0.321 N 
HETATM   25  C   UNL     1      39.304 -12.942  -1.861  1.00  0.00     0.048 A 
HETATM   26  H   UNL     1      37.857 -11.376  -1.613  1.00  0.00     0.169 HD
HETATM   27  C   UNL     1      39.879 -12.673  -3.086  1.00  0.00     0.030 A 
HETATM   28  C   UNL     1      40.831 -13.577  -3.565  1.00  0.00     0.002 A 
HETATM   29  C   UNL     1      41.167 -14.726  -2.828  1.00  0.00     0.001 A 
HETATM   30  C   UNL     1      40.570 -14.985  -1.588  1.00  0.00     0.016 A 
ENDBRANCH   2  19
TORSDOF 4
ENDMDL
MODEL 5
REMARK VINA RESULT:      -8.6      2.025      8.109
REMARK  4 active torsions:
REMARK  status: ('A' for Active; 'I' for Inactive)
REMARK    1  A    between atoms: O_2  and  C_3 
REMARK    2  A    between atoms: C_4  and  C_5 
REMARK    3  A    between atoms: C_9  and  C_10 
REMARK       I    between atoms: C_10  and  N_11 
REMARK    4  A    between atoms: N_11  and  N_12 
ROOT
HETATM    1  C   UNL     1      42.975 -14.563   2.777  1.00  0.00     0.289 C 
HETATM    2  N   UNL     1      42.694 -15.802   3.338  1.00  0.00    -0.241 N 
HETATM    3  O   UNL     1      43.801 -13.768   3.212  1.00  0.00    -0.264 OA
HETATM    4  H   UNL     1      41.861 -16.285   3.036  1.00  0.00     0.192 HD
ENDROOT
BRANCH   1   5
HETATM    5  C   UNL     1      42.200 -14.270   1.597  1.00  0.00     0.121 A 
HETATM    6  N   UNL     1      42.060 -12.994   1.125  1.00  0.00    -0.272 N 
HETATM    7  N   UNL     1      41.311 -12.898   0.016  1.00  0.00    -0.174 NA
HETATM    8  H   UNL     1      42.456 -12.149   1.528  1.00  0.00     0.189 HD
HETATM    9  C   UNL     1      40.964 -14.159  -0.271  1.00  0.00     0.092 A 
HETATM   10  C   UNL     1      41.492 -15.051   0.704  1.00  0.00     0.071 A 
BRANCH   9  11
HETATM   11  C   UNL     1      40.141 -14.521  -1.425  1.00  0.00     0.028 A 
HETATM   12  C   UNL     1      38.832 -14.049  -1.626  1.00  0.00     0.080 A 
HETATM   13  C   UNL     1      38.094 -14.470  -2.739  1.00  0.00     0.037 A 
HETATM   14  C   UNL     1      38.660 -15.324  -3.686  1.00  0.00     0.003 A 
HETATM   15  C   UNL     1      39.962 -15.779  -3.512  1.00  0.00     0.001 A 
HETATM   16  C   UNL     1      40.694 -15.387  -2.389  1.00  0.00     0.017 A 
BRANCH  12  17
HETATM   17  O   UNL     1      38.160 -13.209  -0.777  1.00  0.00    -0.355 OA
HETATM   18  C   UNL     1      37.953 -11.912  -1.331  1.00  0.00     0.210 C 
ENDBRANCH  12  17
ENDBRANCH   9  11
ENDBRANCH   1   5
BRANCH   2  19
HETATM   19  N   UNL     1      43.250 -16.176   4.523  1.00  0.00    -0.165 NA
HETATM   20  C   UNL     1      43.691 -17.387   4.652  1.00  0.00     0.157 A 
HETATM   21  C   UNL     1      44.142 -17.932   6.025  1.00  0.00     0.277 A 
HETATM   22  C   UNL     1      43.860 -18.505   3.710  1.00  0.00     0.027 A 
HETATM   23  O   UNL     1      44.212 -17.315   7.063  1.00  0.00    -0.266 OA
HETATM   24  N   UNL     1      44.419 -19.263   5.815  1.00  0.00    -0.321 N 
HETATM   25  C   UNL     1      44.266 -19.601   4.476  1.00  0.00     0.048 A 
HETATM   26  H   UNL     1      44.740 -19.873   6.552  1.00  0.00     0.169 HD
HETATM   27  C   UNL     1      44.509 -20.838   3.914  1.00  0.00     0.030 A 
HETATM   28  C   UNL     1      44.354 -20.961   2.531  1.00  0.00     0.002 A 
HETATM   29  C   UNL     1      43.984 -19.854   1.748  1.00  0.00     0.001 A 
HETATM   30  C   UNL     1      43.745 -18.605   2.335  1.00  0.00     0.016 A 
ENDBRANCH   2  19
TORSDOF 4
ENDMDL
MODEL 6
REMARK VINA RESULT:      -8.5      5.641      8.027
REMARK  4 active torsions:
REMARK  status: ('A' for Active; 'I' for Inactive)
REMARK    1  A    between atoms: O_2  and  C_3 
REMARK    2  A    between atoms: C_4  and  C_5 
REMARK    3  A    between atoms: C_9  and  C_10 
REMARK       I    between atoms: C_10  and  N_11 
REMARK    4  A    between atoms: N_11  and  N_12 
ROOT
HETATM    1  C   UNL     1      41.173 -12.691   5.881  1.00  0.00     0.289 C 
HETATM    2  N   UNL     1      41.738 -12.018   6.956  1.00  0.00    -0.241 N 
HETATM    3  O   UNL     1      40.144 -12.354   5.305  1.00  0.00    -0.264 OA
HETATM    4  H   UNL     1      42.457 -12.485   7.487  1.00  0.00     0.192 HD
ENDROOT
BRANCH   1   5
HETATM    5  C   UNL     1      41.915 -13.857   5.470  1.00  0.00     0.121 A 
HETATM    6  N   UNL     1      42.890 -14.406   6.257  1.00  0.00    -0.272 N 
HETATM    7  N   UNL     1      43.477 -15.489   5.727  1.00  0.00    -0.174 NA
HETATM    8  H   UNL     1      43.194 -14.074   7.168  1.00  0.00     0.189 HD
HETATM    9  C   UNL     1      42.851 -15.680   4.560  1.00  0.00     0.092 A 
HETATM   10  C   UNL     1      41.871 -14.670   4.354  1.00  0.00     0.071 A 
BRANCH   9  11
HETATM   11  C   UNL     1      43.176 -16.776   3.646  1.00  0.00     0.028 A 
HETATM   12  C   UNL     1      43.003 -18.133   3.964  1.00  0.00     0.080 A 
HETATM   13  C   UNL     1      43.371 -19.126   3.048  1.00  0.00     0.037 A 
HETATM   14  C   UNL     1      43.870 -18.784   1.792  1.00  0.00     0.003 A 
HETATM   15  C   UNL     1      44.024 -17.444   1.453  1.00  0.00     0.001 A 
HETATM   16  C   UNL     1      43.686 -16.449   2.373  1.00  0.00     0.017 A 
BRANCH  12  17
HETATM   17  O   UNL     1      42.524 -18.605   5.159  1.00  0.00    -0.355 OA
HETATM   18  C   UNL     1      43.527 -19.245   5.944  1.00  0.00     0.210 C 
ENDBRANCH  12  17
ENDBRANCH   9  11
ENDBRANCH   1   5
BRANCH   2  19
HETATM   19  N   UNL     1      41.095 -10.971   7.541  1.00  0.00    -0.165 NA
HETATM   20  C   UNL     1      41.569 -10.482   8.644  1.00  0.00     0.157 A 
HETATM   21  C   UNL     1      40.779  -9.438   9.461  1.00  0.00     0.277 A 
HETATM   22  C   UNL     1      42.803 -10.730   9.408  1.00  0.00     0.027 A 
HETATM   23  O   UNL     1      39.730  -8.920   9.156  1.00  0.00    -0.266 OA
HETATM   24  N   UNL     1      41.510  -9.248  10.612  1.00  0.00    -0.321 N 
HETATM   25  C   UNL     1      42.687  -9.986  10.585  1.00  0.00     0.048 A 
HETATM   26  H   UNL     1      41.223  -8.607  11.337  1.00  0.00     0.169 HD
HETATM   27  C   UNL     1      43.669  -9.989  11.553  1.00  0.00     0.030 A 
HETATM   28  C   UNL     1      44.812 -10.756  11.312  1.00  0.00     0.002 A 
HETATM   29  C   UNL     1      44.955 -11.475  10.113  1.00  0.00     0.001 A 
HETATM   30  C   UNL     1      43.949 -11.458   9.139  1.00  0.00     0.016 A 
ENDBRANCH   2  19
TORSDOF 4
ENDMDL
MODEL 7
REMARK VINA RESULT:      -8.4      2.210      8.167
REMARK  4 active torsions:
REMARK  status: ('A' for Active; 'I' for Inactive)
REMARK    1  A    between atoms: O_2  and  C_3 
REMARK    2  A    between atoms: C_4  and  C_5 
REMARK    3  A    between atoms: C_9  and  C_10 
REMARK       I    between atoms: C_10  and  N_11 
REMARK    4  A    between atoms: N_11  and  N_12 
ROOT
HETATM    1  C   UNL     1      41.537 -15.569   4.047  1.00  0.00     0.289 C 
HETATM    2  N   UNL     1      42.887 -15.777   4.301  1.00  0.00    -0.241 N 
HETATM    3  O   UNL     1      40.632 -15.783   4.846  1.00  0.00    -0.264 OA
HETATM    4  H   UNL     1      43.526 -15.773   3.520  1.00  0.00     0.192 HD
ENDROOT
BRANCH   1   5
HETATM    5  C   UNL     1      41.267 -15.058   2.725  1.00  0.00     0.121 A 
HETATM    6  N   UNL     1      39.991 -14.891   2.265  1.00  0.00    -0.272 N 
HETATM    7  N   UNL     1      39.917 -14.401   1.017  1.00  0.00    -0.174 NA
HETATM    8  H   UNL     1      39.131 -15.099   2.765  1.00  0.00     0.189 HD
HETATM    9  C   UNL     1      41.190 -14.214   0.650  1.00  0.00     0.092 A 
HETATM   10  C   UNL     1      42.071 -14.625   1.689  1.00  0.00     0.071 A 
BRANCH   9  11
HETATM   11  C   UNL     1      41.577 -13.678  -0.656  1.00  0.00     0.028 A 
HETATM   12  C   UNL     1      41.351 -14.347  -1.871  1.00  0.00     0.080 A 
HETATM   13  C   UNL     1      41.783 -13.784  -3.078  1.00  0.00     0.037 A 
HETATM   14  C   UNL     1      42.400 -12.533  -3.098  1.00  0.00     0.003 A 
HETATM   15  C   UNL     1      42.608 -11.848  -1.906  1.00  0.00     0.001 A 
HETATM   16  C   UNL     1      42.206 -12.417  -0.695  1.00  0.00     0.017 A 
BRANCH  12  17
HETATM   17  O   UNL     1      40.758 -15.576  -1.993  1.00  0.00    -0.355 OA
HETATM   18  C   UNL     1      40.188 -15.792  -3.282  1.00  0.00     0.210 C 
ENDBRANCH  12  17
ENDBRANCH   9  11
ENDBRANCH   1   5
BRANCH   2  19
HETATM   19  N   UNL     1      43.297 -16.371   5.455  1.00  0.00    -0.165 NA
HETATM   20  C   UNL     1      43.705 -17.600   5.415  1.00  0.00     0.157 A 
HETATM   21  C   UNL     1      43.987 -18.392   6.710  1.00  0.00     0.277 A 
HETATM   22  C   UNL     1      43.967 -18.541   4.313  1.00  0.00     0.027 A 
HETATM   23  O   UNL     1      43.945 -17.970   7.843  1.00  0.00    -0.266 OA
HETATM   24  N   UNL     1      44.270 -19.675   6.298  1.00  0.00    -0.321 N 
HETATM   25  C   UNL     1      44.268 -19.767   4.912  1.00  0.00     0.048 A 
HETATM   26  H   UNL     1      44.495 -20.415   6.946  1.00  0.00     0.169 HD
HETATM   27  C   UNL     1      44.559 -20.893   4.170  1.00  0.00     0.030 A 
HETATM   28  C   UNL     1      44.562 -20.766   2.779  1.00  0.00     0.002 A 
HETATM   29  C   UNL     1      44.300 -19.528   2.168  1.00  0.00     0.001 A 
HETATM   30  C   UNL     1      44.010 -18.394   2.938  1.00  0.00     0.016 A 
ENDBRANCH   2  19
TORSDOF 4
ENDMDL
MODEL 8
REMARK VINA RESULT:      -8.4      2.492      8.407
REMARK  4 active torsions:
REMARK  status: ('A' for Active; 'I' for Inactive)
REMARK    1  A    between atoms: O_2  and  C_3 
REMARK    2  A    between atoms: C_4  and  C_5 
REMARK    3  A    between atoms: C_9  and  C_10 
REMARK       I    between atoms: C_10  and  N_11 
REMARK    4  A    between atoms: N_11  and  N_12 
ROOT
HETATM    1  C   UNL     1      42.433 -15.222   3.154  1.00  0.00     0.289 C 
HETATM    2  N   UNL     1      42.422 -16.463   3.776  1.00  0.00    -0.241 N 
HETATM    3  O   UNL     1      43.322 -14.385   3.274  1.00  0.00    -0.264 OA
HETATM    4  H   UNL     1      41.558 -16.986   3.783  1.00  0.00     0.192 HD
ENDROOT
BRANCH   1   5
HETATM    5  C   UNL     1      41.282 -14.978   2.320  1.00  0.00     0.121 A 
HETATM    6  N   UNL     1      40.059 -15.521   2.603  1.00  0.00    -0.272 N 
HETATM    7  N   UNL     1      39.096 -15.189   1.729  1.00  0.00    -0.174 NA
HETATM    8  H   UNL     1      39.829 -16.128   3.385  1.00  0.00     0.189 HD
HETATM    9  C   UNL     1      39.698 -14.379   0.851  1.00  0.00     0.092 A 
HETATM   10  C   UNL     1      41.074 -14.229   1.179  1.00  0.00     0.071 A 
BRANCH   9  11
HETATM   11  C   UNL     1      39.003 -13.769  -0.283  1.00  0.00     0.028 A 
HETATM   12  C   UNL     1      39.348 -14.003  -1.625  1.00  0.00     0.080 A 
HETATM   13  C   UNL     1      38.657 -13.353  -2.656  1.00  0.00     0.037 A 
HETATM   14  C   UNL     1      37.589 -12.504  -2.369  1.00  0.00     0.003 A 
HETATM   15  C   UNL     1      37.220 -12.282  -1.047  1.00  0.00     0.001 A 
HETATM   16  C   UNL     1      37.923 -12.904  -0.013  1.00  0.00     0.017 A 
BRANCH  12  17
HETATM   17  O   UNL     1      40.373 -14.812  -2.044  1.00  0.00    -0.355 OA
HETATM   18  C   UNL     1      41.104 -14.260  -3.136  1.00  0.00     0.210 C 
ENDBRANCH  12  17
ENDBRANCH   9  11
ENDBRANCH   1   5
BRANCH   2  19
HETATM   19  N   UNL     1      43.373 -16.796   4.691  1.00  0.00    -0.165 NA
HETATM   20  C   UNL     1      43.918 -17.970   4.628  1.00  0.00     0.157 A 
HETATM   21  C   UNL     1      44.846 -18.482   5.751  1.00  0.00     0.277 A 
HETATM   22  C   UNL     1      43.834 -19.070   3.654  1.00  0.00     0.027 A 
HETATM   23  O   UNL     1      45.222 -17.864   6.720  1.00  0.00    -0.266 OA
HETATM   24  N   UNL     1      45.129 -19.788   5.421  1.00  0.00    -0.321 N 
HETATM   25  C   UNL     1      44.554 -20.133   4.205  1.00  0.00     0.048 A 
HETATM   26  H   UNL     1      45.724 -20.373   5.989  1.00  0.00     0.169 HD
HETATM   27  C   UNL     1      44.679 -21.347   3.560  1.00  0.00     0.030 A 
HETATM   28  C   UNL     1      44.071 -21.478   2.309  1.00  0.00     0.002 A 
HETATM   29  C   UNL     1      43.379 -20.401   1.729  1.00  0.00     0.001 A 
HETATM   30  C   UNL     1      43.265 -19.176   2.397  1.00  0.00     0.016 A 
ENDBRANCH   2  19
TORSDOF 4
ENDMDL
MODEL 9
REMARK VINA RESULT:      -8.3      3.338      3.698
REMARK  4 active torsions:
REMARK  status: ('A' for Active; 'I' for Inactive)
REMARK    1  A    between atoms: O_2  and  C_3 
REMARK    2  A    between atoms: C_4  and  C_5 
REMARK    3  A    between atoms: C_9  and  C_10 
REMARK       I    between atoms: C_10  and  N_11 
REMARK    4  A    between atoms: N_11  and  N_12 
ROOT
HETATM    1  C   UNL     1      40.995 -15.413   5.348  1.00  0.00     0.289 C 
HETATM    2  N   UNL     1      41.049 -14.224   4.633  1.00  0.00    -0.241 N 
HETATM    3  O   UNL     1      40.198 -15.654   6.249  1.00  0.00    -0.264 OA
HETATM    4  H   UNL     1      41.864 -14.045   4.066  1.00  0.00     0.192 HD
ENDROOT
BRANCH   1   5
HETATM    5  C   UNL     1      41.977 -16.385   4.935  1.00  0.00     0.121 A 
HETATM    6  N   UNL     1      43.318 -16.159   5.075  1.00  0.00    -0.272 N 
HETATM    7  N   UNL     1      44.092 -17.167   4.646  1.00  0.00    -0.174 NA
HETATM    8  H   UNL     1      43.758 -15.327   5.459  1.00  0.00     0.189 HD
HETATM    9  C   UNL     1      43.232 -18.104   4.230  1.00  0.00     0.092 A 
HETATM   10  C   UNL     1      41.893 -17.649   4.383  1.00  0.00     0.071 A 
BRANCH   9  11
HETATM   11  C   UNL     1      43.654 -19.395   3.684  1.00  0.00     0.028 A 
HETATM   12  C   UNL     1      44.321 -20.378   4.435  1.00  0.00     0.080 A 
HETATM   13  C   UNL     1      44.726 -21.574   3.830  1.00  0.00     0.037 A 
HETATM   14  C   UNL     1      44.432 -21.828   2.491  1.00  0.00     0.003 A 
HETATM   15  C   UNL     1      43.751 -20.875   1.742  1.00  0.00     0.001 A 
HETATM   16  C   UNL     1      43.371 -19.667   2.331  1.00  0.00     0.017 A 
BRANCH  12  17
HETATM   17  O   UNL     1      44.669 -20.257   5.755  1.00  0.00    -0.355 OA
HETATM   18  C   UNL     1      43.797 -20.974   6.626  1.00  0.00     0.210 C 
ENDBRANCH  12  17
ENDBRANCH   9  11
ENDBRANCH   1   5
BRANCH   2  19
HETATM   19  N   UNL     1      40.273 -13.162   4.983  1.00  0.00    -0.165 NA
HETATM   20  C   UNL     1      39.467 -12.659   4.101  1.00  0.00     0.157 A 
HETATM   21  C   UNL     1      38.716 -11.337   4.367  1.00  0.00     0.277 A 
HETATM   22  C   UNL     1      39.070 -13.073   2.745  1.00  0.00     0.027 A 
HETATM   23  O   UNL     1      38.721 -10.692   5.389  1.00  0.00    -0.266 OA
HETATM   24  N   UNL     1      38.066 -11.045   3.189  1.00  0.00    -0.321 N 
HETATM   25  C   UNL     1      38.260 -12.049   2.248  1.00  0.00     0.048 A 
HETATM   26  H   UNL     1      37.490 -10.224   3.076  1.00  0.00     0.169 HD
HETATM   27  C   UNL     1      37.712 -12.097   0.983  1.00  0.00     0.030 A 
HETATM   28  C   UNL     1      37.980 -13.226   0.206  1.00  0.00     0.002 A 
HETATM   29  C   UNL     1      38.761 -14.280   0.712  1.00  0.00     0.001 A 
HETATM   30  C   UNL     1      39.306 -14.215   2.001  1.00  0.00     0.016 A 
ENDBRANCH   2  19
TORSDOF 4
ENDMDL
MODEL 10
REMARK VINA RESULT:      -8.2      2.519      8.924
REMARK  4 active torsions:
REMARK  status: ('A' for Active; 'I' for Inactive)
REMARK    1  A    between atoms: O_2  and  C_3 
REMARK    2  A    between atoms: C_4  and  C_5 
REMARK    3  A    between atoms: C_9  and  C_10 
REMARK       I    between atoms: C_10  and  N_11 
REMARK    4  A    between atoms: N_11  and  N_12 
ROOT
HETATM    1  C   UNL     1      41.900 -17.331   1.002  1.00  0.00     0.289 C 
HETATM    2  N   UNL     1      43.223 -17.697   1.215  1.00  0.00    -0.241 N 
HETATM    3  O   UNL     1      40.927 -18.019   1.291  1.00  0.00    -0.264 OA
HETATM    4  H   UNL     1      43.945 -17.163   0.755  1.00  0.00     0.192 HD
ENDROOT
BRANCH   1   5
HETATM    5  C   UNL     1      41.747 -16.031   0.398  1.00  0.00     0.121 A 
HETATM    6  N   UNL     1      41.920 -14.879   1.113  1.00  0.00    -0.272 N 
HETATM    7  N   UNL     1      41.745 -13.757   0.397  1.00  0.00    -0.174 NA
HETATM    8  H   UNL     1      42.158 -14.804   2.098  1.00  0.00     0.189 HD
HETATM    9  C   UNL     1      41.471 -14.183  -0.842  1.00  0.00     0.092 A 
HETATM   10  C   UNL     1      41.451 -15.605  -0.883  1.00  0.00     0.071 A 
BRANCH   9  11
HETATM   11  C   UNL     1      41.216 -13.277  -1.962  1.00  0.00     0.028 A 
HETATM   12  C   UNL     1      39.929 -12.910  -2.390  1.00  0.00     0.080 A 
HETATM   13  C   UNL     1      39.765 -12.066  -3.495  1.00  0.00     0.037 A 
HETATM   14  C   UNL     1      40.875 -11.540  -4.157  1.00  0.00     0.003 A 
HETATM   15  C   UNL     1      42.155 -11.875  -3.731  1.00  0.00     0.001 A 
HETATM   16  C   UNL     1      42.325 -12.740  -2.647  1.00  0.00     0.017 A 
BRANCH  12  17
HETATM   17  O   UNL     1      38.758 -13.352  -1.829  1.00  0.00    -0.355 OA
HETATM   18  C   UNL     1      38.030 -14.228  -2.686  1.00  0.00     0.210 C 
ENDBRANCH  12  17
ENDBRANCH   9  11
ENDBRANCH   1   5
BRANCH   2  19
HETATM   19  N   UNL     1      43.540 -18.943   1.662  1.00  0.00    -0.165 NA
HETATM   20  C   UNL     1      43.910 -19.089   2.896  1.00  0.00     0.157 A 
HETATM   21  C   UNL     1      44.478 -20.431   3.407  1.00  0.00     0.277 A 
HETATM   22  C   UNL     1      43.954 -18.177   4.050  1.00  0.00     0.027 A 
HETATM   23  O   UNL     1      44.566 -21.465   2.786  1.00  0.00    -0.266 OA
HETATM   24  N   UNL     1      44.879 -20.187   4.701  1.00  0.00    -0.321 N 
HETATM   25  C   UNL     1      44.572 -18.887   5.083  1.00  0.00     0.048 A 
HETATM   26  H   UNL     1      45.292 -20.899   5.284  1.00  0.00     0.169 HD
HETATM   27  C   UNL     1      44.792 -18.330   6.326  1.00  0.00     0.030 A 
HETATM   28  C   UNL     1      44.354 -17.019   6.532  1.00  0.00     0.002 A 
HETATM   29  C   UNL     1      43.696 -16.311   5.512  1.00  0.00     0.001 A 
HETATM   30  C   UNL     1      43.478 -16.894   4.258  1.00  0.00     0.016 A 
ENDBRANCH   2  19
TORSDOF 4
ENDMDL
