MODEL 1
REMARK VINA RESULT:      -8.3      0.000      0.000
REMARK  3 active torsions:
REMARK  status: ('A' for Active; 'I' for Inactive)
REMARK    1  A    between atoms: C_5  and  N_6 
REMARK       I    between atoms: N_6  and  C_7 
REMARK    2  A    between atoms: C_7  and  C_8 
REMARK    3  A    between atoms: C_8  and  C_9 
ROOT
HETATM    1  C   UNL     1      41.868 -15.639   2.014  1.00  0.00     0.286 C 
HETATM    2  N   UNL     1      42.962 -15.288   3.033  1.00  0.00    -0.056 N 
HETATM    3  H   UNL     1      43.883 -15.349   2.571  1.00  0.00     0.278 HD
HETATM    4  H   UNL     1      42.841 -14.308   3.322  1.00  0.00     0.278 HD
HETATM    5  C   UNL     1      43.012 -16.172   4.254  1.00  0.00     0.209 C 
HETATM    6  C   UNL     1      41.605 -16.302   4.867  1.00  0.00     0.115 C 
HETATM    7  N   UNL     1      40.631 -16.746   3.887  1.00  0.00    -0.353 N 
HETATM    8  C   UNL     1      40.623 -16.350   2.579  1.00  0.00     0.249 C 
HETATM    9  O   UNL     1      39.667 -16.632   1.859  1.00  0.00    -0.271 OA
HETATM   10  C   UNL     1      43.994 -15.594   5.269  1.00  0.00     0.035 C 
HETATM   11  C   UNL     1      44.061 -16.494   6.503  1.00  0.00     0.002 C 
HETATM   12  C   UNL     1      42.680 -16.769   7.103  1.00  0.00     0.002 C 
HETATM   13  C   UNL     1      41.669 -17.255   6.064  1.00  0.00     0.027 C 
HETATM   14  H   UNL     1      39.757 -17.163   4.205  1.00  0.00     0.163 HD
ENDROOT
BRANCH   1  15
HETATM   15  C   UNL     1      42.422 -16.420   0.817  1.00  0.00     0.146 C 
BRANCH  15  16
HETATM   16  C   UNL     1      43.503 -17.352   1.300  1.00  0.00     0.224 C 
HETATM   17  N   UNL     1      43.032 -18.584   1.694  1.00  0.00    -0.327 N 
HETATM   18  H   UNL     1      42.103 -18.864   1.385  1.00  0.00     0.169 HD
HETATM   19  O   UNL     1      44.628 -16.888   1.467  1.00  0.00    -0.273 OA
BRANCH  17  20
HETATM   20  C   UNL     1      43.660 -19.496   2.571  1.00  0.00     0.034 A 
HETATM   21  C   UNL     1      44.010 -19.198   3.889  1.00  0.00     0.030 A 
HETATM   22  C   UNL     1      44.537 -20.190   4.724  1.00  0.00     0.009 A 
HETATM   23  C   UNL     1      44.742 -21.489   4.249  1.00  0.00    -0.062 A 
HETATM   24  C   UNL     1      45.262 -22.562   5.160  1.00  0.00     0.048 C 
HETATM   25  C   UNL     1      44.402 -21.784   2.926  1.00  0.00     0.009 A 
HETATM   26  C   UNL     1      43.872 -20.794   2.093  1.00  0.00     0.030 A 
ENDBRANCH  17  20
ENDBRANCH  15  16
ENDBRANCH   1  15
TORSDOF 3
ENDMDL
MODEL 2
REMARK VINA RESULT:      -8.2      2.035      4.105
REMARK  3 active torsions:
REMARK  status: ('A' for Active; 'I' for Inactive)
REMARK    1  A    between atoms: C_5  and  N_6 
REMARK       I    between atoms: N_6  and  C_7 
REMARK    2  A    between atoms: C_7  and  C_8 
REMARK    3  A    between atoms: C_8  and  C_9 
ROOT
HETATM    1  C   UNL     1      42.393 -14.921   5.370  1.00  0.00     0.286 C 
HETATM    2  N   UNL     1      41.279 -15.706   4.664  1.00  0.00    -0.056 N 
HETATM    3  H   UNL     1      40.994 -16.498   5.263  1.00  0.00     0.278 HD
HETATM    4  H   UNL     1      40.455 -15.097   4.569  1.00  0.00     0.278 HD
HETATM    5  C   UNL     1      41.646 -16.273   3.315  1.00  0.00     0.209 C 
HETATM    6  C   UNL     1      42.288 -15.179   2.443  1.00  0.00     0.115 C 
HETATM    7  N   UNL     1      43.409 -14.546   3.114  1.00  0.00    -0.353 N 
HETATM    8  C   UNL     1      43.446 -14.270   4.452  1.00  0.00     0.249 C 
HETATM    9  O   UNL     1      44.352 -13.578   4.911  1.00  0.00    -0.271 OA
HETATM   10  C   UNL     1      40.402 -16.843   2.639  1.00  0.00     0.035 C 
HETATM   11  C   UNL     1      40.770 -17.433   1.278  1.00  0.00     0.002 C 
HETATM   12  C   UNL     1      41.522 -16.437   0.393  1.00  0.00     0.002 C 
HETATM   13  C   UNL     1      42.713 -15.792   1.105  1.00  0.00     0.027 C 
HETATM   14  H   UNL     1      44.102 -14.042   2.562  1.00  0.00     0.163 HD
ENDROOT
BRANCH   1  15
HETATM   15  C   UNL     1      43.085 -15.751   6.458  1.00  0.00     0.146 C 
BRANCH  15  16
HETATM   16  C   UNL     1      43.067 -17.201   6.052  1.00  0.00     0.224 C 
HETATM   17  N   UNL     1      44.182 -17.589   5.343  1.00  0.00    -0.327 N 
HETATM   18  H   UNL     1      45.008 -16.997   5.388  1.00  0.00     0.169 HD
HETATM   19  O   UNL     1      42.025 -17.830   6.219  1.00  0.00    -0.273 OA
BRANCH  17  20
HETATM   20  C   UNL     1      44.294 -18.690   4.466  1.00  0.00     0.034 A 
HETATM   21  C   UNL     1      44.729 -19.958   4.855  1.00  0.00     0.030 A 
HETATM   22  C   UNL     1      44.715 -21.022   3.945  1.00  0.00     0.009 A 
HETATM   23  C   UNL     1      44.284 -20.831   2.629  1.00  0.00    -0.062 A 
HETATM   24  C   UNL     1      44.224 -21.985   1.670  1.00  0.00     0.048 C 
HETATM   25  C   UNL     1      43.859 -19.559   2.236  1.00  0.00     0.009 A 
HETATM   26  C   UNL     1      43.870 -18.497   3.146  1.00  0.00     0.030 A 
ENDBRANCH  17  20
ENDBRANCH  15  16
ENDBRANCH   1  15
TORSDOF 3
ENDMDL
MODEL 3
REMARK VINA RESULT:      -8.2      2.633      4.428
REMARK  3 active torsions:
REMARK  status: ('A' for Active; 'I' for Inactive)
REMARK    1  A    between atoms: C_5  and  N_6 
REMARK       I    between atoms: N_6  and  C_7 
REMARK    2  A    between atoms: C_7  and  C_8 
REMARK    3  A    between atoms: C_8  and  C_9 
ROOT
HETATM    1  C   UNL     1      43.471 -15.951   7.057  1.00  0.00     0.286 C 
HETATM    2  N   UNL     1      42.552 -16.377   5.902  1.00  0.00    -0.056 N 
HETATM    3  H   UNL     1      42.618 -17.400   5.781  1.00  0.00     0.278 HD
HETATM    4  H   UNL     1      41.579 -16.173   6.163  1.00  0.00     0.278 HD
HETATM    5  C   UNL     1      42.860 -15.746   4.567  1.00  0.00     0.209 C 
HETATM    6  C   UNL     1      42.997 -14.220   4.727  1.00  0.00     0.115 C 
HETATM    7  N   UNL     1      43.962 -13.872   5.753  1.00  0.00    -0.353 N 
HETATM    8  C   UNL     1      44.120 -14.559   6.923  1.00  0.00     0.249 C 
HETATM    9  O   UNL     1      44.833 -14.100   7.813  1.00  0.00    -0.271 OA
HETATM   10  C   UNL     1      41.759 -16.090   3.568  1.00  0.00     0.035 C 
HETATM   11  C   UNL     1      42.074 -15.466   2.208  1.00  0.00     0.002 C 
HETATM   12  C   UNL     1      42.341 -13.962   2.302  1.00  0.00     0.002 C 
HETATM   13  C   UNL     1      43.375 -13.610   3.374  1.00  0.00     0.027 C 
HETATM   14  H   UNL     1      44.375 -12.940   5.755  1.00  0.00     0.163 HD
ENDROOT
BRANCH   1  15
HETATM   15  C   UNL     1      44.542 -17.004   7.362  1.00  0.00     0.146 C 
BRANCH  15  16
HETATM   16  C   UNL     1      44.170 -18.292   6.676  1.00  0.00     0.224 C 
HETATM   17  N   UNL     1      44.927 -18.560   5.558  1.00  0.00    -0.327 N 
HETATM   18  H   UNL     1      45.806 -18.061   5.444  1.00  0.00     0.169 HD
HETATM   19  O   UNL     1      43.151 -18.868   7.051  1.00  0.00    -0.273 OA
BRANCH  17  20
HETATM   20  C   UNL     1      44.581 -19.398   4.476  1.00  0.00     0.034 A 
HETATM   21  C   UNL     1      43.998 -18.946   3.291  1.00  0.00     0.030 A 
HETATM   22  C   UNL     1      43.779 -19.828   2.227  1.00  0.00     0.009 A 
HETATM   23  C   UNL     1      44.122 -21.179   2.336  1.00  0.00    -0.062 A 
HETATM   24  C   UNL     1      43.931 -22.112   1.176  1.00  0.00     0.048 C 
HETATM   25  C   UNL     1      44.694 -21.635   3.527  1.00  0.00     0.009 A 
HETATM   26  C   UNL     1      44.916 -20.752   4.589  1.00  0.00     0.030 A 
ENDBRANCH  17  20
ENDBRANCH  15  16
ENDBRANCH   1  15
TORSDOF 3
ENDMDL
MODEL 4
REMARK VINA RESULT:      -8.0      2.415      6.078
REMARK  3 active torsions:
REMARK  status: ('A' for Active; 'I' for Inactive)
REMARK    1  A    between atoms: C_5  and  N_6 
REMARK       I    between atoms: N_6  and  C_7 
REMARK    2  A    between atoms: C_7  and  C_8 
REMARK    3  A    between atoms: C_8  and  C_9 
ROOT
HETATM    1  C   UNL     1      43.723 -18.008   5.583  1.00  0.00     0.286 C 
HETATM    2  N   UNL     1      43.903 -18.263   4.079  1.00  0.00    -0.056 N 
HETATM    3  H   UNL     1      43.204 -17.709   3.558  1.00  0.00     0.278 HD
HETATM    4  H   UNL     1      44.828 -17.913   3.795  1.00  0.00     0.278 HD
HETATM    5  C   UNL     1      43.752 -19.700   3.646  1.00  0.00     0.209 C 
HETATM    6  C   UNL     1      44.610 -20.612   4.542  1.00  0.00     0.115 C 
HETATM    7  N   UNL     1      44.317 -20.411   5.950  1.00  0.00    -0.353 N 
HETATM    8  C   UNL     1      44.043 -19.196   6.511  1.00  0.00     0.249 C 
HETATM    9  O   UNL     1      43.979 -19.085   7.734  1.00  0.00    -0.271 OA
HETATM   10  C   UNL     1      44.157 -19.843   2.182  1.00  0.00     0.035 C 
HETATM   11  C   UNL     1      43.990 -21.295   1.732  1.00  0.00     0.002 C 
HETATM   12  C   UNL     1      44.721 -22.278   2.649  1.00  0.00     0.002 C 
HETATM   13  C   UNL     1      44.389 -22.070   4.128  1.00  0.00     0.027 C 
HETATM   14  H   UNL     1      44.569 -21.136   6.620  1.00  0.00     0.163 HD
ENDROOT
BRANCH   1  15
HETATM   15  C   UNL     1      42.335 -17.444   5.910  1.00  0.00     0.146 C 
BRANCH  15  16
HETATM   16  C   UNL     1      41.968 -16.417   4.871  1.00  0.00     0.224 C 
HETATM   17  N   UNL     1      41.042 -16.866   3.957  1.00  0.00    -0.327 N 
HETATM   18  H   UNL     1      40.495 -17.691   4.194  1.00  0.00     0.169 HD
HETATM   19  O   UNL     1      42.633 -15.385   4.824  1.00  0.00    -0.273 OA
BRANCH  17  20
HETATM   20  C   UNL     1      40.814 -16.363   2.657  1.00  0.00     0.034 A 
HETATM   21  C   UNL     1      39.945 -15.309   2.369  1.00  0.00     0.030 A 
HETATM   22  C   UNL     1      39.852 -14.803   1.067  1.00  0.00     0.009 A 
HETATM   23  C   UNL     1      40.611 -15.354   0.030  1.00  0.00    -0.062 A 
HETATM   24  C   UNL     1      40.546 -14.778  -1.354  1.00  0.00     0.048 C 
HETATM   25  C   UNL     1      41.473 -16.417   0.317  1.00  0.00     0.009 A 
HETATM   26  C   UNL     1      41.568 -16.920   1.619  1.00  0.00     0.030 A 
ENDBRANCH  17  20
ENDBRANCH  15  16
ENDBRANCH   1  15
TORSDOF 3
ENDMDL
MODEL 5
REMARK VINA RESULT:      -7.7      2.989      5.103
REMARK  3 active torsions:
REMARK  status: ('A' for Active; 'I' for Inactive)
REMARK    1  A    between atoms: C_5  and  N_6 
REMARK       I    between atoms: N_6  and  C_7 
REMARK    2  A    between atoms: C_7  and  C_8 
REMARK    3  A    between atoms: C_8  and  C_9 
ROOT
HETATM    1  C   UNL     1      40.807 -15.823   1.160  1.00  0.00     0.286 C 
HETATM    2  N   UNL     1      41.024 -16.108  -0.333  1.00  0.00    -0.056 N 
HETATM    3  H   UNL     1      41.987 -16.452  -0.473  1.00  0.00     0.278 HD
HETATM    4  H   UNL     1      40.394 -16.870  -0.617  1.00  0.00     0.278 HD
HETATM    5  C   UNL     1      40.831 -14.926  -1.249  1.00  0.00     0.209 C 
HETATM    6  C   UNL     1      39.496 -14.228  -0.933  1.00  0.00     0.115 C 
HETATM    7  N   UNL     1      39.391 -13.878   0.471  1.00  0.00    -0.353 N 
HETATM    8  C   UNL     1      39.855 -14.657   1.493  1.00  0.00     0.249 C 
HETATM    9  O   UNL     1      39.574 -14.376   2.656  1.00  0.00    -0.271 OA
HETATM   10  C   UNL     1      40.871 -15.388  -2.703  1.00  0.00     0.035 C 
HETATM   11  C   UNL     1      40.693 -14.190  -3.637  1.00  0.00     0.002 C 
HETATM   12  C   UNL     1      39.441 -13.373  -3.308  1.00  0.00     0.002 C 
HETATM   13  C   UNL     1      39.354 -12.994  -1.829  1.00  0.00     0.027 C 
HETATM   14  H   UNL     1      38.727 -13.160   0.759  1.00  0.00     0.163 HD
ENDROOT
BRANCH   1  15
HETATM   15  C   UNL     1      42.131 -15.652   1.914  1.00  0.00     0.146 C 
BRANCH  15  16
HETATM   16  C   UNL     1      42.264 -16.759   2.927  1.00  0.00     0.224 C 
HETATM   17  N   UNL     1      43.567 -17.128   3.172  1.00  0.00    -0.327 N 
HETATM   18  H   UNL     1      44.307 -16.486   2.897  1.00  0.00     0.169 HD
HETATM   19  O   UNL     1      41.238 -17.333   3.286  1.00  0.00    -0.273 OA
BRANCH  17  20
HETATM   20  C   UNL     1      44.020 -18.360   3.693  1.00  0.00     0.034 A 
HETATM   21  C   UNL     1      44.245 -18.600   5.050  1.00  0.00     0.030 A 
HETATM   22  C   UNL     1      44.597 -19.880   5.494  1.00  0.00     0.009 A 
HETATM   23  C   UNL     1      44.749 -20.934   4.588  1.00  0.00    -0.062 A 
HETATM   24  C   UNL     1      45.079 -22.316   5.073  1.00  0.00     0.048 C 
HETATM   25  C   UNL     1      44.536 -20.691   3.229  1.00  0.00     0.009 A 
HETATM   26  C   UNL     1      44.180 -19.413   2.786  1.00  0.00     0.030 A 
ENDBRANCH  17  20
ENDBRANCH  15  16
ENDBRANCH   1  15
TORSDOF 3
ENDMDL
MODEL 6
REMARK VINA RESULT:      -7.6      3.369      7.220
REMARK  3 active torsions:
REMARK  status: ('A' for Active; 'I' for Inactive)
REMARK    1  A    between atoms: C_5  and  N_6 
REMARK       I    between atoms: N_6  and  C_7 
REMARK    2  A    between atoms: C_7  and  C_8 
REMARK    3  A    between atoms: C_8  and  C_9 
ROOT
HETATM    1  C   UNL     1      43.722 -17.536   6.041  1.00  0.00     0.286 C 
HETATM    2  N   UNL     1      43.732 -17.612   4.508  1.00  0.00    -0.056 N 
HETATM    3  H   UNL     1      42.948 -17.050   4.138  1.00  0.00     0.278 HD
HETATM    4  H   UNL     1      44.596 -17.176   4.161  1.00  0.00     0.278 HD
HETATM    5  C   UNL     1      43.600 -18.999   3.931  1.00  0.00     0.209 C 
HETATM    6  C   UNL     1      44.604 -19.948   4.610  1.00  0.00     0.115 C 
HETATM    7  N   UNL     1      44.475 -19.923   6.056  1.00  0.00    -0.353 N 
HETATM    8  C   UNL     1      44.211 -18.796   6.783  1.00  0.00     0.249 C 
HETATM    9  O   UNL     1      44.290 -18.824   8.008  1.00  0.00    -0.271 OA
HETATM   10  C   UNL     1      43.831 -18.955   2.423  1.00  0.00     0.035 C 
HETATM   11  C   UNL     1      43.682 -20.357   1.830  1.00  0.00     0.002 C 
HETATM   12  C   UNL     1      44.566 -21.387   2.536  1.00  0.00     0.002 C 
HETATM   13  C   UNL     1      44.406 -21.363   4.057  1.00  0.00     0.027 C 
HETATM   14  H   UNL     1      44.842 -20.699   6.604  1.00  0.00     0.163 HD
ENDROOT
BRANCH   1  15
HETATM   15  C   UNL     1      42.359 -17.098   6.590  1.00  0.00     0.146 C 
BRANCH  15  16
HETATM   16  C   UNL     1      42.147 -15.642   6.269  1.00  0.00     0.224 C 
HETATM   17  N   UNL     1      40.822 -15.295   6.134  1.00  0.00    -0.327 N 
HETATM   18  H   UNL     1      40.120 -15.925   6.516  1.00  0.00     0.169 HD
HETATM   19  O   UNL     1      43.135 -14.968   5.986  1.00  0.00    -0.273 OA
BRANCH  17  20
HETATM   20  C   UNL     1      40.299 -14.185   5.435  1.00  0.00     0.034 A 
HETATM   21  C   UNL     1      40.166 -14.128   4.047  1.00  0.00     0.030 A 
HETATM   22  C   UNL     1      39.544 -13.031   3.439  1.00  0.00     0.009 A 
HETATM   23  C   UNL     1      39.063 -11.966   4.207  1.00  0.00    -0.062 A 
HETATM   24  C   UNL     1      38.354 -10.814   3.557  1.00  0.00     0.048 C 
HETATM   25  C   UNL     1      39.208 -12.017   5.596  1.00  0.00     0.009 A 
HETATM   26  C   UNL     1      39.826 -13.115   6.203  1.00  0.00     0.030 A 
ENDBRANCH  17  20
ENDBRANCH  15  16
ENDBRANCH   1  15
TORSDOF 3
ENDMDL
MODEL 7
REMARK VINA RESULT:      -7.5      2.665      6.183
REMARK  3 active torsions:
REMARK  status: ('A' for Active; 'I' for Inactive)
REMARK    1  A    between atoms: C_5  and  N_6 
REMARK       I    between atoms: N_6  and  C_7 
REMARK    2  A    between atoms: C_7  and  C_8 
REMARK    3  A    between atoms: C_8  and  C_9 
ROOT
HETATM    1  C   UNL     1      42.988 -17.331   5.441  1.00  0.00     0.286 C 
HETATM    2  N   UNL     1      43.628 -18.097   4.275  1.00  0.00    -0.056 N 
HETATM    3  H   UNL     1      43.082 -17.919   3.416  1.00  0.00     0.278 HD
HETATM    4  H   UNL     1      44.570 -17.720   4.109  1.00  0.00     0.278 HD
HETATM    5  C   UNL     1      43.708 -19.593   4.454  1.00  0.00     0.209 C 
HETATM    6  C   UNL     1      44.315 -19.926   5.828  1.00  0.00     0.115 C 
HETATM    7  N   UNL     1      43.602 -19.265   6.906  1.00  0.00    -0.353 N 
HETATM    8  C   UNL     1      43.092 -18.000   6.826  1.00  0.00     0.249 C 
HETATM    9  O   UNL     1      42.657 -17.449   7.835  1.00  0.00    -0.271 OA
HETATM   10  C   UNL     1      44.541 -20.203   3.330  1.00  0.00     0.035 C 
HETATM   11  C   UNL     1      44.613 -21.722   3.497  1.00  0.00     0.002 C 
HETATM   12  C   UNL     1      45.098 -22.135   4.889  1.00  0.00     0.002 C 
HETATM   13  C   UNL     1      44.325 -21.447   6.015  1.00  0.00     0.027 C 
HETATM   14  H   UNL     1      43.688 -19.624   7.856  1.00  0.00     0.163 HD
ENDROOT
BRANCH   1  15
HETATM   15  C   UNL     1      41.532 -16.946   5.151  1.00  0.00     0.146 C 
BRANCH  15  16
HETATM   16  C   UNL     1      41.509 -15.910   4.059  1.00  0.00     0.224 C 
HETATM   17  N   UNL     1      40.574 -16.161   3.081  1.00  0.00    -0.327 N 
HETATM   18  H   UNL     1      39.824 -16.816   3.292  1.00  0.00     0.169 HD
HETATM   19  O   UNL     1      42.410 -15.075   4.042  1.00  0.00    -0.273 OA
BRANCH  17  20
HETATM   20  C   UNL     1      40.576 -15.677   1.754  1.00  0.00     0.034 A 
HETATM   21  C   UNL     1      41.380 -16.192   0.736  1.00  0.00     0.030 A 
HETATM   22  C   UNL     1      41.249 -15.723  -0.577  1.00  0.00     0.009 A 
HETATM   23  C   UNL     1      40.327 -14.718  -0.887  1.00  0.00    -0.062 A 
HETATM   24  C   UNL     1      40.155 -14.251  -2.304  1.00  0.00     0.048 C 
HETATM   25  C   UNL     1      39.531 -14.194   0.135  1.00  0.00     0.009 A 
HETATM   26  C   UNL     1      39.660 -14.666   1.445  1.00  0.00     0.030 A 
ENDBRANCH  17  20
ENDBRANCH  15  16
ENDBRANCH   1  15
TORSDOF 3
ENDMDL
MODEL 8
REMARK VINA RESULT:      -7.5      2.969      6.228
REMARK  3 active torsions:
REMARK  status: ('A' for Active; 'I' for Inactive)
REMARK    1  A    between atoms: C_5  and  N_6 
REMARK       I    between atoms: N_6  and  C_7 
REMARK    2  A    between atoms: C_7  and  C_8 
REMARK    3  A    between atoms: C_8  and  C_9 
ROOT
HETATM    1  C   UNL     1      42.593 -18.216   2.887  1.00  0.00     0.286 C 
HETATM    2  N   UNL     1      41.982 -17.616   4.162  1.00  0.00    -0.056 N 
HETATM    3  H   UNL     1      41.643 -16.663   3.956  1.00  0.00     0.278 HD
HETATM    4  H   UNL     1      41.157 -18.172   4.426  1.00  0.00     0.278 HD
HETATM    5  C   UNL     1      42.920 -17.515   5.340  1.00  0.00     0.209 C 
HETATM    6  C   UNL     1      43.631 -18.862   5.562  1.00  0.00     0.115 C 
HETATM    7  N   UNL     1      44.289 -19.329   4.354  1.00  0.00    -0.353 N 
HETATM    8  C   UNL     1      43.775 -19.183   3.096  1.00  0.00     0.249 C 
HETATM    9  O   UNL     1      44.305 -19.757   2.147  1.00  0.00    -0.271 OA
HETATM   10  C   UNL     1      42.141 -17.102   6.585  1.00  0.00     0.035 C 
HETATM   11  C   UNL     1      43.089 -16.982   7.779  1.00  0.00     0.002 C 
HETATM   12  C   UNL     1      43.923 -18.247   7.993  1.00  0.00     0.002 C 
HETATM   13  C   UNL     1      44.626 -18.716   6.718  1.00  0.00     0.027 C 
HETATM   14  H   UNL     1      45.033 -20.020   4.426  1.00  0.00     0.163 HD
ENDROOT
BRANCH   1  15
HETATM   15  C   UNL     1      42.969 -17.138   1.864  1.00  0.00     0.146 C 
BRANCH  15  16
HETATM   16  C   UNL     1      41.869 -17.031   0.841  1.00  0.00     0.224 C 
HETATM   17  N   UNL     1      42.098 -16.068  -0.116  1.00  0.00    -0.327 N 
HETATM   18  H   UNL     1      43.049 -15.723  -0.230  1.00  0.00     0.169 HD
HETATM   19  O   UNL     1      40.830 -17.653   1.049  1.00  0.00    -0.273 OA
BRANCH  17  20
HETATM   20  C   UNL     1      41.136 -15.420  -0.920  1.00  0.00     0.034 A 
HETATM   21  C   UNL     1      40.934 -15.695  -2.274  1.00  0.00     0.030 A 
HETATM   22  C   UNL     1      39.890 -15.079  -2.974  1.00  0.00     0.009 A 
HETATM   23  C   UNL     1      39.045 -14.164  -2.339  1.00  0.00    -0.062 A 
HETATM   24  C   UNL     1      37.897 -13.543  -3.080  1.00  0.00     0.048 C 
HETATM   25  C   UNL     1      39.254 -13.880  -0.987  1.00  0.00     0.009 A 
HETATM   26  C   UNL     1      40.295 -14.498  -0.286  1.00  0.00     0.030 A 
ENDBRANCH  17  20
ENDBRANCH  15  16
ENDBRANCH   1  15
TORSDOF 3
ENDMDL
MODEL 9
REMARK VINA RESULT:      -7.5      2.666      6.153
REMARK  3 active torsions:
REMARK  status: ('A' for Active; 'I' for Inactive)
REMARK    1  A    between atoms: C_5  and  N_6 
REMARK       I    between atoms: N_6  and  C_7 
REMARK    2  A    between atoms: C_7  and  C_8 
REMARK    3  A    between atoms: C_8  and  C_9 
ROOT
HETATM    1  C   UNL     1      42.546 -16.014   5.673  1.00  0.00     0.286 C 
HETATM    2  N   UNL     1      43.057 -16.100   4.228  1.00  0.00    -0.056 N 
HETATM    3  H   UNL     1      42.420 -15.567   3.613  1.00  0.00     0.278 HD
HETATM    4  H   UNL     1      43.974 -15.636   4.174  1.00  0.00     0.278 HD
HETATM    5  C   UNL     1      43.164 -17.495   3.663  1.00  0.00     0.209 C 
HETATM    6  C   UNL     1      43.920 -18.404   4.649  1.00  0.00     0.115 C 
HETATM    7  N   UNL     1      43.326 -18.373   5.973  1.00  0.00    -0.353 N 
HETATM    8  C   UNL     1      42.804 -17.252   6.554  1.00  0.00     0.249 C 
HETATM    9  O   UNL     1      42.480 -17.270   7.740  1.00  0.00    -0.271 OA
HETATM   10  C   UNL     1      43.872 -17.452   2.312  1.00  0.00     0.035 C 
HETATM   11  C   UNL     1      43.969 -18.861   1.727  1.00  0.00     0.002 C 
HETATM   12  C   UNL     1      44.606 -19.856   2.701  1.00  0.00     0.002 C 
HETATM   13  C   UNL     1      43.958 -19.828   4.086  1.00  0.00     0.027 C 
HETATM   14  H   UNL     1      43.518 -19.133   6.624  1.00  0.00     0.163 HD
ENDROOT
BRANCH   1  15
HETATM   15  C   UNL     1      41.065 -15.622   5.740  1.00  0.00     0.146 C 
BRANCH  15  16
HETATM   16  C   UNL     1      40.729 -14.777   4.538  1.00  0.00     0.224 C 
HETATM   17  N   UNL     1      39.931 -15.421   3.619  1.00  0.00    -0.327 N 
HETATM   18  H   UNL     1      39.424 -16.249   3.921  1.00  0.00     0.169 HD
HETATM   19  O   UNL     1      41.321 -13.709   4.405  1.00  0.00    -0.273 OA
BRANCH  17  20
HETATM   20  C   UNL     1      39.797 -15.115   2.247  1.00  0.00     0.034 A 
HETATM   21  C   UNL     1      38.748 -14.365   1.712  1.00  0.00     0.030 A 
HETATM   22  C   UNL     1      38.742 -14.021   0.355  1.00  0.00     0.009 A 
HETATM   23  C   UNL     1      39.773 -14.438  -0.492  1.00  0.00    -0.062 A 
HETATM   24  C   UNL     1      39.789 -14.027  -1.936  1.00  0.00     0.048 C 
HETATM   25  C   UNL     1      40.817 -15.199   0.041  1.00  0.00     0.009 A 
HETATM   26  C   UNL     1      40.824 -15.539   1.397  1.00  0.00     0.030 A 
ENDBRANCH  17  20
ENDBRANCH  15  16
ENDBRANCH   1  15
TORSDOF 3
ENDMDL
MODEL 10
REMARK VINA RESULT:      -7.3      3.163      6.688
REMARK  3 active torsions:
REMARK  status: ('A' for Active; 'I' for Inactive)
REMARK    1  A    between atoms: C_5  and  N_6 
REMARK       I    between atoms: N_6  and  C_7 
REMARK    2  A    between atoms: C_7  and  C_8 
REMARK    3  A    between atoms: C_8  and  C_9 
ROOT
HETATM    1  C   UNL     1      42.192 -16.551   2.102  1.00  0.00     0.286 C 
HETATM    2  N   UNL     1      42.876 -17.825   1.588  1.00  0.00    -0.056 N 
HETATM    3  H   UNL     1      42.265 -18.275   0.887  1.00  0.00     0.278 HD
HETATM    4  H   UNL     1      43.741 -17.561   1.099  1.00  0.00     0.278 HD
HETATM    5  C   UNL     1      43.187 -18.859   2.641  1.00  0.00     0.209 C 
HETATM    6  C   UNL     1      43.910 -18.197   3.829  1.00  0.00     0.115 C 
HETATM    7  N   UNL     1      43.164 -17.066   4.350  1.00  0.00    -0.353 N 
HETATM    8  C   UNL     1      42.468 -16.183   3.573  1.00  0.00     0.249 C 
HETATM    9  O   UNL     1      42.010 -15.157   4.071  1.00  0.00    -0.271 OA
HETATM   10  C   UNL     1      44.042 -19.970   2.038  1.00  0.00     0.035 C 
HETATM   11  C   UNL     1      44.348 -21.029   3.097  1.00  0.00     0.002 C 
HETATM   12  C   UNL     1      44.963 -20.429   4.364  1.00  0.00     0.002 C 
HETATM   13  C   UNL     1      44.156 -19.251   4.913  1.00  0.00     0.027 C 
HETATM   14  H   UNL     1      43.353 -16.736   5.295  1.00  0.00     0.163 HD
ENDROOT
BRANCH   1  15
HETATM   15  C   UNL     1      40.682 -16.558   1.836  1.00  0.00     0.146 C 
BRANCH  15  16
HETATM   16  C   UNL     1      40.348 -15.439   0.884  1.00  0.00     0.224 C 
HETATM   17  N   UNL     1      41.002 -15.530  -0.323  1.00  0.00    -0.327 N 
HETATM   18  H   UNL     1      41.409 -16.426  -0.582  1.00  0.00     0.169 HD
HETATM   19  O   UNL     1      39.697 -14.492   1.318  1.00  0.00    -0.273 OA
BRANCH  17  20
HETATM   20  C   UNL     1      41.263 -14.481  -1.232  1.00  0.00     0.034 A 
HETATM   21  C   UNL     1      41.999 -13.337  -0.916  1.00  0.00     0.030 A 
HETATM   22  C   UNL     1      42.298 -12.391  -1.903  1.00  0.00     0.009 A 
HETATM   23  C   UNL     1      41.851 -12.564  -3.217  1.00  0.00    -0.062 A 
HETATM   24  C   UNL     1      42.215 -11.573  -4.284  1.00  0.00     0.048 C 
HETATM   25  C   UNL     1      41.104 -13.703  -3.531  1.00  0.00     0.009 A 
HETATM   26  C   UNL     1      40.809 -14.649  -2.545  1.00  0.00     0.030 A 
ENDBRANCH  17  20
ENDBRANCH  15  16
ENDBRANCH   1  15
TORSDOF 3
ENDMDL
