MODEL 1
REMARK VINA RESULT:      -8.9      0.000      0.000
REMARK  10 active torsions:
REMARK  status: ('A' for Active; 'I' for Inactive)
REMARK    1  A    between atoms: C_2  and  C_3 
REMARK    2  A    between atoms: C_3  and  C_4 
REMARK    3  A    between atoms: C_4  and  O_5 
REMARK    4  A    between atoms: O_5  and  C_6 
REMARK    5  A    between atoms: C_8  and  C_9 
REMARK       I    between atoms: C_9  and  N_10 
REMARK    6  A    between atoms: N_10  and  C_11 
REMARK    7  A    between atoms: C_11  and  N_12 
REMARK    8  A    between atoms: N_12  and  C_13 
REMARK    9  A    between atoms: C_15  and  O_16 
REMARK   10  A    between atoms: C_17  and  C_18 
ROOT
HETATM    1  N   UNL     1      42.629 -14.472   6.042  1.00  0.00    -0.333 N 
HETATM    2  H   UNL     1      41.934 -14.223   6.749  1.00  0.00     0.168 HD
ENDROOT
BRANCH   1   3
HETATM    3  C   UNL     1      43.837 -14.832   6.586  1.00  0.00     0.179 C 
HETATM    4  S   UNL     1      44.989 -13.881   7.337  1.00  0.00    -0.040 SA
BRANCH   3   5
HETATM    5  N   UNL     1      44.126 -16.187   6.511  1.00  0.00    -0.299 N 
HETATM    6  C   UNL     1      43.334 -17.262   6.896  1.00  0.00     0.257 C 
HETATM    7  O   UNL     1      42.354 -17.137   7.628  1.00  0.00    -0.267 OA
HETATM    8  H   UNL     1      45.008 -16.366   6.055  1.00  0.00     0.171 HD
BRANCH   6   9
HETATM    9  C   UNL     1      43.758 -18.618   6.435  1.00  0.00     0.035 A 
HETATM   10  C   UNL     1      44.297 -18.851   5.165  1.00  0.00     0.053 A 
HETATM   11  C   UNL     1      44.677 -20.145   4.805  1.00  0.00     0.069 A 
HETATM   12  C   UNL     1      44.476 -21.221   5.664  1.00  0.00     0.037 A 
HETATM   13  C   UNL     1      43.919 -20.998   6.920  1.00  0.00     0.004 A 
HETATM   14  C   UNL     1      43.566 -19.702   7.307  1.00  0.00     0.017 A 
BRANCH  11  15
HETATM   15  O   UNL     1      45.193 -20.371   3.560  1.00  0.00    -0.351 OA
BRANCH  15  16
HETATM   16  C   UNL     1      44.466 -21.403   2.880  1.00  0.00     0.175 C 
BRANCH  16  17
HETATM   17  C   UNL     1      43.534 -20.770   1.849  1.00  0.00     0.026 C 
BRANCH  17  18
HETATM   18  C   UNL     1      43.788 -19.271   1.678  1.00  0.00    -0.002 C 
HETATM   19  C   UNL     1      42.530 -18.462   1.954  1.00  0.00     0.005 C 
ENDBRANCH  17  18
ENDBRANCH  16  17
ENDBRANCH  15  16
ENDBRANCH  11  15
ENDBRANCH   6   9
ENDBRANCH   3   5
ENDBRANCH   1   3
BRANCH   1  20
HETATM   20  C   UNL     1      42.178 -14.346   4.712  1.00  0.00     0.036 A 
HETATM   21  C   UNL     1      42.645 -13.406   3.795  1.00  0.00     0.067 A 
HETATM   22  C   UNL     1      42.184 -13.409   2.469  1.00  0.00     0.082 A 
HETATM   23  C   UNL     1      41.251 -14.357   2.024  1.00  0.00     0.050 A 
HETATM   24  C   UNL     1      40.777 -15.288   2.961  1.00  0.00     0.021 A 
HETATM   25  C   UNL     1      41.242 -15.292   4.280  1.00  0.00     0.030 A 
BRANCH  22  26
HETATM   26  O   UNL     1      42.667 -12.457   1.610  1.00  0.00    -0.360 OA
HETATM   27  H   UNL     1      43.394 -11.973   2.036  1.00  0.00     0.217 HD
ENDBRANCH  22  26
BRANCH  23  28
HETATM   28  C   UNL     1      40.758 -14.449   0.650  1.00  0.00     0.183 A 
HETATM   29  O   UNL     1      39.449 -14.105   0.424  1.00  0.00    -0.289 OA
HETATM   30  C   UNL     1      39.305 -14.208  -0.926  1.00  0.00     0.107 A 
HETATM   31  C   UNL     1      40.523 -14.596  -1.454  1.00  0.00     0.093 A 
HETATM   32  C   UNL     1      38.157 -13.963  -1.669  1.00  0.00     0.046 A 
HETATM   33  N   UNL     1      41.443 -14.737  -0.448  1.00  0.00    -0.221 NA
HETATM   34  C   UNL     1      40.636 -14.762  -2.839  1.00  0.00     0.035 A 
HETATM   35  C   UNL     1      39.501 -14.524  -3.630  1.00  0.00     0.009 A 
HETATM   36  C   UNL     1      38.273 -14.135  -3.060  1.00  0.00    -0.059 A 
HETATM   37  C   UNL     1      37.095 -13.865  -3.953  1.00  0.00     0.048 C 
ENDBRANCH  23  28
ENDBRANCH   1  20
TORSDOF 10
ENDMDL
MODEL 2
REMARK VINA RESULT:      -8.8      4.631      8.526
REMARK  10 active torsions:
REMARK  status: ('A' for Active; 'I' for Inactive)
REMARK    1  A    between atoms: C_2  and  C_3 
REMARK    2  A    between atoms: C_3  and  C_4 
REMARK    3  A    between atoms: C_4  and  O_5 
REMARK    4  A    between atoms: O_5  and  C_6 
REMARK    5  A    between atoms: C_8  and  C_9 
REMARK       I    between atoms: C_9  and  N_10 
REMARK    6  A    between atoms: N_10  and  C_11 
REMARK    7  A    between atoms: C_11  and  N_12 
REMARK    8  A    between atoms: N_12  and  C_13 
REMARK    9  A    between atoms: C_15  and  O_16 
REMARK   10  A    between atoms: C_17  and  C_18 
ROOT
HETATM    1  N   UNL     1      40.450 -11.432   5.680  1.00  0.00    -0.333 N 
HETATM    2  H   UNL     1      39.511 -11.293   5.300  1.00  0.00     0.168 HD
ENDROOT
BRANCH   1   3
HETATM    3  C   UNL     1      41.000 -10.275   6.174  1.00  0.00     0.179 C 
HETATM    4  S   UNL     1      41.521  -8.914   5.356  1.00  0.00    -0.040 SA
BRANCH   3   5
HETATM    5  N   UNL     1      41.121 -10.235   7.556  1.00  0.00    -0.299 N 
HETATM    6  C   UNL     1      40.189 -10.608   8.516  1.00  0.00     0.257 C 
HETATM    7  O   UNL     1      38.998 -10.771   8.258  1.00  0.00    -0.267 OA
HETATM    8  H   UNL     1      42.042  -9.950   7.852  1.00  0.00     0.171 HD
BRANCH   6   9
HETATM    9  C   UNL     1      40.677 -10.745   9.921  1.00  0.00     0.035 A 
HETATM   10  C   UNL     1      42.029 -10.917  10.238  1.00  0.00     0.053 A 
HETATM   11  C   UNL     1      42.413 -11.032  11.575  1.00  0.00     0.069 A 
HETATM   12  C   UNL     1      41.470 -11.038  12.599  1.00  0.00     0.037 A 
HETATM   13  C   UNL     1      40.122 -10.889  12.286  1.00  0.00     0.004 A 
HETATM   14  C   UNL     1      39.727 -10.738  10.954  1.00  0.00     0.017 A 
BRANCH  11  15
HETATM   15  O   UNL     1      43.733 -11.211  11.881  1.00  0.00    -0.351 OA
BRANCH  15  16
HETATM   16  C   UNL     1      44.336 -12.181  11.013  1.00  0.00     0.175 C 
BRANCH  16  17
HETATM   17  C   UNL     1      45.642 -11.618  10.457  1.00  0.00     0.026 C 
BRANCH  17  18
HETATM   18  C   UNL     1      45.751 -11.789   8.940  1.00  0.00    -0.002 C 
HETATM   19  C   UNL     1      44.749 -12.811   8.426  1.00  0.00     0.005 C 
ENDBRANCH  17  18
ENDBRANCH  16  17
ENDBRANCH  15  16
ENDBRANCH  11  15
ENDBRANCH   6   9
ENDBRANCH   3   5
ENDBRANCH   1   3
BRANCH   1  20
HETATM   20  C   UNL     1      40.937 -12.750   5.564  1.00  0.00     0.036 A 
HETATM   21  C   UNL     1      40.233 -13.896   5.930  1.00  0.00     0.067 A 
HETATM   22  C   UNL     1      40.776 -15.171   5.706  1.00  0.00     0.082 A 
HETATM   23  C   UNL     1      42.032 -15.333   5.102  1.00  0.00     0.050 A 
HETATM   24  C   UNL     1      42.736 -14.171   4.752  1.00  0.00     0.021 A 
HETATM   25  C   UNL     1      42.192 -12.900   4.966  1.00  0.00     0.030 A 
BRANCH  22  26
HETATM   26  O   UNL     1      40.049 -16.265   6.096  1.00  0.00    -0.360 OA
HETATM   27  H   UNL     1      40.588 -16.823   6.680  1.00  0.00     0.217 HD
ENDBRANCH  22  26
BRANCH  23  28
HETATM   28  C   UNL     1      42.641 -16.628   4.798  1.00  0.00     0.183 A 
HETATM   29  O   UNL     1      42.308 -17.218   3.605  1.00  0.00    -0.289 OA
HETATM   30  C   UNL     1      43.074 -18.343   3.564  1.00  0.00     0.107 A 
HETATM   31  C   UNL     1      43.837 -18.379   4.716  1.00  0.00     0.093 A 
HETATM   32  C   UNL     1      43.112 -19.296   2.553  1.00  0.00     0.046 A 
HETATM   33  N   UNL     1      43.564 -17.280   5.489  1.00  0.00    -0.221 NA
HETATM   34  C   UNL     1      44.724 -19.444   4.906  1.00  0.00     0.035 A 
HETATM   35  C   UNL     1      44.796 -20.431   3.910  1.00  0.00     0.009 A 
HETATM   36  C   UNL     1      44.001 -20.368   2.749  1.00  0.00    -0.059 A 
HETATM   37  C   UNL     1      44.137 -21.435   1.700  1.00  0.00     0.048 C 
ENDBRANCH  23  28
ENDBRANCH   1  20
TORSDOF 10
ENDMDL
MODEL 3
REMARK VINA RESULT:      -8.6      5.165      9.396
REMARK  10 active torsions:
REMARK  status: ('A' for Active; 'I' for Inactive)
REMARK    1  A    between atoms: C_2  and  C_3 
REMARK    2  A    between atoms: C_3  and  C_4 
REMARK    3  A    between atoms: C_4  and  O_5 
REMARK    4  A    between atoms: O_5  and  C_6 
REMARK    5  A    between atoms: C_8  and  C_9 
REMARK       I    between atoms: C_9  and  N_10 
REMARK    6  A    between atoms: N_10  and  C_11 
REMARK    7  A    between atoms: C_11  and  N_12 
REMARK    8  A    between atoms: N_12  and  C_13 
REMARK    9  A    between atoms: C_15  and  O_16 
REMARK   10  A    between atoms: C_17  and  C_18 
ROOT
HETATM    1  N   UNL     1      41.328 -11.452   5.316  1.00  0.00    -0.333 N 
HETATM    2  H   UNL     1      42.160 -10.871   5.438  1.00  0.00     0.168 HD
ENDROOT
BRANCH   1   3
HETATM    3  C   UNL     1      40.161 -10.739   5.433  1.00  0.00     0.179 C 
HETATM    4  S   UNL     1      39.085 -10.261   4.246  1.00  0.00    -0.040 SA
BRANCH   3   5
HETATM    5  N   UNL     1      39.827 -10.382   6.732  1.00  0.00    -0.299 N 
HETATM    6  C   UNL     1      39.441 -11.205   7.782  1.00  0.00     0.257 C 
HETATM    7  O   UNL     1      39.070 -12.365   7.616  1.00  0.00    -0.267 OA
HETATM    8  H   UNL     1      39.956  -9.396   6.904  1.00  0.00     0.171 HD
BRANCH   6   9
HETATM    9  C   UNL     1      39.427 -10.602   9.149  1.00  0.00     0.035 A 
HETATM   10  C   UNL     1      40.051 -11.203  10.248  1.00  0.00     0.053 A 
HETATM   11  C   UNL     1      40.001 -10.578  11.494  1.00  0.00     0.069 A 
HETATM   12  C   UNL     1      39.290  -9.396  11.681  1.00  0.00     0.037 A 
HETATM   13  C   UNL     1      38.648  -8.806  10.596  1.00  0.00     0.004 A 
HETATM   14  C   UNL     1      38.720  -9.403   9.334  1.00  0.00     0.017 A 
BRANCH  11  15
HETATM   15  O   UNL     1      40.602 -11.173  12.567  1.00  0.00    -0.351 OA
BRANCH  15  16
HETATM   16  C   UNL     1      41.039 -10.196  13.521  1.00  0.00     0.175 C 
BRANCH  16  17
HETATM   17  C   UNL     1      42.504 -10.450  13.871  1.00  0.00     0.026 C 
BRANCH  17  18
HETATM   18  C   UNL     1      43.460  -9.622  13.009  1.00  0.00    -0.002 C 
HETATM   19  C   UNL     1      43.933 -10.407  11.796  1.00  0.00     0.005 C 
ENDBRANCH  17  18
ENDBRANCH  16  17
ENDBRANCH  15  16
ENDBRANCH  11  15
ENDBRANCH   6   9
ENDBRANCH   3   5
ENDBRANCH   1   3
BRANCH   1  20
HETATM   20  C   UNL     1      41.598 -12.819   5.097  1.00  0.00     0.036 A 
HETATM   21  C   UNL     1      40.726 -13.717   4.485  1.00  0.00     0.067 A 
HETATM   22  C   UNL     1      41.117 -15.044   4.245  1.00  0.00     0.082 A 
HETATM   23  C   UNL     1      42.393 -15.503   4.604  1.00  0.00     0.050 A 
HETATM   24  C   UNL     1      43.255 -14.594   5.234  1.00  0.00     0.021 A 
HETATM   25  C   UNL     1      42.870 -13.269   5.465  1.00  0.00     0.030 A 
BRANCH  22  26
HETATM   26  O   UNL     1      40.218 -15.890   3.650  1.00  0.00    -0.360 OA
HETATM   27  H   UNL     1      39.941 -16.570   4.285  1.00  0.00     0.217 HD
ENDBRANCH  22  26
BRANCH  23  28
HETATM   28  C   UNL     1      42.885 -16.857   4.348  1.00  0.00     0.183 A 
HETATM   29  O   UNL     1      42.547 -17.436   3.150  1.00  0.00    -0.289 OA
HETATM   30  C   UNL     1      43.200 -18.631   3.161  1.00  0.00     0.107 A 
HETATM   31  C   UNL     1      43.906 -18.718   4.347  1.00  0.00     0.093 A 
HETATM   32  C   UNL     1      43.188 -19.603   2.168  1.00  0.00     0.046 A 
HETATM   33  N   UNL     1      43.709 -17.583   5.090  1.00  0.00    -0.221 NA
HETATM   34  C   UNL     1      44.675 -19.860   4.592  1.00  0.00     0.035 A 
HETATM   35  C   UNL     1      44.693 -20.869   3.616  1.00  0.00     0.009 A 
HETATM   36  C   UNL     1      43.959 -20.752   2.420  1.00  0.00    -0.059 A 
HETATM   37  C   UNL     1      44.035 -21.847   1.394  1.00  0.00     0.048 C 
ENDBRANCH  23  28
ENDBRANCH   1  20
TORSDOF 10
ENDMDL
MODEL 4
REMARK VINA RESULT:      -8.4      3.488      7.679
REMARK  10 active torsions:
REMARK  status: ('A' for Active; 'I' for Inactive)
REMARK    1  A    between atoms: C_2  and  C_3 
REMARK    2  A    between atoms: C_3  and  C_4 
REMARK    3  A    between atoms: C_4  and  O_5 
REMARK    4  A    between atoms: O_5  and  C_6 
REMARK    5  A    between atoms: C_8  and  C_9 
REMARK       I    between atoms: C_9  and  N_10 
REMARK    6  A    between atoms: N_10  and  C_11 
REMARK    7  A    between atoms: C_11  and  N_12 
REMARK    8  A    between atoms: N_12  and  C_13 
REMARK    9  A    between atoms: C_15  and  O_16 
REMARK   10  A    between atoms: C_17  and  C_18 
ROOT
HETATM    1  N   UNL     1      41.032 -16.066   2.604  1.00  0.00    -0.333 N 
HETATM    2  H   UNL     1      40.033 -16.225   2.756  1.00  0.00     0.168 HD
ENDROOT
BRANCH   1   3
HETATM    3  C   UNL     1      41.515 -16.734   1.506  1.00  0.00     0.179 C 
HETATM    4  S   UNL     1      41.479 -16.292  -0.106  1.00  0.00    -0.040 SA
BRANCH   3   5
HETATM    5  N   UNL     1      42.134 -17.943   1.788  1.00  0.00    -0.299 N 
HETATM    6  C   UNL     1      43.485 -18.195   1.993  1.00  0.00     0.257 C 
HETATM    7  O   UNL     1      44.365 -17.399   1.671  1.00  0.00    -0.267 OA
HETATM    8  H   UNL     1      41.471 -18.694   1.913  1.00  0.00     0.171 HD
BRANCH   6   9
HETATM    9  C   UNL     1      43.849 -19.522   2.571  1.00  0.00     0.035 A 
HETATM   10  C   UNL     1      44.194 -19.693   3.917  1.00  0.00     0.053 A 
HETATM   11  C   UNL     1      44.518 -20.966   4.389  1.00  0.00     0.069 A 
HETATM   12  C   UNL     1      44.563 -22.063   3.533  1.00  0.00     0.037 A 
HETATM   13  C   UNL     1      44.242 -21.894   2.189  1.00  0.00     0.004 A 
HETATM   14  C   UNL     1      43.883 -20.631   1.710  1.00  0.00     0.017 A 
BRANCH  11  15
HETATM   15  O   UNL     1      44.864 -21.126   5.700  1.00  0.00    -0.351 OA
BRANCH  15  16
HETATM   16  C   UNL     1      43.713 -21.054   6.551  1.00  0.00     0.175 C 
BRANCH  16  17
HETATM   17  C   UNL     1      43.931 -19.972   7.607  1.00  0.00     0.026 C 
BRANCH  17  18
HETATM   18  C   UNL     1      43.314 -18.631   7.202  1.00  0.00    -0.002 C 
HETATM   19  C   UNL     1      43.535 -17.574   8.273  1.00  0.00     0.005 C 
ENDBRANCH  17  18
ENDBRANCH  16  17
ENDBRANCH  15  16
ENDBRANCH  11  15
ENDBRANCH   6   9
ENDBRANCH   3   5
ENDBRANCH   1   3
BRANCH   1  20
HETATM   20  C   UNL     1      41.644 -15.241   3.570  1.00  0.00     0.036 A 
HETATM   21  C   UNL     1      41.645 -13.848   3.545  1.00  0.00     0.067 A 
HETATM   22  C   UNL     1      42.220 -13.115   4.595  1.00  0.00     0.082 A 
HETATM   23  C   UNL     1      42.800 -13.755   5.699  1.00  0.00     0.050 A 
HETATM   24  C   UNL     1      42.807 -15.158   5.704  1.00  0.00     0.021 A 
HETATM   25  C   UNL     1      42.226 -15.891   4.664  1.00  0.00     0.030 A 
BRANCH  22  26
HETATM   26  O   UNL     1      42.204 -11.746   4.517  1.00  0.00    -0.360 OA
HETATM   27  H   UNL     1      41.455 -11.400   5.028  1.00  0.00     0.217 HD
ENDBRANCH  22  26
BRANCH  23  28
HETATM   28  C   UNL     1      43.379 -13.058   6.849  1.00  0.00     0.183 A 
HETATM   29  O   UNL     1      42.606 -12.106   7.464  1.00  0.00    -0.289 OA
HETATM   30  C   UNL     1      43.359 -11.699   8.523  1.00  0.00     0.107 A 
HETATM   31  C   UNL     1      44.537 -12.421   8.509  1.00  0.00     0.093 A 
HETATM   32  C   UNL     1      43.024 -10.740   9.472  1.00  0.00     0.046 A 
HETATM   33  N   UNL     1      44.537 -13.291   7.448  1.00  0.00    -0.221 NA
HETATM   34  C   UNL     1      45.483 -12.191   9.513  1.00  0.00     0.035 A 
HETATM   35  C   UNL     1      45.187 -11.230  10.493  1.00  0.00     0.009 A 
HETATM   36  C   UNL     1      43.979 -10.507  10.477  1.00  0.00    -0.059 A 
HETATM   37  C   UNL     1      43.698  -9.510  11.566  1.00  0.00     0.048 C 
ENDBRANCH  23  28
ENDBRANCH   1  20
TORSDOF 10
ENDMDL
MODEL 5
REMARK VINA RESULT:      -8.4      5.115      9.416
REMARK  10 active torsions:
REMARK  status: ('A' for Active; 'I' for Inactive)
REMARK    1  A    between atoms: C_2  and  C_3 
REMARK    2  A    between atoms: C_3  and  C_4 
REMARK    3  A    between atoms: C_4  and  O_5 
REMARK    4  A    between atoms: O_5  and  C_6 
REMARK    5  A    between atoms: C_8  and  C_9 
REMARK       I    between atoms: C_9  and  N_10 
REMARK    6  A    between atoms: N_10  and  C_11 
REMARK    7  A    between atoms: C_11  and  N_12 
REMARK    8  A    between atoms: N_12  and  C_13 
REMARK    9  A    between atoms: C_15  and  O_16 
REMARK   10  A    between atoms: C_17  and  C_18 
ROOT
HETATM    1  N   UNL     1      40.471 -11.666   5.526  1.00  0.00    -0.333 N 
HETATM    2  H   UNL     1      39.454 -11.583   5.457  1.00  0.00     0.168 HD
ENDROOT
BRANCH   1   3
HETATM    3  C   UNL     1      41.095 -10.452   5.673  1.00  0.00     0.179 C 
HETATM    4  S   UNL     1      41.104  -9.133   4.646  1.00  0.00    -0.040 SA
BRANCH   3   5
HETATM    5  N   UNL     1      41.806 -10.304   6.855  1.00  0.00    -0.299 N 
HETATM    6  C   UNL     1      41.393 -10.580   8.152  1.00  0.00     0.257 C 
HETATM    7  O   UNL     1      40.211 -10.738   8.454  1.00  0.00    -0.267 OA
HETATM    8  H   UNL     1      42.760 -10.016   6.695  1.00  0.00     0.171 HD
BRANCH   6   9
HETATM    9  C   UNL     1      42.447 -10.614   9.209  1.00  0.00     0.035 A 
HETATM   10  C   UNL     1      42.289  -9.999  10.456  1.00  0.00     0.053 A 
HETATM   11  C   UNL     1      43.316 -10.078  11.398  1.00  0.00     0.069 A 
HETATM   12  C   UNL     1      44.521 -10.705  11.100  1.00  0.00     0.037 A 
HETATM   13  C   UNL     1      44.693 -11.299   9.852  1.00  0.00     0.004 A 
HETATM   14  C   UNL     1      43.659 -11.258   8.912  1.00  0.00     0.017 A 
BRANCH  11  15
HETATM   15  O   UNL     1      43.161  -9.467  12.610  1.00  0.00    -0.351 OA
BRANCH  15  16
HETATM   16  C   UNL     1      42.868 -10.424  13.637  1.00  0.00     0.175 C 
BRANCH  16  17
HETATM   17  C   UNL     1      41.430 -10.230  14.114  1.00  0.00     0.026 C 
BRANCH  17  18
HETATM   18  C   UNL     1      41.266  -8.972  14.969  1.00  0.00    -0.002 C 
HETATM   19  C   UNL     1      42.084  -9.061  16.247  1.00  0.00     0.005 C 
ENDBRANCH  17  18
ENDBRANCH  16  17
ENDBRANCH  15  16
ENDBRANCH  11  15
ENDBRANCH   6   9
ENDBRANCH   3   5
ENDBRANCH   1   3
BRANCH   1  20
HETATM   20  C   UNL     1      40.956 -12.986   5.419  1.00  0.00     0.036 A 
HETATM   21  C   UNL     1      40.280 -14.123   5.858  1.00  0.00     0.067 A 
HETATM   22  C   UNL     1      40.815 -15.402   5.639  1.00  0.00     0.082 A 
HETATM   23  C   UNL     1      42.034 -15.577   4.968  1.00  0.00     0.050 A 
HETATM   24  C   UNL     1      42.712 -14.424   4.545  1.00  0.00     0.021 A 
HETATM   25  C   UNL     1      42.176 -13.149   4.754  1.00  0.00     0.030 A 
BRANCH  22  26
HETATM   26  O   UNL     1      40.116 -16.487   6.100  1.00  0.00    -0.360 OA
HETATM   27  H   UNL     1      40.140 -17.196   5.437  1.00  0.00     0.217 HD
ENDBRANCH  22  26
BRANCH  23  28
HETATM   28  C   UNL     1      42.631 -16.878   4.666  1.00  0.00     0.183 A 
HETATM   29  O   UNL     1      42.340 -17.439   3.448  1.00  0.00    -0.289 OA
HETATM   30  C   UNL     1      43.085 -18.579   3.418  1.00  0.00     0.107 A 
HETATM   31  C   UNL     1      43.794 -18.652   4.603  1.00  0.00     0.093 A 
HETATM   32  C   UNL     1      43.150 -19.513   2.392  1.00  0.00     0.046 A 
HETATM   33  N   UNL     1      43.509 -17.563   5.385  1.00  0.00    -0.221 NA
HETATM   34  C   UNL     1      44.651 -19.739   4.811  1.00  0.00     0.035 A 
HETATM   35  C   UNL     1      44.749 -20.708   3.800  1.00  0.00     0.009 A 
HETATM   36  C   UNL     1      44.008 -20.607   2.606  1.00  0.00    -0.059 A 
HETATM   37  C   UNL     1      44.170 -21.656   1.543  1.00  0.00     0.048 C 
ENDBRANCH  23  28
ENDBRANCH   1  20
TORSDOF 10
ENDMDL
MODEL 6
REMARK VINA RESULT:      -8.2      2.437      8.187
REMARK  10 active torsions:
REMARK  status: ('A' for Active; 'I' for Inactive)
REMARK    1  A    between atoms: C_2  and  C_3 
REMARK    2  A    between atoms: C_3  and  C_4 
REMARK    3  A    between atoms: C_4  and  O_5 
REMARK    4  A    between atoms: O_5  and  C_6 
REMARK    5  A    between atoms: C_8  and  C_9 
REMARK       I    between atoms: C_9  and  N_10 
REMARK    6  A    between atoms: N_10  and  C_11 
REMARK    7  A    between atoms: C_11  and  N_12 
REMARK    8  A    between atoms: N_12  and  C_13 
REMARK    9  A    between atoms: C_15  and  O_16 
REMARK   10  A    between atoms: C_17  and  C_18 
ROOT
HETATM    1  N   UNL     1      41.700 -11.377   4.269  1.00  0.00    -0.333 N 
HETATM    2  H   UNL     1      42.440 -10.691   4.433  1.00  0.00     0.168 HD
ENDROOT
BRANCH   1   3
HETATM    3  C   UNL     1      40.480 -10.795   4.027  1.00  0.00     0.179 C 
HETATM    4  S   UNL     1      39.700  -9.578   4.867  1.00  0.00    -0.040 SA
BRANCH   3   5
HETATM    5  N   UNL     1      39.814 -11.285   2.913  1.00  0.00    -0.299 N 
HETATM    6  C   UNL     1      40.208 -11.240   1.582  1.00  0.00     0.257 C 
HETATM    7  O   UNL     1      41.098 -10.495   1.177  1.00  0.00    -0.267 OA
HETATM    8  H   UNL     1      38.972 -11.784   3.158  1.00  0.00     0.171 HD
BRANCH   6   9
HETATM    9  C   UNL     1      39.454 -12.099   0.620  1.00  0.00     0.035 A 
HETATM   10  C   UNL     1      39.693 -12.080  -0.759  1.00  0.00     0.053 A 
HETATM   11  C   UNL     1      38.953 -12.915  -1.597  1.00  0.00     0.069 A 
HETATM   12  C   UNL     1      37.939 -13.725  -1.096  1.00  0.00     0.037 A 
HETATM   13  C   UNL     1      37.681 -13.730   0.272  1.00  0.00     0.004 A 
HETATM   14  C   UNL     1      38.439 -12.924   1.128  1.00  0.00     0.017 A 
BRANCH  11  15
HETATM   15  O   UNL     1      39.182 -12.886  -2.944  1.00  0.00    -0.351 OA
BRANCH  15  16
HETATM   16  C   UNL     1      39.441 -14.202  -3.452  1.00  0.00     0.175 C 
BRANCH  16  17
HETATM   17  C   UNL     1      40.875 -14.602  -3.114  1.00  0.00     0.026 C 
BRANCH  17  18
HETATM   18  C   UNL     1      40.939 -15.852  -2.232  1.00  0.00    -0.002 C 
HETATM   19  C   UNL     1      41.300 -15.499  -0.798  1.00  0.00     0.005 C 
ENDBRANCH  17  18
ENDBRANCH  16  17
ENDBRANCH  15  16
ENDBRANCH  11  15
ENDBRANCH   6   9
ENDBRANCH   3   5
ENDBRANCH   1   3
BRANCH   1  20
HETATM   20  C   UNL     1      42.118 -12.720   4.368  1.00  0.00     0.036 A 
HETATM   21  C   UNL     1      41.912 -13.542   5.474  1.00  0.00     0.067 A 
HETATM   22  C   UNL     1      42.301 -14.890   5.447  1.00  0.00     0.082 A 
HETATM   23  C   UNL     1      42.897 -15.453   4.309  1.00  0.00     0.050 A 
HETATM   24  C   UNL     1      43.114 -14.612   3.208  1.00  0.00     0.021 A 
HETATM   25  C   UNL     1      42.717 -13.270   3.230  1.00  0.00     0.030 A 
BRANCH  22  26
HETATM   26  O   UNL     1      42.086 -15.652   6.566  1.00  0.00    -0.360 OA
HETATM   27  H   UNL     1      41.140 -15.858   6.642  1.00  0.00     0.217 HD
ENDBRANCH  22  26
BRANCH  23  28
HETATM   28  C   UNL     1      43.289 -16.858   4.192  1.00  0.00     0.183 A 
HETATM   29  O   UNL     1      43.095 -17.468   2.979  1.00  0.00    -0.289 OA
HETATM   30  C   UNL     1      43.617 -18.716   3.145  1.00  0.00     0.107 A 
HETATM   31  C   UNL     1      44.108 -18.801   4.434  1.00  0.00     0.093 A 
HETATM   32  C   UNL     1      43.671 -19.736   2.202  1.00  0.00     0.046 A 
HETATM   33  N   UNL     1      43.906 -17.613   5.089  1.00  0.00    -0.221 NA
HETATM   34  C   UNL     1      44.711 -19.993   4.849  1.00  0.00     0.035 A 
HETATM   35  C   UNL     1      44.788 -21.051   3.930  1.00  0.00     0.009 A 
HETATM   36  C   UNL     1      44.273 -20.934   2.625  1.00  0.00    -0.059 A 
HETATM   37  C   UNL     1      44.406 -22.086   1.670  1.00  0.00     0.048 C 
ENDBRANCH  23  28
ENDBRANCH   1  20
TORSDOF 10
ENDMDL
MODEL 7
REMARK VINA RESULT:      -8.1      4.328      7.523
REMARK  10 active torsions:
REMARK  status: ('A' for Active; 'I' for Inactive)
REMARK    1  A    between atoms: C_2  and  C_3 
REMARK    2  A    between atoms: C_3  and  C_4 
REMARK    3  A    between atoms: C_4  and  O_5 
REMARK    4  A    between atoms: O_5  and  C_6 
REMARK    5  A    between atoms: C_8  and  C_9 
REMARK       I    between atoms: C_9  and  N_10 
REMARK    6  A    between atoms: N_10  and  C_11 
REMARK    7  A    between atoms: C_11  and  N_12 
REMARK    8  A    between atoms: N_12  and  C_13 
REMARK    9  A    between atoms: C_15  and  O_16 
REMARK   10  A    between atoms: C_17  and  C_18 
ROOT
HETATM    1  N   UNL     1      39.954 -15.494   2.538  1.00  0.00    -0.333 N 
HETATM    2  H   UNL     1      39.145 -16.117   2.607  1.00  0.00     0.168 HD
ENDROOT
BRANCH   1   3
HETATM    3  C   UNL     1      40.817 -15.854   1.533  1.00  0.00     0.179 C 
HETATM    4  S   UNL     1      41.010 -15.189   0.011  1.00  0.00    -0.040 SA
BRANCH   3   5
HETATM    5  N   UNL     1      41.656 -16.915   1.841  1.00  0.00    -0.299 N 
HETATM    6  C   UNL     1      42.922 -16.878   2.411  1.00  0.00     0.257 C 
HETATM    7  O   UNL     1      43.596 -15.851   2.467  1.00  0.00    -0.267 OA
HETATM    8  H   UNL     1      41.222 -17.810   1.669  1.00  0.00     0.171 HD
BRANCH   6   9
HETATM    9  C   UNL     1      43.483 -18.169   2.908  1.00  0.00     0.035 A 
HETATM   10  C   UNL     1      43.836 -18.376   4.246  1.00  0.00     0.053 A 
HETATM   11  C   UNL     1      44.348 -19.613   4.640  1.00  0.00     0.069 A 
HETATM   12  C   UNL     1      44.573 -20.628   3.715  1.00  0.00     0.037 A 
HETATM   13  C   UNL     1      44.246 -20.420   2.378  1.00  0.00     0.004 A 
HETATM   14  C   UNL     1      43.699 -19.198   1.976  1.00  0.00     0.017 A 
BRANCH  11  15
HETATM   15  O   UNL     1      44.701 -19.808   5.945  1.00  0.00    -0.351 OA
BRANCH  15  16
HETATM   16  C   UNL     1      43.643 -19.417   6.830  1.00  0.00     0.175 C 
BRANCH  16  17
HETATM   17  C   UNL     1      44.203 -18.504   7.917  1.00  0.00     0.026 C 
BRANCH  17  18
HETATM   18  C   UNL     1      43.317 -17.281   8.164  1.00  0.00    -0.002 C 
HETATM   19  C   UNL     1      43.722 -16.115   7.276  1.00  0.00     0.005 C 
ENDBRANCH  17  18
ENDBRANCH  16  17
ENDBRANCH  15  16
ENDBRANCH  11  15
ENDBRANCH   6   9
ENDBRANCH   3   5
ENDBRANCH   1   3
BRANCH   1  20
HETATM   20  C   UNL     1      39.982 -14.466   3.503  1.00  0.00     0.036 A 
HETATM   21  C   UNL     1      39.125 -13.368   3.526  1.00  0.00     0.067 A 
HETATM   22  C   UNL     1      39.185 -12.436   4.573  1.00  0.00     0.082 A 
HETATM   23  C   UNL     1      40.097 -12.582   5.628  1.00  0.00     0.050 A 
HETATM   24  C   UNL     1      40.965 -13.683   5.585  1.00  0.00     0.021 A 
HETATM   25  C   UNL     1      40.900 -14.619   4.548  1.00  0.00     0.030 A 
BRANCH  22  26
HETATM   26  O   UNL     1      38.327 -11.367   4.542  1.00  0.00    -0.360 OA
HETATM   27  H   UNL     1      38.273 -10.967   5.425  1.00  0.00     0.217 HD
ENDBRANCH  22  26
BRANCH  23  28
HETATM   28  C   UNL     1      40.187 -11.676   6.773  1.00  0.00     0.183 A 
HETATM   29  O   UNL     1      39.021 -11.362   7.424  1.00  0.00    -0.289 OA
HETATM   30  C   UNL     1      39.420 -10.586   8.470  1.00  0.00     0.107 A 
HETATM   31  C   UNL     1      40.797 -10.474   8.413  1.00  0.00     0.093 A 
HETATM   32  C   UNL     1      38.613 -10.007   9.442  1.00  0.00     0.046 A 
HETATM   33  N   UNL     1      41.278 -11.178   7.339  1.00  0.00    -0.221 NA
HETATM   34  C   UNL     1      41.455  -9.728   9.397  1.00  0.00     0.035 A 
HETATM   35  C   UNL     1      40.679  -9.125  10.400  1.00  0.00     0.009 A 
HETATM   36  C   UNL     1      39.277  -9.254  10.426  1.00  0.00    -0.059 A 
HETATM   37  C   UNL     1      38.496  -8.613  11.538  1.00  0.00     0.048 C 
ENDBRANCH  23  28
ENDBRANCH   1  20
TORSDOF 10
ENDMDL
MODEL 8
REMARK VINA RESULT:      -8.0      4.159      7.325
REMARK  10 active torsions:
REMARK  status: ('A' for Active; 'I' for Inactive)
REMARK    1  A    between atoms: C_2  and  C_3 
REMARK    2  A    between atoms: C_3  and  C_4 
REMARK    3  A    between atoms: C_4  and  O_5 
REMARK    4  A    between atoms: O_5  and  C_6 
REMARK    5  A    between atoms: C_8  and  C_9 
REMARK       I    between atoms: C_9  and  N_10 
REMARK    6  A    between atoms: N_10  and  C_11 
REMARK    7  A    between atoms: C_11  and  N_12 
REMARK    8  A    between atoms: N_12  and  C_13 
REMARK    9  A    between atoms: C_15  and  O_16 
REMARK   10  A    between atoms: C_17  and  C_18 
ROOT
HETATM    1  N   UNL     1      42.295 -15.541   6.276  1.00  0.00    -0.333 N 
HETATM    2  H   UNL     1      41.490 -15.356   6.880  1.00  0.00     0.168 HD
ENDROOT
BRANCH   1   3
HETATM    3  C   UNL     1      43.424 -15.873   6.984  1.00  0.00     0.179 C 
HETATM    4  S   UNL     1      44.296 -17.299   6.982  1.00  0.00    -0.040 SA
BRANCH   3   5
HETATM    5  N   UNL     1      43.912 -14.866   7.804  1.00  0.00    -0.299 N 
HETATM    6  C   UNL     1      44.791 -13.840   7.484  1.00  0.00     0.257 C 
HETATM    7  O   UNL     1      45.485 -13.852   6.469  1.00  0.00    -0.267 OA
HETATM    8  H   UNL     1      43.498 -14.887   8.725  1.00  0.00     0.171 HD
BRANCH   6   9
HETATM    9  C   UNL     1      44.920 -12.723   8.466  1.00  0.00     0.035 A 
HETATM   10  C   UNL     1      43.858 -12.297   9.272  1.00  0.00     0.053 A 
HETATM   11  C   UNL     1      44.054 -11.249  10.173  1.00  0.00     0.069 A 
HETATM   12  C   UNL     1      45.271 -10.578  10.245  1.00  0.00     0.037 A 
HETATM   13  C   UNL     1      46.324 -10.983   9.430  1.00  0.00     0.004 A 
HETATM   14  C   UNL     1      46.152 -12.054   8.547  1.00  0.00     0.017 A 
BRANCH  11  15
HETATM   15  O   UNL     1      43.012 -10.829  10.950  1.00  0.00    -0.351 OA
BRANCH  15  16
HETATM   16  C   UNL     1      43.349 -10.888  12.342  1.00  0.00     0.175 C 
BRANCH  16  17
HETATM   17  C   UNL     1      43.200  -9.498  12.958  1.00  0.00     0.026 C 
BRANCH  17  18
HETATM   18  C   UNL     1      42.858  -9.556  14.448  1.00  0.00    -0.002 C 
HETATM   19  C   UNL     1      41.400  -9.202  14.695  1.00  0.00     0.005 C 
ENDBRANCH  17  18
ENDBRANCH  16  17
ENDBRANCH  15  16
ENDBRANCH  11  15
ENDBRANCH   6   9
ENDBRANCH   3   5
ENDBRANCH   1   3
BRANCH   1  20
HETATM   20  C   UNL     1      42.042 -15.374   4.899  1.00  0.00     0.036 A 
HETATM   21  C   UNL     1      40.881 -15.782   4.246  1.00  0.00     0.067 A 
HETATM   22  C   UNL     1      40.692 -15.504   2.883  1.00  0.00     0.082 A 
HETATM   23  C   UNL     1      41.655 -14.803   2.142  1.00  0.00     0.050 A 
HETATM   24  C   UNL     1      42.826 -14.412   2.808  1.00  0.00     0.021 A 
HETATM   25  C   UNL     1      43.012 -14.680   4.168  1.00  0.00     0.030 A 
BRANCH  22  26
HETATM   26  O   UNL     1      39.537 -15.937   2.285  1.00  0.00    -0.360 OA
HETATM   27  H   UNL     1      39.314 -16.824   2.612  1.00  0.00     0.217 HD
ENDBRANCH  22  26
BRANCH  23  28
HETATM   28  C   UNL     1      41.508 -14.440   0.732  1.00  0.00     0.183 A 
HETATM   29  O   UNL     1      42.089 -13.267   0.319  1.00  0.00    -0.289 OA
HETATM   30  C   UNL     1      41.862 -13.237  -1.024  1.00  0.00     0.107 A 
HETATM   31  C   UNL     1      41.170 -14.386  -1.363  1.00  0.00     0.093 A 
HETATM   32  C   UNL     1      42.253 -12.250  -1.920  1.00  0.00     0.046 A 
HETATM   33  N   UNL     1      40.959 -15.149  -0.243  1.00  0.00    -0.221 NA
HETATM   34  C   UNL     1      40.824 -14.596  -2.702  1.00  0.00     0.035 A 
HETATM   35  C   UNL     1      41.200 -13.624  -3.643  1.00  0.00     0.009 A 
HETATM   36  C   UNL     1      41.900 -12.462  -3.265  1.00  0.00    -0.059 A 
HETATM   37  C   UNL     1      42.303 -11.466  -4.315  1.00  0.00     0.048 C 
ENDBRANCH  23  28
ENDBRANCH   1  20
TORSDOF 10
ENDMDL
MODEL 9
REMARK VINA RESULT:      -7.9      4.073      8.735
REMARK  10 active torsions:
REMARK  status: ('A' for Active; 'I' for Inactive)
REMARK    1  A    between atoms: C_2  and  C_3 
REMARK    2  A    between atoms: C_3  and  C_4 
REMARK    3  A    between atoms: C_4  and  O_5 
REMARK    4  A    between atoms: O_5  and  C_6 
REMARK    5  A    between atoms: C_8  and  C_9 
REMARK       I    between atoms: C_9  and  N_10 
REMARK    6  A    between atoms: N_10  and  C_11 
REMARK    7  A    between atoms: C_11  and  N_12 
REMARK    8  A    between atoms: N_12  and  C_13 
REMARK    9  A    between atoms: C_15  and  O_16 
REMARK   10  A    between atoms: C_17  and  C_18 
ROOT
HETATM    1  N   UNL     1      41.782 -11.966   2.655  1.00  0.00    -0.333 N 
HETATM    2  H   UNL     1      42.588 -11.380   2.425  1.00  0.00     0.168 HD
ENDROOT
BRANCH   1   3
HETATM    3  C   UNL     1      40.664 -11.233   2.968  1.00  0.00     0.179 C 
HETATM    4  S   UNL     1      39.386 -10.777   1.991  1.00  0.00    -0.040 SA
BRANCH   3   5
HETATM    5  N   UNL     1      40.587 -10.830   4.293  1.00  0.00    -0.299 N 
HETATM    6  C   UNL     1      40.386 -11.611   5.424  1.00  0.00     0.257 C 
HETATM    7  O   UNL     1      39.963 -12.764   5.367  1.00  0.00    -0.267 OA
HETATM    8  H   UNL     1      40.770  -9.843   4.405  1.00  0.00     0.171 HD
BRANCH   6   9
HETATM    9  C   UNL     1      40.640 -10.970   6.748  1.00  0.00     0.035 A 
HETATM   10  C   UNL     1      41.911 -10.922   7.333  1.00  0.00     0.053 A 
HETATM   11  C   UNL     1      42.075 -10.300   8.572  1.00  0.00     0.069 A 
HETATM   12  C   UNL     1      40.988  -9.778   9.267  1.00  0.00     0.037 A 
HETATM   13  C   UNL     1      39.718  -9.844   8.699  1.00  0.00     0.004 A 
HETATM   14  C   UNL     1      39.545 -10.432   7.443  1.00  0.00     0.017 A 
BRANCH  11  15
HETATM   15  O   UNL     1      43.314 -10.264   9.145  1.00  0.00    -0.351 OA
BRANCH  15  16
HETATM   16  C   UNL     1      43.945 -11.551   9.091  1.00  0.00     0.175 C 
BRANCH  16  17
HETATM   17  C   UNL     1      44.246 -12.027  10.511  1.00  0.00     0.026 C 
BRANCH  17  18
HETATM   18  C   UNL     1      44.122 -10.901  11.540  1.00  0.00    -0.002 C 
HETATM   19  C   UNL     1      43.051 -11.212  12.574  1.00  0.00     0.005 C 
ENDBRANCH  17  18
ENDBRANCH  16  17
ENDBRANCH  15  16
ENDBRANCH  11  15
ENDBRANCH   6   9
ENDBRANCH   3   5
ENDBRANCH   1   3
BRANCH   1  20
HETATM   20  C   UNL     1      42.040 -13.352   2.621  1.00  0.00     0.036 A 
HETATM   21  C   UNL     1      41.570 -14.229   1.645  1.00  0.00     0.067 A 
HETATM   22  C   UNL     1      41.944 -15.581   1.659  1.00  0.00     0.082 A 
HETATM   23  C   UNL     1      42.804 -16.090   2.643  1.00  0.00     0.050 A 
HETATM   24  C   UNL     1      43.257 -15.201   3.629  1.00  0.00     0.021 A 
HETATM   25  C   UNL     1      42.894 -13.850   3.611  1.00  0.00     0.030 A 
BRANCH  22  26
HETATM   26  O   UNL     1      41.445 -16.404   0.683  1.00  0.00    -0.360 OA
HETATM   27  H   UNL     1      41.893 -16.220  -0.159  1.00  0.00     0.217 HD
ENDBRANCH  22  26
BRANCH  23  28
HETATM   28  C   UNL     1      43.271 -17.476   2.696  1.00  0.00     0.183 A 
HETATM   29  O   UNL     1      43.753 -17.934   3.896  1.00  0.00    -0.289 OA
HETATM   30  C   UNL     1      44.029 -19.248   3.666  1.00  0.00     0.107 A 
HETATM   31  C   UNL     1      43.695 -19.527   2.353  1.00  0.00     0.093 A 
HETATM   32  C   UNL     1      44.542 -20.169   4.570  1.00  0.00     0.046 A 
HETATM   33  N   UNL     1      43.205 -18.398   1.748  1.00  0.00    -0.221 NA
HETATM   34  C   UNL     1      43.878 -20.827   1.872  1.00  0.00     0.035 A 
HETATM   35  C   UNL     1      44.394 -21.793   2.752  1.00  0.00     0.009 A 
HETATM   36  C   UNL     1      44.729 -21.475   4.082  1.00  0.00    -0.059 A 
HETATM   37  C   UNL     1      45.251 -22.551   4.991  1.00  0.00     0.048 C 
ENDBRANCH  23  28
ENDBRANCH   1  20
TORSDOF 10
ENDMDL
MODEL 10
REMARK VINA RESULT:      -7.9      3.116      8.544
REMARK  10 active torsions:
REMARK  status: ('A' for Active; 'I' for Inactive)
REMARK    1  A    between atoms: C_2  and  C_3 
REMARK    2  A    between atoms: C_3  and  C_4 
REMARK    3  A    between atoms: C_4  and  O_5 
REMARK    4  A    between atoms: O_5  and  C_6 
REMARK    5  A    between atoms: C_8  and  C_9 
REMARK       I    between atoms: C_9  and  N_10 
REMARK    6  A    between atoms: N_10  and  C_11 
REMARK    7  A    between atoms: C_11  and  N_12 
REMARK    8  A    between atoms: N_12  and  C_13 
REMARK    9  A    between atoms: C_15  and  O_16 
REMARK   10  A    between atoms: C_17  and  C_18 
ROOT
HETATM    1  N   UNL     1      39.071 -12.019   2.918  1.00  0.00    -0.333 N 
HETATM    2  H   UNL     1      39.006 -11.501   3.798  1.00  0.00     0.168 HD
ENDROOT
BRANCH   1   3
HETATM    3  C   UNL     1      38.508 -11.345   1.863  1.00  0.00     0.179 C 
HETATM    4  S   UNL     1      37.075 -10.487   1.795  1.00  0.00    -0.040 SA
BRANCH   3   5
HETATM    5  N   UNL     1      39.252 -11.375   0.692  1.00  0.00    -0.299 N 
HETATM    6  C   UNL     1      40.578 -11.007   0.502  1.00  0.00     0.257 C 
HETATM    7  O   UNL     1      41.203 -10.329   1.315  1.00  0.00    -0.267 OA
HETATM    8  H   UNL     1      38.741 -11.781  -0.077  1.00  0.00     0.171 HD
BRANCH   6   9
HETATM    9  C   UNL     1      41.219 -11.415  -0.784  1.00  0.00     0.035 A 
HETATM   10  C   UNL     1      41.267 -12.745  -1.218  1.00  0.00     0.053 A 
HETATM   11  C   UNL     1      41.878 -13.050  -2.435  1.00  0.00     0.069 A 
HETATM   12  C   UNL     1      42.494 -12.066  -3.200  1.00  0.00     0.037 A 
HETATM   13  C   UNL     1      42.469 -10.744  -2.762  1.00  0.00     0.004 A 
HETATM   14  C   UNL     1      41.830 -10.419  -1.563  1.00  0.00     0.017 A 
BRANCH  11  15
HETATM   15  O   UNL     1      41.933 -14.351  -2.849  1.00  0.00    -0.351 OA
BRANCH  15  16
HETATM   16  C   UNL     1      40.731 -15.054  -2.504  1.00  0.00     0.175 C 
BRANCH  16  17
HETATM   17  C   UNL     1      39.763 -15.010  -3.684  1.00  0.00     0.026 C 
BRANCH  17  18
HETATM   18  C   UNL     1      38.490 -14.224  -3.363  1.00  0.00    -0.002 C 
HETATM   19  C   UNL     1      37.243 -15.022  -3.714  1.00  0.00     0.005 C 
ENDBRANCH  17  18
ENDBRANCH  16  17
ENDBRANCH  15  16
ENDBRANCH  11  15
ENDBRANCH   6   9
ENDBRANCH   3   5
ENDBRANCH   1   3
BRANCH   1  20
HETATM   20  C   UNL     1      39.684 -13.284   3.031  1.00  0.00     0.036 A 
HETATM   21  C   UNL     1      39.238 -14.445   2.402  1.00  0.00     0.067 A 
HETATM   22  C   UNL     1      39.961 -15.643   2.517  1.00  0.00     0.082 A 
HETATM   23  C   UNL     1      41.151 -15.708   3.256  1.00  0.00     0.050 A 
HETATM   24  C   UNL     1      41.580 -14.536   3.897  1.00  0.00     0.021 A 
HETATM   25  C   UNL     1      40.867 -13.339   3.775  1.00  0.00     0.030 A 
BRANCH  22  26
HETATM   26  O   UNL     1      39.474 -16.759   1.889  1.00  0.00    -0.360 OA
HETATM   27  H   UNL     1      38.916 -17.262   2.505  1.00  0.00     0.217 HD
ENDBRANCH  22  26
BRANCH  23  28
HETATM   28  C   UNL     1      41.979 -16.907   3.385  1.00  0.00     0.183 A 
HETATM   29  O   UNL     1      41.933 -17.819   2.361  1.00  0.00    -0.289 OA
HETATM   30  C   UNL     1      42.846 -18.766   2.715  1.00  0.00     0.107 A 
HETATM   31  C   UNL     1      43.407 -18.384   3.920  1.00  0.00     0.093 A 
HETATM   32  C   UNL     1      43.184 -19.913   2.007  1.00  0.00     0.046 A 
HETATM   33  N   UNL     1      42.858 -17.197   4.333  1.00  0.00    -0.221 NA
HETATM   34  C   UNL     1      44.392 -19.195   4.493  1.00  0.00     0.035 A 
HETATM   35  C   UNL     1      44.765 -20.365   3.813  1.00  0.00     0.009 A 
HETATM   36  C   UNL     1      44.171 -20.728   2.589  1.00  0.00    -0.059 A 
HETATM   37  C   UNL     1      44.626 -21.976   1.886  1.00  0.00     0.048 C 
ENDBRANCH  23  28
ENDBRANCH   1  20
TORSDOF 10
ENDMDL
