MODEL 1
REMARK VINA RESULT:      -8.8      0.000      0.000
REMARK  10 active torsions:
REMARK  status: ('A' for Active; 'I' for Inactive)
REMARK    1  A    between atoms: O_2  and  C_3 
REMARK    2  A    between atoms: C_6  and  C_7 
REMARK    3  A    between atoms: C_7  and  C_8 
REMARK    4  A    between atoms: C_8  and  N_9 
REMARK    5  A    between atoms: N_12  and  C_13 
REMARK    6  A    between atoms: C_16  and  O_17 
REMARK    7  A    between atoms: C_23  and  C_24 
REMARK    8  A    between atoms: C_24  and  C_25 
REMARK       I    between atoms: C_25  and  N_26 
REMARK    9  A    between atoms: N_26  and  C_27 
REMARK   10  A    between atoms: C_30  and  O_31 
ROOT
HETATM    1  N   UNL     1      41.443 -15.610   0.562  1.00  0.00    -0.319 N 
HETATM    2  C   UNL     1      41.267 -15.261  -0.784  1.00  0.00     0.332 C 
HETATM    3  O   UNL     1      41.059 -16.092  -1.656  1.00  0.00    -0.246 OA
HETATM    4  N   UNL     1      41.442 -13.899  -0.910  1.00  0.00    -0.232 N 
HETATM    5  C   UNL     1      41.968 -13.424   0.265  1.00  0.00     0.256 C 
HETATM    6  O   UNL     1      42.458 -12.325   0.511  1.00  0.00    -0.270 OA
HETATM    7  C   UNL     1      41.803 -14.461   1.369  1.00  0.00     0.190 C 
ENDROOT
BRANCH   7   8
HETATM    8  C   UNL     1      40.657 -13.989   2.263  1.00  0.00     0.138 C 
BRANCH   8   9
HETATM    9  C   UNL     1      40.850 -14.262   3.747  1.00  0.00     0.224 C 
HETATM   10  N   UNL     1      41.553 -15.411   4.044  1.00  0.00    -0.327 N 
HETATM   11  H   UNL     1      41.704 -16.098   3.306  1.00  0.00     0.169 HD
HETATM   12  O   UNL     1      40.440 -13.446   4.569  1.00  0.00    -0.273 OA
BRANCH  10  13
HETATM   13  C   UNL     1      42.115 -15.776   5.284  1.00  0.00     0.034 A 
HETATM   14  C   UNL     1      41.515 -16.842   5.963  1.00  0.00     0.032 A 
HETATM   15  C   UNL     1      42.050 -17.308   7.166  1.00  0.00     0.039 A 
HETATM   16  C   UNL     1      43.216 -16.746   7.681  1.00  0.00     0.068 A 
HETATM   17  C   UNL     1      43.808 -15.670   7.020  1.00  0.00     0.039 A 
HETATM   18  C   UNL     1      43.254 -15.182   5.828  1.00  0.00     0.032 A 
BRANCH  16  19
HETATM   19  O   UNL     1      43.670 -17.303   8.844  1.00  0.00    -0.356 OA
HETATM   20  C   UNL     1      44.254 -18.595   8.706  1.00  0.00     0.210 C 
ENDBRANCH  16  19
ENDBRANCH  10  13
ENDBRANCH   8   9
ENDBRANCH   7   8
BRANCH   1  21
HETATM   21  C   UNL     1      41.766 -16.985   0.939  1.00  0.00     0.133 C 
BRANCH  21  22
HETATM   22  C   UNL     1      43.251 -17.347   0.864  1.00  0.00     0.058 C 
BRANCH  22  23
HETATM   23  C   UNL     1      43.649 -18.309   1.956  1.00  0.00    -0.057 A 
HETATM   24  C   UNL     1      43.740 -19.684   1.704  1.00  0.00     0.010 A 
HETATM   25  C   UNL     1      44.095 -20.576   2.725  1.00  0.00     0.037 A 
HETATM   26  C   UNL     1      44.364 -20.103   4.008  1.00  0.00     0.068 A 
HETATM   27  C   UNL     1      44.266 -18.734   4.263  1.00  0.00     0.037 A 
HETATM   28  C   UNL     1      43.912 -17.842   3.247  1.00  0.00     0.010 A 
BRANCH  26  29
HETATM   29  O   UNL     1      44.722 -20.861   5.089  1.00  0.00    -0.356 OA
HETATM   30  C   UNL     1      44.898 -22.254   4.869  1.00  0.00     0.210 C 
ENDBRANCH  26  29
ENDBRANCH  22  23
ENDBRANCH  21  22
ENDBRANCH   1  21
BRANCH   4  31
HETATM   31  C   UNL     1      41.185 -13.118  -2.079  1.00  0.00     0.047 A 
HETATM   32  C   UNL     1      39.893 -12.694  -2.422  1.00  0.00     0.033 A 
HETATM   33  C   UNL     1      39.665 -11.856  -3.525  1.00  0.00     0.039 A 
HETATM   34  C   UNL     1      40.720 -11.400  -4.308  1.00  0.00     0.068 A 
HETATM   35  C   UNL     1      42.005 -11.826  -4.004  1.00  0.00     0.039 A 
HETATM   36  C   UNL     1      42.231 -12.670  -2.905  1.00  0.00     0.033 A 
BRANCH  34  37
HETATM   37  O   UNL     1      40.372 -10.563  -5.329  1.00  0.00    -0.356 OA
HETATM   38  C   UNL     1      41.436  -9.861  -5.961  1.00  0.00     0.210 C 
ENDBRANCH  34  37
ENDBRANCH   4  31
TORSDOF 10
ENDMDL
MODEL 2
REMARK VINA RESULT:      -8.6      1.372      3.998
REMARK  10 active torsions:
REMARK  status: ('A' for Active; 'I' for Inactive)
REMARK    1  A    between atoms: O_2  and  C_3 
REMARK    2  A    between atoms: C_6  and  C_7 
REMARK    3  A    between atoms: C_7  and  C_8 
REMARK    4  A    between atoms: C_8  and  N_9 
REMARK    5  A    between atoms: N_12  and  C_13 
REMARK    6  A    between atoms: C_16  and  O_17 
REMARK    7  A    between atoms: C_23  and  C_24 
REMARK    8  A    between atoms: C_24  and  C_25 
REMARK       I    between atoms: C_25  and  N_26 
REMARK    9  A    between atoms: N_26  and  C_27 
REMARK   10  A    between atoms: C_30  and  O_31 
ROOT
HETATM    1  N   UNL     1      41.806 -14.040   1.154  1.00  0.00    -0.319 N 
HETATM    2  C   UNL     1      42.010 -12.886   0.387  1.00  0.00     0.332 C 
HETATM    3  O   UNL     1      42.698 -11.952   0.774  1.00  0.00    -0.246 OA
HETATM    4  N   UNL     1      41.264 -12.989  -0.769  1.00  0.00    -0.232 N 
HETATM    5  C   UNL     1      40.409 -14.053  -0.633  1.00  0.00     0.256 C 
HETATM    6  O   UNL     1      39.447 -14.373  -1.327  1.00  0.00    -0.270 OA
HETATM    7  C   UNL     1      40.851 -14.934   0.530  1.00  0.00     0.190 C 
ENDROOT
BRANCH   7   8
HETATM    8  C   UNL     1      41.512 -16.174  -0.070  1.00  0.00     0.138 C 
BRANCH   8   9
HETATM    9  C   UNL     1      41.713 -17.326   0.903  1.00  0.00     0.224 C 
HETATM   10  N   UNL     1      43.016 -17.758   1.037  1.00  0.00    -0.327 N 
HETATM   11  H   UNL     1      43.705 -17.455   0.350  1.00  0.00     0.169 HD
HETATM   12  O   UNL     1      40.752 -17.752   1.540  1.00  0.00    -0.273 OA
BRANCH  10  13
HETATM   13  C   UNL     1      43.542 -18.598   2.039  1.00  0.00     0.034 A 
HETATM   14  C   UNL     1      43.765 -18.024   3.295  1.00  0.00     0.032 A 
HETATM   15  C   UNL     1      44.223 -18.804   4.359  1.00  0.00     0.039 A 
HETATM   16  C   UNL     1      44.419 -20.173   4.195  1.00  0.00     0.068 A 
HETATM   17  C   UNL     1      44.217 -20.748   2.940  1.00  0.00     0.039 A 
HETATM   18  C   UNL     1      43.786 -19.961   1.863  1.00  0.00     0.032 A 
BRANCH  16  19
HETATM   19  O   UNL     1      44.833 -20.844   5.311  1.00  0.00    -0.356 OA
HETATM   20  C   UNL     1      45.103 -22.229   5.117  1.00  0.00     0.210 C 
ENDBRANCH  16  19
ENDBRANCH  10  13
ENDBRANCH   8   9
ENDBRANCH   7   8
BRANCH   1  21
HETATM   21  C   UNL     1      42.080 -14.039   2.590  1.00  0.00     0.133 C 
BRANCH  21  22
HETATM   22  C   UNL     1      41.029 -14.742   3.452  1.00  0.00     0.058 C 
BRANCH  22  23
HETATM   23  C   UNL     1      41.634 -15.334   4.701  1.00  0.00    -0.057 A 
HETATM   24  C   UNL     1      42.881 -14.902   5.170  1.00  0.00     0.010 A 
HETATM   25  C   UNL     1      43.446 -15.465   6.321  1.00  0.00     0.037 A 
HETATM   26  C   UNL     1      42.770 -16.466   7.018  1.00  0.00     0.068 A 
HETATM   27  C   UNL     1      41.530 -16.902   6.548  1.00  0.00     0.037 A 
HETATM   28  C   UNL     1      40.964 -16.342   5.399  1.00  0.00     0.010 A 
BRANCH  26  29
HETATM   29  O   UNL     1      43.204 -17.094   8.152  1.00  0.00    -0.356 OA
HETATM   30  C   UNL     1      43.965 -18.282   7.979  1.00  0.00     0.210 C 
ENDBRANCH  26  29
ENDBRANCH  22  23
ENDBRANCH  21  22
ENDBRANCH   1  21
BRANCH   4  31
HETATM   31  C   UNL     1      41.320 -12.108  -1.893  1.00  0.00     0.047 A 
HETATM   32  C   UNL     1      40.544 -10.943  -1.964  1.00  0.00     0.033 A 
HETATM   33  C   UNL     1      40.670 -10.042  -3.034  1.00  0.00     0.039 A 
HETATM   34  C   UNL     1      41.588 -10.267  -4.054  1.00  0.00     0.068 A 
HETATM   35  C   UNL     1      42.350 -11.426  -4.020  1.00  0.00     0.039 A 
HETATM   36  C   UNL     1      42.217 -12.330  -2.953  1.00  0.00     0.033 A 
BRANCH  34  37
HETATM   37  O   UNL     1      41.641  -9.300  -5.017  1.00  0.00    -0.356 OA
HETATM   38  C   UNL     1      41.658  -9.752  -6.366  1.00  0.00     0.210 C 
ENDBRANCH  34  37
ENDBRANCH   4  31
TORSDOF 10
ENDMDL
MODEL 3
REMARK VINA RESULT:      -8.2      2.156      8.342
REMARK  10 active torsions:
REMARK  status: ('A' for Active; 'I' for Inactive)
REMARK    1  A    between atoms: O_2  and  C_3 
REMARK    2  A    between atoms: C_6  and  C_7 
REMARK    3  A    between atoms: C_7  and  C_8 
REMARK    4  A    between atoms: C_8  and  N_9 
REMARK    5  A    between atoms: N_12  and  C_13 
REMARK    6  A    between atoms: C_16  and  O_17 
REMARK    7  A    between atoms: C_23  and  C_24 
REMARK    8  A    between atoms: C_24  and  C_25 
REMARK       I    between atoms: C_25  and  N_26 
REMARK    9  A    between atoms: N_26  and  C_27 
REMARK   10  A    between atoms: C_30  and  O_31 
ROOT
HETATM    1  N   UNL     1      40.706 -12.654   3.223  1.00  0.00    -0.319 N 
HETATM    2  C   UNL     1      40.765 -13.282   4.474  1.00  0.00     0.332 C 
HETATM    3  O   UNL     1      39.871 -13.183   5.301  1.00  0.00    -0.246 OA
HETATM    4  N   UNL     1      41.985 -13.917   4.589  1.00  0.00    -0.232 N 
HETATM    5  C   UNL     1      42.785 -13.497   3.557  1.00  0.00     0.256 C 
HETATM    6  O   UNL     1      43.993 -13.652   3.395  1.00  0.00    -0.270 OA
HETATM    7  C   UNL     1      41.942 -12.819   2.484  1.00  0.00     0.190 C 
ENDROOT
BRANCH   7   8
HETATM    8  C   UNL     1      41.807 -13.806   1.326  1.00  0.00     0.138 C 
BRANCH   8   9
HETATM    9  C   UNL     1      41.782 -15.271   1.734  1.00  0.00     0.224 C 
HETATM   10  N   UNL     1      42.994 -15.923   1.651  1.00  0.00    -0.327 N 
HETATM   11  H   UNL     1      43.754 -15.481   1.134  1.00  0.00     0.169 HD
HETATM   12  O   UNL     1      40.737 -15.760   2.160  1.00  0.00    -0.273 OA
BRANCH  10  13
HETATM   13  C   UNL     1      43.336 -17.172   2.207  1.00  0.00     0.034 A 
HETATM   14  C   UNL     1      43.453 -18.250   1.322  1.00  0.00     0.032 A 
HETATM   15  C   UNL     1      43.853 -19.506   1.784  1.00  0.00     0.039 A 
HETATM   16  C   UNL     1      44.184 -19.690   3.125  1.00  0.00     0.068 A 
HETATM   17  C   UNL     1      44.050 -18.624   4.015  1.00  0.00     0.039 A 
HETATM   18  C   UNL     1      43.619 -17.371   3.559  1.00  0.00     0.032 A 
BRANCH  16  19
HETATM   19  O   UNL     1      44.596 -20.949   3.459  1.00  0.00    -0.356 OA
HETATM   20  C   UNL     1      44.246 -21.966   2.525  1.00  0.00     0.210 C 
ENDBRANCH  16  19
ENDBRANCH  10  13
ENDBRANCH   8   9
ENDBRANCH   7   8
BRANCH   1  21
HETATM   21  C   UNL     1      39.772 -11.555   2.983  1.00  0.00     0.133 C 
BRANCH  21  22
HETATM   22  C   UNL     1      38.428 -11.966   2.378  1.00  0.00     0.058 C 
BRANCH  22  23
HETATM   23  C   UNL     1      38.563 -12.354   0.926  1.00  0.00    -0.057 A 
HETATM   24  C   UNL     1      38.078 -13.584   0.463  1.00  0.00     0.010 A 
HETATM   25  C   UNL     1      38.219 -13.946  -0.883  1.00  0.00     0.037 A 
HETATM   26  C   UNL     1      38.844 -13.082  -1.781  1.00  0.00     0.068 A 
HETATM   27  C   UNL     1      39.334 -11.859  -1.320  1.00  0.00     0.037 A 
HETATM   28  C   UNL     1      39.196 -11.495   0.023  1.00  0.00     0.010 A 
BRANCH  26  29
HETATM   29  O   UNL     1      39.042 -13.310  -3.115  1.00  0.00    -0.356 OA
HETATM   30  C   UNL     1      39.410 -14.629  -3.496  1.00  0.00     0.210 C 
ENDBRANCH  26  29
ENDBRANCH  22  23
ENDBRANCH  21  22
ENDBRANCH   1  21
BRANCH   4  31
HETATM   31  C   UNL     1      42.378 -14.809   5.634  1.00  0.00     0.047 A 
HETATM   32  C   UNL     1      41.629 -15.947   5.963  1.00  0.00     0.033 A 
HETATM   33  C   UNL     1      42.070 -16.861   6.932  1.00  0.00     0.039 A 
HETATM   34  C   UNL     1      43.282 -16.678   7.589  1.00  0.00     0.068 A 
HETATM   35  C   UNL     1      44.031 -15.545   7.300  1.00  0.00     0.039 A 
HETATM   36  C   UNL     1      43.584 -14.628   6.335  1.00  0.00     0.033 A 
BRANCH  34  37
HETATM   37  O   UNL     1      43.618 -17.654   8.483  1.00  0.00    -0.356 OA
HETATM   38  C   UNL     1      44.086 -18.880   7.935  1.00  0.00     0.210 C 
ENDBRANCH  34  37
ENDBRANCH   4  31
TORSDOF 10
ENDMDL
MODEL 4
REMARK VINA RESULT:      -8.1      3.491      4.367
REMARK  10 active torsions:
REMARK  status: ('A' for Active; 'I' for Inactive)
REMARK    1  A    between atoms: O_2  and  C_3 
REMARK    2  A    between atoms: C_6  and  C_7 
REMARK    3  A    between atoms: C_7  and  C_8 
REMARK    4  A    between atoms: C_8  and  N_9 
REMARK    5  A    between atoms: N_12  and  C_13 
REMARK    6  A    between atoms: C_16  and  O_17 
REMARK    7  A    between atoms: C_23  and  C_24 
REMARK    8  A    between atoms: C_24  and  C_25 
REMARK       I    between atoms: C_25  and  N_26 
REMARK    9  A    between atoms: N_26  and  C_27 
REMARK   10  A    between atoms: C_30  and  O_31 
ROOT
HETATM    1  N   UNL     1      41.361 -14.981   3.358  1.00  0.00    -0.319 N 
HETATM    2  C   UNL     1      40.769 -15.418   2.166  1.00  0.00     0.332 C 
HETATM    3  O   UNL     1      40.240 -16.515   2.058  1.00  0.00    -0.246 OA
HETATM    4  N   UNL     1      40.965 -14.453   1.199  1.00  0.00    -0.232 N 
HETATM    5  C   UNL     1      41.874 -13.545   1.680  1.00  0.00     0.256 C 
HETATM    6  O   UNL     1      42.476 -12.656   1.083  1.00  0.00    -0.270 OA
HETATM    7  C   UNL     1      42.029 -13.706   3.187  1.00  0.00     0.190 C 
ENDROOT
BRANCH   7   8
HETATM    8  C   UNL     1      41.271 -12.554   3.843  1.00  0.00     0.138 C 
BRANCH   8   9
HETATM    9  C   UNL     1      41.625 -12.304   5.302  1.00  0.00     0.224 C 
HETATM   10  N   UNL     1      40.849 -11.358   5.939  1.00  0.00    -0.327 N 
HETATM   11  H   UNL     1      40.260 -10.746   5.373  1.00  0.00     0.169 HD
HETATM   12  O   UNL     1      42.507 -12.976   5.832  1.00  0.00    -0.273 OA
BRANCH  10  13
HETATM   13  C   UNL     1      40.756 -11.116   7.324  1.00  0.00     0.034 A 
HETATM   14  C   UNL     1      41.847 -10.484   7.931  1.00  0.00     0.032 A 
HETATM   15  C   UNL     1      41.808 -10.149   9.286  1.00  0.00     0.039 A 
HETATM   16  C   UNL     1      40.663 -10.399  10.040  1.00  0.00     0.068 A 
HETATM   17  C   UNL     1      39.580 -11.046   9.445  1.00  0.00     0.039 A 
HETATM   18  C   UNL     1      39.630 -11.411   8.092  1.00  0.00     0.032 A 
BRANCH  16  19
HETATM   19  O   UNL     1      40.722  -9.998  11.345  1.00  0.00    -0.356 OA
HETATM   20  C   UNL     1      40.416 -11.009  12.301  1.00  0.00     0.210 C 
ENDBRANCH  16  19
ENDBRANCH  10  13
ENDBRANCH   8   9
ENDBRANCH   7   8
BRANCH   1  21
HETATM   21  C   UNL     1      41.717 -15.936   4.407  1.00  0.00     0.133 C 
BRANCH  21  22
HETATM   22  C   UNL     1      43.216 -16.205   4.558  1.00  0.00     0.058 C 
BRANCH  22  23
HETATM   23  C   UNL     1      43.592 -17.578   4.055  1.00  0.00    -0.057 A 
HETATM   24  C   UNL     1      43.378 -17.936   2.718  1.00  0.00     0.010 A 
HETATM   25  C   UNL     1      43.715 -19.216   2.259  1.00  0.00     0.037 A 
HETATM   26  C   UNL     1      44.269 -20.152   3.132  1.00  0.00     0.068 A 
HETATM   27  C   UNL     1      44.476 -19.798   4.466  1.00  0.00     0.037 A 
HETATM   28  C   UNL     1      44.141 -18.522   4.927  1.00  0.00     0.010 A 
BRANCH  26  29
HETATM   29  O   UNL     1      44.645 -21.428   2.814  1.00  0.00    -0.356 OA
HETATM   30  C   UNL     1      44.206 -21.936   1.561  1.00  0.00     0.210 C 
ENDBRANCH  26  29
ENDBRANCH  22  23
ENDBRANCH  21  22
ENDBRANCH   1  21
BRANCH   4  31
HETATM   31  C   UNL     1      40.377 -14.429  -0.103  1.00  0.00     0.047 A 
HETATM   32  C   UNL     1      41.008 -15.002  -1.216  1.00  0.00     0.033 A 
HETATM   33  C   UNL     1      40.382 -15.047  -2.471  1.00  0.00     0.039 A 
HETATM   34  C   UNL     1      39.100 -14.540  -2.651  1.00  0.00     0.068 A 
HETATM   35  C   UNL     1      38.463 -13.945  -1.571  1.00  0.00     0.039 A 
HETATM   36  C   UNL     1      39.094 -13.893  -0.317  1.00  0.00     0.033 A 
BRANCH  34  37
HETATM   37  O   UNL     1      38.587 -14.676  -3.909  1.00  0.00    -0.356 OA
HETATM   38  C   UNL     1      37.172 -14.792  -4.006  1.00  0.00     0.210 C 
ENDBRANCH  34  37
ENDBRANCH   4  31
TORSDOF 10
ENDMDL
MODEL 5
REMARK VINA RESULT:      -7.9      5.042      9.095
REMARK  10 active torsions:
REMARK  status: ('A' for Active; 'I' for Inactive)
REMARK    1  A    between atoms: O_2  and  C_3 
REMARK    2  A    between atoms: C_6  and  C_7 
REMARK    3  A    between atoms: C_7  and  C_8 
REMARK    4  A    between atoms: C_8  and  N_9 
REMARK    5  A    between atoms: N_12  and  C_13 
REMARK    6  A    between atoms: C_16  and  O_17 
REMARK    7  A    between atoms: C_23  and  C_24 
REMARK    8  A    between atoms: C_24  and  C_25 
REMARK       I    between atoms: C_25  and  N_26 
REMARK    9  A    between atoms: N_26  and  C_27 
REMARK   10  A    between atoms: C_30  and  O_31 
ROOT
HETATM    1  N   UNL     1      43.520 -15.084   6.610  1.00  0.00    -0.319 N 
HETATM    2  C   UNL     1      43.825 -16.381   6.178  1.00  0.00     0.332 C 
HETATM    3  O   UNL     1      44.347 -17.211   6.908  1.00  0.00    -0.246 OA
HETATM    4  N   UNL     1      43.506 -16.485   4.840  1.00  0.00    -0.232 N 
HETATM    5  C   UNL     1      43.248 -15.225   4.363  1.00  0.00     0.256 C 
HETATM    6  O   UNL     1      43.126 -14.842   3.202  1.00  0.00    -0.270 OA
HETATM    7  C   UNL     1      43.030 -14.261   5.522  1.00  0.00     0.190 C 
ENDROOT
BRANCH   7   8
HETATM    8  C   UNL     1      41.527 -14.000   5.614  1.00  0.00     0.138 C 
BRANCH   8   9
HETATM    9  C   UNL     1      41.146 -12.560   5.924  1.00  0.00     0.224 C 
HETATM   10  N   UNL     1      40.056 -12.409   6.754  1.00  0.00    -0.327 N 
HETATM   11  H   UNL     1      39.456 -13.216   6.927  1.00  0.00     0.169 HD
HETATM   12  O   UNL     1      41.839 -11.645   5.485  1.00  0.00    -0.273 OA
BRANCH  10  13
HETATM   13  C   UNL     1      39.643 -11.240   7.424  1.00  0.00     0.034 A 
HETATM   14  C   UNL     1      39.456 -11.333   8.808  1.00  0.00     0.032 A 
HETATM   15  C   UNL     1      39.112 -10.205   9.554  1.00  0.00     0.039 A 
HETATM   16  C   UNL     1      38.994  -8.962   8.937  1.00  0.00     0.068 A 
HETATM   17  C   UNL     1      39.160  -8.865   7.555  1.00  0.00     0.039 A 
HETATM   18  C   UNL     1      39.476 -10.003   6.800  1.00  0.00     0.032 A 
BRANCH  16  19
HETATM   19  O   UNL     1      38.689  -7.921   9.769  1.00  0.00    -0.356 OA
HETATM   20  C   UNL     1      39.068  -8.105  11.129  1.00  0.00     0.210 C 
ENDBRANCH  16  19
ENDBRANCH  10  13
ENDBRANCH   8   9
ENDBRANCH   7   8
BRANCH   1  21
HETATM   21  C   UNL     1      44.143 -14.532   7.812  1.00  0.00     0.133 C 
BRANCH  21  22
HETATM   22  C   UNL     1      44.902 -13.220   7.606  1.00  0.00     0.058 C 
BRANCH  22  23
HETATM   23  C   UNL     1      44.592 -12.217   8.691  1.00  0.00    -0.057 A 
HETATM   24  C   UNL     1      45.500 -11.982   9.731  1.00  0.00     0.010 A 
HETATM   25  C   UNL     1      45.201 -11.061  10.745  1.00  0.00     0.037 A 
HETATM   26  C   UNL     1      43.993 -10.366  10.729  1.00  0.00     0.068 A 
HETATM   27  C   UNL     1      43.084 -10.606   9.697  1.00  0.00     0.037 A 
HETATM   28  C   UNL     1      43.379 -11.524   8.684  1.00  0.00     0.010 A 
BRANCH  26  29
HETATM   29  O   UNL     1      43.581  -9.443  11.649  1.00  0.00    -0.356 OA
HETATM   30  C   UNL     1      43.295  -9.920  12.957  1.00  0.00     0.210 C 
ENDBRANCH  26  29
ENDBRANCH  22  23
ENDBRANCH  21  22
ENDBRANCH   1  21
BRANCH   4  31
HETATM   31  C   UNL     1      43.504 -17.683   4.061  1.00  0.00     0.047 A 
HETATM   32  C   UNL     1      42.646 -17.859   2.967  1.00  0.00     0.033 A 
HETATM   33  C   UNL     1      42.713 -19.005   2.159  1.00  0.00     0.039 A 
HETATM   34  C   UNL     1      43.652 -20.001   2.406  1.00  0.00     0.068 A 
HETATM   35  C   UNL     1      44.497 -19.863   3.498  1.00  0.00     0.039 A 
HETATM   36  C   UNL     1      44.423 -18.719   4.310  1.00  0.00     0.033 A 
BRANCH  34  37
HETATM   37  O   UNL     1      43.641 -21.047   1.528  1.00  0.00    -0.356 OA
HETATM   38  C   UNL     1      44.442 -22.171   1.873  1.00  0.00     0.210 C 
ENDBRANCH  34  37
ENDBRANCH   4  31
TORSDOF 10
ENDMDL
MODEL 6
REMARK VINA RESULT:      -7.9      1.654      4.145
REMARK  10 active torsions:
REMARK  status: ('A' for Active; 'I' for Inactive)
REMARK    1  A    between atoms: O_2  and  C_3 
REMARK    2  A    between atoms: C_6  and  C_7 
REMARK    3  A    between atoms: C_7  and  C_8 
REMARK    4  A    between atoms: C_8  and  N_9 
REMARK    5  A    between atoms: N_12  and  C_13 
REMARK    6  A    between atoms: C_16  and  O_17 
REMARK    7  A    between atoms: C_23  and  C_24 
REMARK    8  A    between atoms: C_24  and  C_25 
REMARK       I    between atoms: C_25  and  N_26 
REMARK    9  A    between atoms: N_26  and  C_27 
REMARK   10  A    between atoms: C_30  and  O_31 
ROOT
HETATM    1  N   UNL     1      40.613 -13.611   0.899  1.00  0.00    -0.319 N 
HETATM    2  C   UNL     1      40.544 -12.588  -0.055  1.00  0.00     0.332 C 
HETATM    3  O   UNL     1      40.344 -11.420   0.247  1.00  0.00    -0.246 OA
HETATM    4  N   UNL     1      40.662 -13.148  -1.310  1.00  0.00    -0.232 N 
HETATM    5  C   UNL     1      40.551 -14.510  -1.182  1.00  0.00     0.256 C 
HETATM    6  O   UNL     1      40.399 -15.364  -2.052  1.00  0.00    -0.270 OA
HETATM    7  C   UNL     1      40.727 -14.915   0.276  1.00  0.00     0.190 C 
ENDROOT
BRANCH   7   8
HETATM    8  C   UNL     1      42.127 -15.511   0.412  1.00  0.00     0.138 C 
BRANCH   8   9
HETATM    9  C   UNL     1      42.187 -16.843   1.144  1.00  0.00     0.224 C 
HETATM   10  N   UNL     1      43.438 -17.206   1.597  1.00  0.00    -0.327 N 
HETATM   11  H   UNL     1      44.252 -16.704   1.243  1.00  0.00     0.169 HD
HETATM   12  O   UNL     1      41.149 -17.471   1.340  1.00  0.00    -0.273 OA
BRANCH  10  13
HETATM   13  C   UNL     1      43.754 -18.221   2.523  1.00  0.00     0.034 A 
HETATM   14  C   UNL     1      44.012 -19.495   2.005  1.00  0.00     0.032 A 
HETATM   15  C   UNL     1      44.396 -20.539   2.848  1.00  0.00     0.039 A 
HETATM   16  C   UNL     1      44.572 -20.313   4.212  1.00  0.00     0.068 A 
HETATM   17  C   UNL     1      44.298 -19.050   4.738  1.00  0.00     0.039 A 
HETATM   18  C   UNL     1      43.883 -18.009   3.896  1.00  0.00     0.032 A 
BRANCH  16  19
HETATM   19  O   UNL     1      44.984 -21.396   4.937  1.00  0.00    -0.356 OA
HETATM   20  C   UNL     1      44.272 -21.615   6.151  1.00  0.00     0.210 C 
ENDBRANCH  16  19
ENDBRANCH  10  13
ENDBRANCH   8   9
ENDBRANCH   7   8
BRANCH   1  21
HETATM   21  C   UNL     1      40.080 -13.413   2.246  1.00  0.00     0.133 C 
BRANCH  21  22
HETATM   22  C   UNL     1      39.856 -14.694   3.051  1.00  0.00     0.058 C 
BRANCH  22  23
HETATM   23  C   UNL     1      40.921 -14.889   4.102  1.00  0.00    -0.057 A 
HETATM   24  C   UNL     1      40.732 -15.791   5.157  1.00  0.00     0.010 A 
HETATM   25  C   UNL     1      41.717 -15.958   6.139  1.00  0.00     0.037 A 
HETATM   26  C   UNL     1      42.902 -15.226   6.076  1.00  0.00     0.068 A 
HETATM   27  C   UNL     1      43.089 -14.322   5.029  1.00  0.00     0.037 A 
HETATM   28  C   UNL     1      42.108 -14.153   4.048  1.00  0.00     0.010 A 
BRANCH  26  29
HETATM   29  O   UNL     1      43.941 -15.296   6.963  1.00  0.00    -0.356 OA
HETATM   30  C   UNL     1      44.876 -14.224   6.946  1.00  0.00     0.210 C 
ENDBRANCH  26  29
ENDBRANCH  22  23
ENDBRANCH  21  22
ENDBRANCH   1  21
BRANCH   4  31
HETATM   31  C   UNL     1      40.811 -12.440  -2.542  1.00  0.00     0.047 A 
HETATM   32  C   UNL     1      39.714 -11.894  -3.224  1.00  0.00     0.033 A 
HETATM   33  C   UNL     1      39.883 -11.128  -4.388  1.00  0.00     0.039 A 
HETATM   34  C   UNL     1      41.151 -10.866  -4.896  1.00  0.00     0.068 A 
HETATM   35  C   UNL     1      42.251 -11.416  -4.254  1.00  0.00     0.039 A 
HETATM   36  C   UNL     1      42.080 -12.190  -3.094  1.00  0.00     0.033 A 
BRANCH  34  37
HETATM   37  O   UNL     1      41.184 -10.079  -6.012  1.00  0.00    -0.356 OA
HETATM   38  C   UNL     1      41.751  -8.784  -5.855  1.00  0.00     0.210 C 
ENDBRANCH  34  37
ENDBRANCH   4  31
TORSDOF 10
ENDMDL
MODEL 7
REMARK VINA RESULT:      -7.7      2.673      5.071
REMARK  10 active torsions:
REMARK  status: ('A' for Active; 'I' for Inactive)
REMARK    1  A    between atoms: O_2  and  C_3 
REMARK    2  A    between atoms: C_6  and  C_7 
REMARK    3  A    between atoms: C_7  and  C_8 
REMARK    4  A    between atoms: C_8  and  N_9 
REMARK    5  A    between atoms: N_12  and  C_13 
REMARK    6  A    between atoms: C_16  and  O_17 
REMARK    7  A    between atoms: C_23  and  C_24 
REMARK    8  A    between atoms: C_24  and  C_25 
REMARK       I    between atoms: C_25  and  N_26 
REMARK    9  A    between atoms: N_26  and  C_27 
REMARK   10  A    between atoms: C_30  and  O_31 
ROOT
HETATM    1  N   UNL     1      40.205 -13.012   3.338  1.00  0.00    -0.319 N 
HETATM    2  C   UNL     1      39.456 -12.009   2.710  1.00  0.00     0.332 C 
HETATM    3  O   UNL     1      39.463 -10.848   3.091  1.00  0.00    -0.246 OA
HETATM    4  N   UNL     1      38.710 -12.585   1.702  1.00  0.00    -0.232 N 
HETATM    5  C   UNL     1      38.779 -13.947   1.844  1.00  0.00     0.256 C 
HETATM    6  O   UNL     1      38.112 -14.822   1.296  1.00  0.00    -0.270 OA
HETATM    7  C   UNL     1      39.923 -14.320   2.780  1.00  0.00     0.190 C 
ENDROOT
BRANCH   7   8
HETATM    8  C   UNL     1      41.063 -14.846   1.910  1.00  0.00     0.138 C 
BRANCH   8   9
HETATM    9  C   UNL     1      41.389 -16.319   2.106  1.00  0.00     0.224 C 
HETATM   10  N   UNL     1      42.734 -16.624   2.116  1.00  0.00    -0.327 N 
HETATM   11  H   UNL     1      43.398 -15.924   1.785  1.00  0.00     0.169 HD
HETATM   12  O   UNL     1      40.475 -17.118   2.299  1.00  0.00    -0.273 OA
BRANCH  10  13
HETATM   13  C   UNL     1      43.337 -17.825   2.541  1.00  0.00     0.034 A 
HETATM   14  C   UNL     1      43.754 -17.888   3.875  1.00  0.00     0.032 A 
HETATM   15  C   UNL     1      44.301 -19.064   4.392  1.00  0.00     0.039 A 
HETATM   16  C   UNL     1      44.397 -20.204   3.597  1.00  0.00     0.068 A 
HETATM   17  C   UNL     1      44.001 -20.142   2.261  1.00  0.00     0.039 A 
HETATM   18  C   UNL     1      43.480 -18.953   1.733  1.00  0.00     0.032 A 
BRANCH  16  19
HETATM   19  O   UNL     1      44.914 -21.308   4.216  1.00  0.00    -0.356 OA
HETATM   20  C   UNL     1      44.589 -22.551   3.601  1.00  0.00     0.210 C 
ENDBRANCH  16  19
ENDBRANCH  10  13
ENDBRANCH   8   9
ENDBRANCH   7   8
BRANCH   1  21
HETATM   21  C   UNL     1      40.728 -12.816   4.690  1.00  0.00     0.133 C 
BRANCH  21  22
HETATM   22  C   UNL     1      42.199 -13.195   4.877  1.00  0.00     0.058 C 
BRANCH  22  23
HETATM   23  C   UNL     1      42.352 -14.480   5.653  1.00  0.00    -0.057 A 
HETATM   24  C   UNL     1      41.282 -15.375   5.779  1.00  0.00     0.010 A 
HETATM   25  C   UNL     1      41.423 -16.560   6.513  1.00  0.00     0.037 A 
HETATM   26  C   UNL     1      42.638 -16.864   7.127  1.00  0.00     0.068 A 
HETATM   27  C   UNL     1      43.703 -15.970   7.008  1.00  0.00     0.037 A 
HETATM   28  C   UNL     1      43.564 -14.786   6.277  1.00  0.00     0.010 A 
BRANCH  26  29
HETATM   29  O   UNL     1      42.910 -17.982   7.865  1.00  0.00    -0.356 OA
HETATM   30  C   UNL     1      44.279 -18.331   8.025  1.00  0.00     0.210 C 
ENDBRANCH  26  29
ENDBRANCH  22  23
ENDBRANCH  21  22
ENDBRANCH   1  21
BRANCH   4  31
HETATM   31  C   UNL     1      37.943 -11.891   0.716  1.00  0.00     0.047 A 
HETATM   32  C   UNL     1      38.505 -11.455  -0.493  1.00  0.00     0.033 A 
HETATM   33  C   UNL     1      37.722 -10.851  -1.489  1.00  0.00     0.039 A 
HETATM   34  C   UNL     1      36.352 -10.681  -1.319  1.00  0.00     0.068 A 
HETATM   35  C   UNL     1      35.777 -11.081  -0.121  1.00  0.00     0.039 A 
HETATM   36  C   UNL     1      36.563 -11.678   0.878  1.00  0.00     0.033 A 
BRANCH  34  37
HETATM   37  O   UNL     1      35.696 -10.115  -2.374  1.00  0.00    -0.356 OA
HETATM   38  C   UNL     1      34.295 -10.348  -2.447  1.00  0.00     0.210 C 
ENDBRANCH  34  37
ENDBRANCH   4  31
TORSDOF 10
ENDMDL
MODEL 8
REMARK VINA RESULT:      -7.5      1.760      4.294
REMARK  10 active torsions:
REMARK  status: ('A' for Active; 'I' for Inactive)
REMARK    1  A    between atoms: O_2  and  C_3 
REMARK    2  A    between atoms: C_6  and  C_7 
REMARK    3  A    between atoms: C_7  and  C_8 
REMARK    4  A    between atoms: C_8  and  N_9 
REMARK    5  A    between atoms: N_12  and  C_13 
REMARK    6  A    between atoms: C_16  and  O_17 
REMARK    7  A    between atoms: C_23  and  C_24 
REMARK    8  A    between atoms: C_24  and  C_25 
REMARK       I    between atoms: C_25  and  N_26 
REMARK    9  A    between atoms: N_26  and  C_27 
REMARK   10  A    between atoms: C_30  and  O_31 
ROOT
HETATM    1  N   UNL     1      39.981 -14.161   1.866  1.00  0.00    -0.319 N 
HETATM    2  C   UNL     1      39.338 -13.307   0.962  1.00  0.00     0.332 C 
HETATM    3  O   UNL     1      38.512 -12.477   1.314  1.00  0.00    -0.246 OA
HETATM    4  N   UNL     1      39.747 -13.631  -0.316  1.00  0.00    -0.232 N 
HETATM    5  C   UNL     1      40.429 -14.820  -0.257  1.00  0.00     0.256 C 
HETATM    6  O   UNL     1      40.784 -15.560  -1.171  1.00  0.00    -0.270 OA
HETATM    7  C   UNL     1      40.812 -15.133   1.184  1.00  0.00     0.190 C 
ENDROOT
BRANCH   7   8
HETATM    8  C   UNL     1      42.304 -14.836   1.329  1.00  0.00     0.138 C 
BRANCH   8   9
HETATM    9  C   UNL     1      43.040 -15.726   2.320  1.00  0.00     0.224 C 
HETATM   10  N   UNL     1      42.603 -17.033   2.370  1.00  0.00    -0.327 N 
HETATM   11  H   UNL     1      41.713 -17.269   1.932  1.00  0.00     0.169 HD
HETATM   12  O   UNL     1      43.988 -15.267   2.953  1.00  0.00    -0.273 OA
BRANCH  10  13
HETATM   13  C   UNL     1      43.250 -18.131   2.970  1.00  0.00     0.034 A 
HETATM   14  C   UNL     1      43.667 -19.163   2.122  1.00  0.00     0.032 A 
HETATM   15  C   UNL     1      44.373 -20.256   2.629  1.00  0.00     0.039 A 
HETATM   16  C   UNL     1      44.712 -20.309   3.980  1.00  0.00     0.068 A 
HETATM   17  C   UNL     1      44.283 -19.293   4.834  1.00  0.00     0.039 A 
HETATM   18  C   UNL     1      43.548 -18.211   4.331  1.00  0.00     0.032 A 
BRANCH  16  19
HETATM   19  O   UNL     1      45.434 -21.405   4.360  1.00  0.00    -0.356 OA
HETATM   20  C   UNL     1      44.780 -22.268   5.285  1.00  0.00     0.210 C 
ENDBRANCH  16  19
ENDBRANCH  10  13
ENDBRANCH   8   9
ENDBRANCH   7   8
BRANCH   1  21
HETATM   21  C   UNL     1      39.437 -14.375   3.206  1.00  0.00     0.133 C 
BRANCH  21  22
HETATM   22  C   UNL     1      40.002 -13.456   4.290  1.00  0.00     0.058 C 
BRANCH  22  23
HETATM   23  C   UNL     1      41.061 -14.147   5.115  1.00  0.00    -0.057 A 
HETATM   24  C   UNL     1      42.273 -13.509   5.407  1.00  0.00     0.010 A 
HETATM   25  C   UNL     1      43.260 -14.160   6.160  1.00  0.00     0.037 A 
HETATM   26  C   UNL     1      43.044 -15.455   6.629  1.00  0.00     0.068 A 
HETATM   27  C   UNL     1      41.840 -16.094   6.332  1.00  0.00     0.037 A 
HETATM   28  C   UNL     1      40.854 -15.447   5.581  1.00  0.00     0.010 A 
BRANCH  26  29
HETATM   29  O   UNL     1      43.917 -16.199   7.374  1.00  0.00    -0.356 OA
HETATM   30  C   UNL     1      43.364 -17.245   8.161  1.00  0.00     0.210 C 
ENDBRANCH  26  29
ENDBRANCH  22  23
ENDBRANCH  21  22
ENDBRANCH   1  21
BRANCH   4  31
HETATM   31  C   UNL     1      39.461 -12.897  -1.508  1.00  0.00     0.047 A 
HETATM   32  C   UNL     1      38.255 -13.050  -2.205  1.00  0.00     0.033 A 
HETATM   33  C   UNL     1      37.950 -12.262  -3.326  1.00  0.00     0.039 A 
HETATM   34  C   UNL     1      38.831 -11.282  -3.772  1.00  0.00     0.068 A 
HETATM   35  C   UNL     1      40.043 -11.127  -3.114  1.00  0.00     0.039 A 
HETATM   36  C   UNL     1      40.349 -11.923  -1.999  1.00  0.00     0.033 A 
BRANCH  34  37
HETATM   37  O   UNL     1      38.404 -10.558  -4.849  1.00  0.00    -0.356 OA
HETATM   38  C   UNL     1      37.066 -10.785  -5.274  1.00  0.00     0.210 C 
ENDBRANCH  34  37
ENDBRANCH   4  31
TORSDOF 10
ENDMDL
MODEL 9
REMARK VINA RESULT:      -7.4      3.526      6.989
REMARK  10 active torsions:
REMARK  status: ('A' for Active; 'I' for Inactive)
REMARK    1  A    between atoms: O_2  and  C_3 
REMARK    2  A    between atoms: C_6  and  C_7 
REMARK    3  A    between atoms: C_7  and  C_8 
REMARK    4  A    between atoms: C_8  and  N_9 
REMARK    5  A    between atoms: N_12  and  C_13 
REMARK    6  A    between atoms: C_16  and  O_17 
REMARK    7  A    between atoms: C_23  and  C_24 
REMARK    8  A    between atoms: C_24  and  C_25 
REMARK       I    between atoms: C_25  and  N_26 
REMARK    9  A    between atoms: N_26  and  C_27 
REMARK   10  A    between atoms: C_30  and  O_31 
ROOT
HETATM    1  N   UNL     1      41.374 -11.974   4.690  1.00  0.00    -0.319 N 
HETATM    2  C   UNL     1      41.054 -11.868   3.331  1.00  0.00     0.332 C 
HETATM    3  O   UNL     1      40.974 -10.793   2.755  1.00  0.00    -0.246 OA
HETATM    4  N   UNL     1      40.793 -13.132   2.842  1.00  0.00    -0.232 N 
HETATM    5  C   UNL     1      40.694 -13.990   3.908  1.00  0.00     0.256 C 
HETATM    6  O   UNL     1      40.279 -15.146   3.941  1.00  0.00    -0.270 OA
HETATM    7  C   UNL     1      41.276 -13.342   5.158  1.00  0.00     0.190 C 
ENDROOT
BRANCH   7   8
HETATM    8  C   UNL     1      42.643 -13.979   5.402  1.00  0.00     0.138 C 
BRANCH   8   9
HETATM    9  C   UNL     1      42.638 -15.499   5.462  1.00  0.00     0.224 C 
HETATM   10  N   UNL     1      43.220 -16.130   4.383  1.00  0.00    -0.327 N 
HETATM   11  H   UNL     1      43.410 -15.585   3.542  1.00  0.00     0.169 HD
HETATM   12  O   UNL     1      42.190 -16.061   6.459  1.00  0.00    -0.273 OA
BRANCH  10  13
HETATM   13  C   UNL     1      43.604 -17.482   4.284  1.00  0.00     0.034 A 
HETATM   14  C   UNL     1      43.274 -18.150   3.100  1.00  0.00     0.032 A 
HETATM   15  C   UNL     1      43.675 -19.472   2.896  1.00  0.00     0.039 A 
HETATM   16  C   UNL     1      44.448 -20.127   3.852  1.00  0.00     0.068 A 
HETATM   17  C   UNL     1      44.764 -19.474   5.043  1.00  0.00     0.039 A 
HETATM   18  C   UNL     1      44.336 -18.157   5.262  1.00  0.00     0.032 A 
BRANCH  16  19
HETATM   19  O   UNL     1      44.815 -21.405   3.533  1.00  0.00    -0.356 OA
HETATM   20  C   UNL     1      44.250 -21.912   2.328  1.00  0.00     0.210 C 
ENDBRANCH  16  19
ENDBRANCH  10  13
ENDBRANCH   8   9
ENDBRANCH   7   8
BRANCH   1  21
HETATM   21  C   UNL     1      41.257 -10.816   5.575  1.00  0.00     0.133 C 
BRANCH  21  22
HETATM   22  C   UNL     1      40.096 -10.873   6.569  1.00  0.00     0.058 C 
BRANCH  22  23
HETATM   23  C   UNL     1      40.579 -10.854   7.999  1.00  0.00    -0.057 A 
HETATM   24  C   UNL     1      41.928 -10.624   8.297  1.00  0.00     0.010 A 
HETATM   25  C   UNL     1      42.376 -10.623   9.624  1.00  0.00     0.037 A 
HETATM   26  C   UNL     1      41.480 -10.850  10.668  1.00  0.00     0.068 A 
HETATM   27  C   UNL     1      40.137 -11.086  10.372  1.00  0.00     0.037 A 
HETATM   28  C   UNL     1      39.687 -11.089   9.048  1.00  0.00     0.010 A 
BRANCH  26  29
HETATM   29  O   UNL     1      41.783 -10.871  12.001  1.00  0.00    -0.356 OA
HETATM   30  C   UNL     1      40.787 -11.377  12.881  1.00  0.00     0.210 C 
ENDBRANCH  26  29
ENDBRANCH  22  23
ENDBRANCH  21  22
ENDBRANCH   1  21
BRANCH   4  31
HETATM   31  C   UNL     1      40.594 -13.484   1.471  1.00  0.00     0.047 A 
HETATM   32  C   UNL     1      41.609 -14.062   0.696  1.00  0.00     0.033 A 
HETATM   33  C   UNL     1      41.375 -14.482  -0.623  1.00  0.00     0.039 A 
HETATM   34  C   UNL     1      40.117 -14.357  -1.201  1.00  0.00     0.068 A 
HETATM   35  C   UNL     1      39.101 -13.765  -0.464  1.00  0.00     0.039 A 
HETATM   36  C   UNL     1      39.339 -13.338   0.853  1.00  0.00     0.033 A 
BRANCH  34  37
HETATM   37  O   UNL     1      40.008 -14.835  -2.476  1.00  0.00    -0.356 OA
HETATM   38  C   UNL     1      40.801 -14.188  -3.464  1.00  0.00     0.210 C 
ENDBRANCH  34  37
ENDBRANCH   4  31
TORSDOF 10
ENDMDL
MODEL 10
REMARK VINA RESULT:      -7.4      3.337      9.885
REMARK  10 active torsions:
REMARK  status: ('A' for Active; 'I' for Inactive)
REMARK    1  A    between atoms: O_2  and  C_3 
REMARK    2  A    between atoms: C_6  and  C_7 
REMARK    3  A    between atoms: C_7  and  C_8 
REMARK    4  A    between atoms: C_8  and  N_9 
REMARK    5  A    between atoms: N_12  and  C_13 
REMARK    6  A    between atoms: C_16  and  O_17 
REMARK    7  A    between atoms: C_23  and  C_24 
REMARK    8  A    between atoms: C_24  and  C_25 
REMARK       I    between atoms: C_25  and  N_26 
REMARK    9  A    between atoms: N_26  and  C_27 
REMARK   10  A    between atoms: C_30  and  O_31 
ROOT
HETATM    1  N   UNL     1      42.472 -14.332   5.278  1.00  0.00    -0.319 N 
HETATM    2  C   UNL     1      43.159 -15.407   5.857  1.00  0.00     0.332 C 
HETATM    3  O   UNL     1      43.702 -15.328   6.950  1.00  0.00    -0.246 OA
HETATM    4  N   UNL     1      43.156 -16.460   4.967  1.00  0.00    -0.232 N 
HETATM    5  C   UNL     1      42.709 -15.995   3.756  1.00  0.00     0.256 C 
HETATM    6  O   UNL     1      42.741 -16.537   2.653  1.00  0.00    -0.270 OA
HETATM    7  C   UNL     1      42.034 -14.641   3.932  1.00  0.00     0.190 C 
ENDROOT
BRANCH   7   8
HETATM    8  C   UNL     1      40.527 -14.874   3.843  1.00  0.00     0.138 C 
BRANCH   8   9
HETATM    9  C   UNL     1      39.951 -14.808   2.436  1.00  0.00     0.224 C 
HETATM   10  N   UNL     1      40.823 -14.357   1.468  1.00  0.00    -0.327 N 
HETATM   11  H   UNL     1      41.688 -13.902   1.760  1.00  0.00     0.169 HD
HETATM   12  O   UNL     1      38.805 -15.202   2.234  1.00  0.00    -0.273 OA
BRANCH  10  13
HETATM   13  C   UNL     1      40.672 -14.445   0.069  1.00  0.00     0.034 A 
HETATM   14  C   UNL     1      41.149 -15.606  -0.549  1.00  0.00     0.032 A 
HETATM   15  C   UNL     1      40.978 -15.799  -1.921  1.00  0.00     0.039 A 
HETATM   16  C   UNL     1      40.291 -14.858  -2.684  1.00  0.00     0.068 A 
HETATM   17  C   UNL     1      39.830 -13.690  -2.078  1.00  0.00     0.039 A 
HETATM   18  C   UNL     1      40.027 -13.480  -0.706  1.00  0.00     0.032 A 
BRANCH  16  19
HETATM   19  O   UNL     1      40.152 -15.166  -4.008  1.00  0.00    -0.356 OA
HETATM   20  C   UNL     1      39.103 -16.083  -4.308  1.00  0.00     0.210 C 
ENDBRANCH  16  19
ENDBRANCH  10  13
ENDBRANCH   8   9
ENDBRANCH   7   8
BRANCH   1  21
HETATM   21  C   UNL     1      42.684 -12.967   5.757  1.00  0.00     0.133 C 
BRANCH  21  22
HETATM   22  C   UNL     1      41.484 -12.031   5.603  1.00  0.00     0.058 C 
BRANCH  22  23
HETATM   23  C   UNL     1      41.044 -11.461   6.929  1.00  0.00    -0.057 A 
HETATM   24  C   UNL     1      41.968 -10.865   7.797  1.00  0.00     0.010 A 
HETATM   25  C   UNL     1      41.558 -10.351   9.034  1.00  0.00     0.037 A 
HETATM   26  C   UNL     1      40.219 -10.426   9.416  1.00  0.00     0.068 A 
HETATM   27  C   UNL     1      39.298 -11.026   8.555  1.00  0.00     0.037 A 
HETATM   28  C   UNL     1      39.705 -11.540   7.321  1.00  0.00     0.010 A 
BRANCH  26  29
HETATM   29  O   UNL     1      39.688  -9.963  10.588  1.00  0.00    -0.356 OA
HETATM   30  C   UNL     1      40.027 -10.669  11.774  1.00  0.00     0.210 C 
ENDBRANCH  26  29
ENDBRANCH  22  23
ENDBRANCH  21  22
ENDBRANCH   1  21
BRANCH   4  31
HETATM   31  C   UNL     1      43.600 -17.793   5.231  1.00  0.00     0.047 A 
HETATM   32  C   UNL     1      43.278 -18.463   6.420  1.00  0.00     0.033 A 
HETATM   33  C   UNL     1      43.648 -19.800   6.631  1.00  0.00     0.039 A 
HETATM   34  C   UNL     1      44.332 -20.516   5.655  1.00  0.00     0.068 A 
HETATM   35  C   UNL     1      44.685 -19.868   4.479  1.00  0.00     0.039 A 
HETATM   36  C   UNL     1      44.321 -18.528   4.273  1.00  0.00     0.033 A 
BRANCH  34  37
HETATM   37  O   UNL     1      44.602 -21.819   5.965  1.00  0.00    -0.356 OA
HETATM   38  C   UNL     1      45.058 -22.641   4.897  1.00  0.00     0.210 C 
ENDBRANCH  34  37
ENDBRANCH   4  31
TORSDOF 10
ENDMDL
