MODEL 1
REMARK VINA RESULT:     -10.0      0.000      0.000
REMARK  8 active torsions:
REMARK  status: ('A' for Active; 'I' for Inactive)
REMARK    1  A    between atoms: C_3  and  C_4 
REMARK    2  A    between atoms: N_5  and  N_6 
REMARK    3  A    between atoms: C_17  and  C_18 
REMARK       I    between atoms: C_18  and  N_19 
REMARK    4  A    between atoms: N_19  and  C_20 
REMARK    5  A    between atoms: C_20  and  C_21 
REMARK    6  A    between atoms: C_21  and  C_22 
REMARK    7  A    between atoms: C_29  and  N_30 
REMARK    8  A    between atoms: C_31  and  O_32 
ROOT
HETATM    1  N   UNL     1      41.973 -16.191   3.748  1.00  0.00    -0.202 N 
HETATM    2  C   UNL     1      42.590 -17.422   3.621  1.00  0.00     0.183 A 
HETATM    3  C   UNL     1      43.327 -17.624   4.786  1.00  0.00     0.124 A 
HETATM    4  N   UNL     1      44.121 -18.718   4.924  1.00  0.00    -0.242 NA
HETATM    5  C   UNL     1      44.062 -19.597   3.911  1.00  0.00     0.086 A 
HETATM    6  C   UNL     1      43.275 -19.380   2.751  1.00  0.00     0.088 A 
HETATM    7  N   UNL     1      42.544 -18.268   2.565  1.00  0.00    -0.225 NA
HETATM    8  C   UNL     1      44.791 -20.777   4.014  1.00  0.00     0.034 A 
HETATM    9  C   UNL     1      44.752 -21.752   3.015  1.00  0.00     0.002 A 
HETATM   10  C   UNL     1      43.975 -21.542   1.886  1.00  0.00     0.002 A 
HETATM   11  C   UNL     1      43.248 -20.357   1.762  1.00  0.00     0.034 A 
HETATM   12  C   UNL     1      43.078 -16.529   5.666  1.00  0.00     0.099 C 
HETATM   13  C   UNL     1      42.012 -15.842   5.096  1.00  0.00     0.122 C 
ENDROOT
BRANCH  12  14
HETATM   14  C   UNL     1      43.822 -16.164   6.872  1.00  0.00     0.236 C 
HETATM   15  N   UNL     1      43.550 -14.894   7.374  1.00  0.00    -0.258 NA
HETATM   16  H   UNL     1      42.596 -14.646   7.150  1.00  0.00     0.130 HD
HETATM   17  O   UNL     1      44.691 -16.872   7.368  1.00  0.00    -0.274 OA
BRANCH  15  18
HETATM   18  C   UNL     1      44.371 -13.791   6.883  1.00  0.00     0.099 C 
BRANCH  18  19
HETATM   19  C   UNL     1      45.405 -13.215   7.852  1.00  0.00     0.048 C 
BRANCH  19  20
HETATM   20  C   UNL     1      44.725 -12.274   8.828  1.00  0.00    -0.083 C 
HETATM   21  C   UNL     1      45.360 -12.106  10.189  1.00  0.00     0.034 C 
HETATM   22  C   UNL     1      44.444 -11.432  11.216  1.00  0.00     0.005 C 
HETATM   23  C   UNL     1      43.678 -10.261  10.606  1.00  0.00     0.004 C 
HETATM   24  C   UNL     1      42.841 -10.715   9.412  1.00  0.00     0.027 C 
HETATM   25  C   UNL     1      43.583 -11.642   8.496  1.00  0.00    -0.024 C 
ENDBRANCH  19  20
ENDBRANCH  18  19
ENDBRANCH  15  18
ENDBRANCH  12  14
BRANCH  13  26
HETATM   26  N   UNL     1      41.188 -14.860   5.583  1.00  0.00    -0.286 NA
HETATM   27  H   UNL     1      40.470 -14.517   4.944  1.00  0.00     0.125 HD
HETATM   28  H   UNL     1      41.678 -14.038   5.947  1.00  0.00     0.125 HD
ENDBRANCH  13  26
BRANCH   1  29
HETATM   29  N   UNL     1      41.431 -15.324   2.823  1.00  0.00    -0.176 NA
HETATM   30  C   UNL     1      40.272 -15.645   2.341  1.00  0.00     0.153 C 
BRANCH  30  31
HETATM   31  C   UNL     1      39.710 -14.902   1.188  1.00  0.00     0.016 A 
HETATM   32  C   UNL     1      38.385 -14.460   1.265  1.00  0.00     0.016 A 
HETATM   33  C   UNL     1      37.795 -13.841   0.159  1.00  0.00     0.001 A 
HETATM   34  C   UNL     1      38.521 -13.667  -1.021  1.00  0.00     0.003 A 
HETATM   35  C   UNL     1      39.842 -14.106  -1.100  1.00  0.00     0.037 A 
HETATM   36  C   UNL     1      40.432 -14.723   0.000  1.00  0.00     0.077 A 
BRANCH  36  37
HETATM   37  O   UNL     1      41.718 -15.163  -0.162  1.00  0.00    -0.360 OA
HETATM   38  H   UNL     1      42.218 -14.408  -0.541  1.00  0.00     0.217 HD
ENDBRANCH  36  37
ENDBRANCH  30  31
ENDBRANCH   1  29
TORSDOF 8
ENDMDL
MODEL 2
REMARK VINA RESULT:      -9.9      1.871      2.775
REMARK  8 active torsions:
REMARK  status: ('A' for Active; 'I' for Inactive)
REMARK    1  A    between atoms: C_3  and  C_4 
REMARK    2  A    between atoms: N_5  and  N_6 
REMARK    3  A    between atoms: C_17  and  C_18 
REMARK       I    between atoms: C_18  and  N_19 
REMARK    4  A    between atoms: N_19  and  C_20 
REMARK    5  A    between atoms: C_20  and  C_21 
REMARK    6  A    between atoms: C_21  and  C_22 
REMARK    7  A    between atoms: C_29  and  N_30 
REMARK    8  A    between atoms: C_31  and  O_32 
ROOT
HETATM    1  N   UNL     1      41.277 -17.068   4.231  1.00  0.00    -0.202 N 
HETATM    2  C   UNL     1      42.117 -18.125   3.932  1.00  0.00     0.183 A 
HETATM    3  C   UNL     1      42.877 -18.370   5.073  1.00  0.00     0.124 A 
HETATM    4  N   UNL     1      43.864 -19.302   5.062  1.00  0.00    -0.242 NA
HETATM    5  C   UNL     1      43.976 -20.003   3.923  1.00  0.00     0.086 A 
HETATM    6  C   UNL     1      43.162 -19.754   2.786  1.00  0.00     0.088 A 
HETATM    7  N   UNL     1      42.233 -18.784   2.755  1.00  0.00    -0.225 NA
HETATM    8  C   UNL     1      44.915 -21.026   3.862  1.00  0.00     0.034 A 
HETATM    9  C   UNL     1      45.064 -21.818   2.721  1.00  0.00     0.002 A 
HETATM   10  C   UNL     1      44.262 -21.580   1.615  1.00  0.00     0.002 A 
HETATM   11  C   UNL     1      43.323 -20.548   1.657  1.00  0.00     0.034 A 
HETATM   12  C   UNL     1      42.424 -17.496   6.106  1.00  0.00     0.099 C 
HETATM   13  C   UNL     1      41.246 -16.939   5.617  1.00  0.00     0.122 C 
ENDROOT
BRANCH  12  14
HETATM   14  C   UNL     1      43.083 -17.195   7.377  1.00  0.00     0.236 C 
HETATM   15  N   UNL     1      43.204 -15.841   7.676  1.00  0.00    -0.258 NA
HETATM   16  H   UNL     1      42.434 -15.338   7.257  1.00  0.00     0.130 HD
HETATM   17  O   UNL     1      43.578 -18.054   8.099  1.00  0.00    -0.274 OA
BRANCH  15  18
HETATM   18  C   UNL     1      44.414 -15.162   7.221  1.00  0.00     0.099 C 
BRANCH  18  19
HETATM   19  C   UNL     1      44.288 -13.675   6.888  1.00  0.00     0.048 C 
BRANCH  19  20
HETATM   20  C   UNL     1      43.449 -13.497   5.637  1.00  0.00    -0.083 C 
HETATM   21  C   UNL     1      42.101 -12.833   5.792  1.00  0.00     0.034 C 
HETATM   22  C   UNL     1      41.186 -13.006   4.575  1.00  0.00     0.005 C 
HETATM   23  C   UNL     1      41.952 -12.833   3.266  1.00  0.00     0.004 C 
HETATM   24  C   UNL     1      43.106 -13.827   3.168  1.00  0.00     0.027 C 
HETATM   25  C   UNL     1      43.886 -13.946   4.444  1.00  0.00    -0.024 C 
ENDBRANCH  19  20
ENDBRANCH  18  19
ENDBRANCH  15  18
ENDBRANCH  12  14
BRANCH  13  26
HETATM   26  N   UNL     1      40.250 -16.220   6.226  1.00  0.00    -0.286 NA
HETATM   27  H   UNL     1      40.058 -15.296   5.836  1.00  0.00     0.125 HD
HETATM   28  H   UNL     1      40.374 -16.095   7.235  1.00  0.00     0.125 HD
ENDBRANCH  13  26
BRANCH   1  29
HETATM   29  N   UNL     1      40.581 -16.181   3.437  1.00  0.00    -0.176 NA
HETATM   30  C   UNL     1      40.645 -16.378   2.158  1.00  0.00     0.153 C 
BRANCH  30  31
HETATM   31  C   UNL     1      40.120 -15.359   1.217  1.00  0.00     0.016 A 
HETATM   32  C   UNL     1      38.862 -14.804   1.475  1.00  0.00     0.016 A 
HETATM   33  C   UNL     1      38.296 -13.913   0.558  1.00  0.00     0.001 A 
HETATM   34  C   UNL     1      38.981 -13.580  -0.613  1.00  0.00     0.003 A 
HETATM   35  C   UNL     1      40.234 -14.131  -0.871  1.00  0.00     0.037 A 
HETATM   36  C   UNL     1      40.800 -15.019   0.040  1.00  0.00     0.077 A 
BRANCH  36  37
HETATM   37  O   UNL     1      42.015 -15.551  -0.297  1.00  0.00    -0.360 OA
HETATM   38  H   UNL     1      42.477 -14.861  -0.822  1.00  0.00     0.217 HD
ENDBRANCH  36  37
ENDBRANCH  30  31
ENDBRANCH   1  29
TORSDOF 8
ENDMDL
MODEL 3
REMARK VINA RESULT:      -9.8      1.525      1.955
REMARK  8 active torsions:
REMARK  status: ('A' for Active; 'I' for Inactive)
REMARK    1  A    between atoms: C_3  and  C_4 
REMARK    2  A    between atoms: N_5  and  N_6 
REMARK    3  A    between atoms: C_17  and  C_18 
REMARK       I    between atoms: C_18  and  N_19 
REMARK    4  A    between atoms: N_19  and  C_20 
REMARK    5  A    between atoms: C_20  and  C_21 
REMARK    6  A    between atoms: C_21  and  C_22 
REMARK    7  A    between atoms: C_29  and  N_30 
REMARK    8  A    between atoms: C_31  and  O_32 
ROOT
HETATM    1  N   UNL     1      41.404 -16.527   2.775  1.00  0.00    -0.202 N 
HETATM    2  C   UNL     1      42.185 -17.650   2.978  1.00  0.00     0.183 A 
HETATM    3  C   UNL     1      42.600 -17.617   4.307  1.00  0.00     0.124 A 
HETATM    4  N   UNL     1      43.460 -18.550   4.789  1.00  0.00    -0.242 NA
HETATM    5  C   UNL     1      43.791 -19.522   3.925  1.00  0.00     0.086 A 
HETATM    6  C   UNL     1      43.325 -19.549   2.584  1.00  0.00     0.088 A 
HETATM    7  N   UNL     1      42.535 -18.592   2.070  1.00  0.00    -0.225 NA
HETATM    8  C   UNL     1      44.610 -20.555   4.369  1.00  0.00     0.034 A 
HETATM    9  C   UNL     1      44.968 -21.616   3.535  1.00  0.00     0.002 A 
HETATM   10  C   UNL     1      44.505 -21.646   2.228  1.00  0.00     0.002 A 
HETATM   11  C   UNL     1      43.692 -20.610   1.765  1.00  0.00     0.034 A 
HETATM   12  C   UNL     1      41.984 -16.495   4.938  1.00  0.00     0.099 C 
HETATM   13  C   UNL     1      41.032 -16.046   4.028  1.00  0.00     0.122 C 
ENDROOT
BRANCH  12  14
HETATM   14  C   UNL     1      42.321 -15.899   6.230  1.00  0.00     0.236 C 
HETATM   15  N   UNL     1      42.455 -14.513   6.227  1.00  0.00    -0.258 NA
HETATM   16  H   UNL     1      41.850 -14.123   5.517  1.00  0.00     0.130 HD
HETATM   17  O   UNL     1      42.560 -16.559   7.235  1.00  0.00    -0.274 OA
BRANCH  15  18
HETATM   18  C   UNL     1      43.782 -13.970   5.958  1.00  0.00     0.099 C 
BRANCH  18  19
HETATM   19  C   UNL     1      44.898 -14.359   6.929  1.00  0.00     0.048 C 
BRANCH  19  20
HETATM   20  C   UNL     1      45.270 -13.166   7.788  1.00  0.00    -0.083 C 
HETATM   21  C   UNL     1      44.220 -12.639   8.738  1.00  0.00     0.034 C 
HETATM   22  C   UNL     1      44.540 -11.249   9.300  1.00  0.00     0.005 C 
HETATM   23  C   UNL     1      46.013 -11.121   9.678  1.00  0.00     0.004 C 
HETATM   24  C   UNL     1      46.915 -11.394   8.476  1.00  0.00     0.027 C 
HETATM   25  C   UNL     1      46.481 -12.587   7.679  1.00  0.00    -0.024 C 
ENDBRANCH  19  20
ENDBRANCH  18  19
ENDBRANCH  15  18
ENDBRANCH  12  14
BRANCH  13  26
HETATM   26  N   UNL     1      39.988 -15.166   4.152  1.00  0.00    -0.286 NA
HETATM   27  H   UNL     1      39.094 -15.471   3.765  1.00  0.00     0.125 HD
HETATM   28  H   UNL     1      40.172 -14.233   3.771  1.00  0.00     0.125 HD
ENDBRANCH  13  26
BRANCH   1  29
HETATM   29  N   UNL     1      41.025 -15.852   1.634  1.00  0.00    -0.176 NA
HETATM   30  C   UNL     1      41.935 -15.128   1.063  1.00  0.00     0.153 C 
BRANCH  30  31
HETATM   31  C   UNL     1      41.572 -14.197  -0.032  1.00  0.00     0.016 A 
HETATM   32  C   UNL     1      41.799 -12.829   0.156  1.00  0.00     0.016 A 
HETATM   33  C   UNL     1      41.380 -11.916  -0.815  1.00  0.00     0.001 A 
HETATM   34  C   UNL     1      40.733 -12.363  -1.969  1.00  0.00     0.003 A 
HETATM   35  C   UNL     1      40.506 -13.725  -2.160  1.00  0.00     0.037 A 
HETATM   36  C   UNL     1      40.922 -14.637  -1.193  1.00  0.00     0.077 A 
BRANCH  36  37
HETATM   37  O   UNL     1      40.630 -15.954  -1.428  1.00  0.00    -0.360 OA
HETATM   38  H   UNL     1      40.908 -16.132  -2.353  1.00  0.00     0.217 HD
ENDBRANCH  36  37
ENDBRANCH  30  31
ENDBRANCH   1  29
TORSDOF 8
ENDMDL
MODEL 4
REMARK VINA RESULT:      -9.7      2.594      3.779
REMARK  8 active torsions:
REMARK  status: ('A' for Active; 'I' for Inactive)
REMARK    1  A    between atoms: C_3  and  C_4 
REMARK    2  A    between atoms: N_5  and  N_6 
REMARK    3  A    between atoms: C_17  and  C_18 
REMARK       I    between atoms: C_18  and  N_19 
REMARK    4  A    between atoms: N_19  and  C_20 
REMARK    5  A    between atoms: C_20  and  C_21 
REMARK    6  A    between atoms: C_21  and  C_22 
REMARK    7  A    between atoms: C_29  and  N_30 
REMARK    8  A    between atoms: C_31  and  O_32 
ROOT
HETATM    1  N   UNL     1      40.970 -16.319   1.636  1.00  0.00    -0.202 N 
HETATM    2  C   UNL     1      41.764 -17.350   2.103  1.00  0.00     0.183 A 
HETATM    3  C   UNL     1      41.958 -17.123   3.464  1.00  0.00     0.124 A 
HETATM    4  N   UNL     1      42.776 -17.927   4.191  1.00  0.00    -0.242 NA
HETATM    5  C   UNL     1      43.289 -18.973   3.524  1.00  0.00     0.086 A 
HETATM    6  C   UNL     1      43.045 -19.198   2.144  1.00  0.00     0.088 A 
HETATM    7  N   UNL     1      42.301 -18.370   1.392  1.00  0.00    -0.225 NA
HETATM    8  C   UNL     1      44.077 -19.882   4.221  1.00  0.00     0.034 A 
HETATM    9  C   UNL     1      44.617 -21.011   3.600  1.00  0.00     0.002 A 
HETATM   10  C   UNL     1      44.371 -21.234   2.254  1.00  0.00     0.002 A 
HETATM   11  C   UNL     1      43.592 -20.323   1.538  1.00  0.00     0.034 A 
HETATM   12  C   UNL     1      41.194 -15.978   3.838  1.00  0.00     0.099 C 
HETATM   13  C   UNL     1      40.378 -15.714   2.742  1.00  0.00     0.122 C 
ENDROOT
BRANCH  12  14
HETATM   14  C   UNL     1      41.289 -15.205   5.076  1.00  0.00     0.236 C 
HETATM   15  N   UNL     1      42.144 -14.106   5.024  1.00  0.00    -0.258 NA
HETATM   16  H   UNL     1      42.165 -13.747   4.080  1.00  0.00     0.130 HD
HETATM   17  O   UNL     1      40.735 -15.532   6.120  1.00  0.00    -0.274 OA
BRANCH  15  18
HETATM   18  C   UNL     1      43.538 -14.327   5.396  1.00  0.00     0.099 C 
BRANCH  18  19
HETATM   19  C   UNL     1      43.829 -14.563   6.879  1.00  0.00     0.048 C 
BRANCH  19  20
HETATM   20  C   UNL     1      44.114 -16.033   7.119  1.00  0.00    -0.083 C 
HETATM   21  C   UNL     1      43.300 -16.735   8.180  1.00  0.00     0.034 C 
HETATM   22  C   UNL     1      43.877 -18.092   8.600  1.00  0.00     0.005 C 
HETATM   23  C   UNL     1      44.372 -18.890   7.397  1.00  0.00     0.004 C 
HETATM   24  C   UNL     1      45.435 -18.114   6.623  1.00  0.00     0.027 C 
HETATM   25  C   UNL     1      45.079 -16.670   6.428  1.00  0.00    -0.024 C 
ENDBRANCH  19  20
ENDBRANCH  18  19
ENDBRANCH  15  18
ENDBRANCH  12  14
BRANCH  13  26
HETATM   26  N   UNL     1      39.285 -14.901   2.588  1.00  0.00    -0.286 NA
HETATM   27  H   UNL     1      39.436 -14.037   2.065  1.00  0.00     0.125 HD
HETATM   28  H   UNL     1      38.824 -14.639   3.465  1.00  0.00     0.125 HD
ENDBRANCH  13  26
BRANCH   1  29
HETATM   29  N   UNL     1      40.745 -15.818   0.371  1.00  0.00    -0.176 NA
HETATM   30  C   UNL     1      41.679 -15.072  -0.129  1.00  0.00     0.153 C 
BRANCH  30  31
HETATM   31  C   UNL     1      41.439 -14.312  -1.379  1.00  0.00     0.016 A 
HETATM   32  C   UNL     1      41.902 -12.994  -1.453  1.00  0.00     0.016 A 
HETATM   33  C   UNL     1      41.609 -12.218  -2.579  1.00  0.00     0.001 A 
HETATM   34  C   UNL     1      40.855 -12.753  -3.625  1.00  0.00     0.003 A 
HETATM   35  C   UNL     1      40.394 -14.066  -3.554  1.00  0.00     0.037 A 
HETATM   36  C   UNL     1      40.683 -14.841  -2.434  1.00  0.00     0.077 A 
BRANCH  36  37
HETATM   37  O   UNL     1      40.165 -16.108  -2.415  1.00  0.00    -0.360 OA
HETATM   38  H   UNL     1      39.805 -16.267  -3.314  1.00  0.00     0.217 HD
ENDBRANCH  36  37
ENDBRANCH  30  31
ENDBRANCH   1  29
TORSDOF 8
ENDMDL
MODEL 5
REMARK VINA RESULT:      -9.6      2.317      8.094
REMARK  8 active torsions:
REMARK  status: ('A' for Active; 'I' for Inactive)
REMARK    1  A    between atoms: C_3  and  C_4 
REMARK    2  A    between atoms: N_5  and  N_6 
REMARK    3  A    between atoms: C_17  and  C_18 
REMARK       I    between atoms: C_18  and  N_19 
REMARK    4  A    between atoms: N_19  and  C_20 
REMARK    5  A    between atoms: C_20  and  C_21 
REMARK    6  A    between atoms: C_21  and  C_22 
REMARK    7  A    between atoms: C_29  and  N_30 
REMARK    8  A    between atoms: C_31  and  O_32 
ROOT
HETATM    1  N   UNL     1      42.675 -13.324   5.917  1.00  0.00    -0.202 N 
HETATM    2  C   UNL     1      42.875 -14.692   5.913  1.00  0.00     0.183 A 
HETATM    3  C   UNL     1      41.971 -15.228   4.999  1.00  0.00     0.124 A 
HETATM    4  N   UNL     1      41.865 -16.572   4.835  1.00  0.00    -0.242 NA
HETATM    5  C   UNL     1      42.741 -17.304   5.540  1.00  0.00     0.086 A 
HETATM    6  C   UNL     1      43.676 -16.727   6.439  1.00  0.00     0.088 A 
HETATM    7  N   UNL     1      43.742 -15.405   6.670  1.00  0.00    -0.225 NA
HETATM    8  C   UNL     1      42.743 -18.684   5.368  1.00  0.00     0.034 A 
HETATM    9  C   UNL     1      43.647 -19.506   6.043  1.00  0.00     0.002 A 
HETATM   10  C   UNL     1      44.566 -18.940   6.914  1.00  0.00     0.002 A 
HETATM   11  C   UNL     1      44.568 -17.557   7.107  1.00  0.00     0.034 A 
HETATM   12  C   UNL     1      41.271 -14.150   4.380  1.00  0.00     0.099 C 
HETATM   13  C   UNL     1      41.959 -13.003   4.766  1.00  0.00     0.122 C 
ENDROOT
BRANCH  12  14
HETATM   14  C   UNL     1      40.056 -14.220   3.569  1.00  0.00     0.236 C 
HETATM   15  N   UNL     1      39.760 -15.478   3.052  1.00  0.00    -0.258 NA
HETATM   16  H   UNL     1      40.112 -16.187   3.680  1.00  0.00     0.130 HD
HETATM   17  O   UNL     1      39.381 -13.237   3.281  1.00  0.00    -0.274 OA
BRANCH  15  18
HETATM   18  C   UNL     1      40.306 -15.806   1.739  1.00  0.00     0.099 C 
BRANCH  18  19
HETATM   19  C   UNL     1      40.400 -17.289   1.379  1.00  0.00     0.048 C 
BRANCH  19  20
HETATM   20  C   UNL     1      41.825 -17.774   1.568  1.00  0.00    -0.083 C 
HETATM   21  C   UNL     1      42.925 -16.740   1.504  1.00  0.00     0.034 C 
HETATM   22  C   UNL     1      44.327 -17.342   1.353  1.00  0.00     0.005 C 
HETATM   23  C   UNL     1      44.512 -18.568   2.243  1.00  0.00     0.004 C 
HETATM   24  C   UNL     1      43.471 -19.640   1.925  1.00  0.00     0.027 C 
HETATM   25  C   UNL     1      42.090 -19.081   1.754  1.00  0.00    -0.024 C 
ENDBRANCH  19  20
ENDBRANCH  18  19
ENDBRANCH  15  18
ENDBRANCH  12  14
BRANCH  13  26
HETATM   26  N   UNL     1      41.910 -11.709   4.316  1.00  0.00    -0.286 NA
HETATM   27  H   UNL     1      41.235 -11.516   3.575  1.00  0.00     0.125 HD
HETATM   28  H   UNL     1      42.811 -11.335   4.002  1.00  0.00     0.125 HD
ENDBRANCH  13  26
BRANCH   1  29
HETATM   29  N   UNL     1      42.998 -12.340   6.828  1.00  0.00    -0.176 NA
HETATM   30  C   UNL     1      43.832 -12.671   7.763  1.00  0.00     0.153 C 
BRANCH  30  31
HETATM   31  C   UNL     1      44.070 -11.761   8.909  1.00  0.00     0.016 A 
HETATM   32  C   UNL     1      45.369 -11.660   9.417  1.00  0.00     0.016 A 
HETATM   33  C   UNL     1      45.610 -10.886  10.556  1.00  0.00     0.001 A 
HETATM   34  C   UNL     1      44.559 -10.218  11.188  1.00  0.00     0.003 A 
HETATM   35  C   UNL     1      43.264 -10.316  10.683  1.00  0.00     0.037 A 
HETATM   36  C   UNL     1      43.021 -11.087   9.549  1.00  0.00     0.077 A 
BRANCH  36  37
HETATM   37  O   UNL     1      41.720 -11.170   9.132  1.00  0.00    -0.360 OA
HETATM   38  H   UNL     1      41.752 -11.497   8.207  1.00  0.00     0.217 HD
ENDBRANCH  36  37
ENDBRANCH  30  31
ENDBRANCH   1  29
TORSDOF 8
ENDMDL
MODEL 6
REMARK VINA RESULT:      -9.5      3.000      7.872
REMARK  8 active torsions:
REMARK  status: ('A' for Active; 'I' for Inactive)
REMARK    1  A    between atoms: C_3  and  C_4 
REMARK    2  A    between atoms: N_5  and  N_6 
REMARK    3  A    between atoms: C_17  and  C_18 
REMARK       I    between atoms: C_18  and  N_19 
REMARK    4  A    between atoms: N_19  and  C_20 
REMARK    5  A    between atoms: C_20  and  C_21 
REMARK    6  A    between atoms: C_21  and  C_22 
REMARK    7  A    between atoms: C_29  and  N_30 
REMARK    8  A    between atoms: C_31  and  O_32 
ROOT
HETATM    1  N   UNL     1      39.901 -13.947   4.459  1.00  0.00    -0.202 N 
HETATM    2  C   UNL     1      39.956 -14.094   3.085  1.00  0.00     0.183 A 
HETATM    3  C   UNL     1      40.979 -15.001   2.818  1.00  0.00     0.124 A 
HETATM    4  N   UNL     1      41.336 -15.287   1.540  1.00  0.00    -0.242 NA
HETATM    5  C   UNL     1      40.583 -14.707   0.592  1.00  0.00     0.086 A 
HETATM    6  C   UNL     1      39.523 -13.812   0.896  1.00  0.00     0.088 A 
HETATM    7  N   UNL     1      39.206 -13.459   2.153  1.00  0.00    -0.225 NA
HETATM    8  C   UNL     1      40.842 -15.010  -0.740  1.00  0.00     0.034 A 
HETATM    9  C   UNL     1      40.078 -14.470  -1.776  1.00  0.00     0.002 A 
HETATM   10  C   UNL     1      39.037 -13.603  -1.478  1.00  0.00     0.002 A 
HETATM   11  C   UNL     1      38.773 -13.279  -0.146  1.00  0.00     0.034 A 
HETATM   12  C   UNL     1      41.492 -15.472   4.063  1.00  0.00     0.099 C 
HETATM   13  C   UNL     1      40.590 -15.018   5.021  1.00  0.00     0.122 C 
ENDROOT
BRANCH  12  14
HETATM   14  C   UNL     1      42.730 -16.214   4.297  1.00  0.00     0.236 C 
HETATM   15  N   UNL     1      43.327 -16.746   3.157  1.00  0.00    -0.258 NA
HETATM   16  H   UNL     1      43.113 -16.157   2.365  1.00  0.00     0.130 HD
HETATM   17  O   UNL     1      43.180 -16.439   5.415  1.00  0.00    -0.274 OA
BRANCH  15  18
HETATM   18  C   UNL     1      42.935 -18.096   2.765  1.00  0.00     0.099 C 
BRANCH  18  19
HETATM   19  C   UNL     1      44.038 -19.009   2.228  1.00  0.00     0.048 C 
BRANCH  19  20
HETATM   20  C   UNL     1      44.318 -20.118   3.223  1.00  0.00    -0.083 C 
HETATM   21  C   UNL     1      44.611 -21.493   2.668  1.00  0.00     0.034 C 
HETATM   22  C   UNL     1      44.534 -22.608   3.717  1.00  0.00     0.005 C 
HETATM   23  C   UNL     1      45.179 -22.188   5.034  1.00  0.00     0.004 C 
HETATM   24  C   UNL     1      44.517 -20.930   5.594  1.00  0.00     0.027 C 
HETATM   25  C   UNL     1      44.274 -19.883   4.548  1.00  0.00    -0.024 C 
ENDBRANCH  19  20
ENDBRANCH  18  19
ENDBRANCH  15  18
ENDBRANCH  12  14
BRANCH  13  26
HETATM   26  N   UNL     1      40.418 -15.339   6.343  1.00  0.00    -0.286 NA
HETATM   27  H   UNL     1      40.041 -16.268   6.535  1.00  0.00     0.125 HD
HETATM   28  H   UNL     1      39.846 -14.672   6.870  1.00  0.00     0.125 HD
ENDBRANCH  13  26
BRANCH   1  29
HETATM   29  N   UNL     1      39.366 -12.966   5.268  1.00  0.00    -0.176 NA
HETATM   30  C   UNL     1      40.186 -12.057   5.691  1.00  0.00     0.153 C 
BRANCH  30  31
HETATM   31  C   UNL     1      39.761 -11.095   6.736  1.00  0.00     0.016 A 
HETATM   32  C   UNL     1      39.910  -9.728   6.480  1.00  0.00     0.016 A 
HETATM   33  C   UNL     1      39.609  -8.798   7.480  1.00  0.00     0.001 A 
HETATM   34  C   UNL     1      39.165  -9.229   8.731  1.00  0.00     0.003 A 
HETATM   35  C   UNL     1      39.016 -10.591   8.989  1.00  0.00     0.037 A 
HETATM   36  C   UNL     1      39.315 -11.519   7.995  1.00  0.00     0.077 A 
BRANCH  36  37
HETATM   37  O   UNL     1      39.183 -12.840   8.330  1.00  0.00    -0.360 OA
HETATM   38  H   UNL     1      40.064 -13.246   8.184  1.00  0.00     0.217 HD
ENDBRANCH  36  37
ENDBRANCH  30  31
ENDBRANCH   1  29
TORSDOF 8
ENDMDL
MODEL 7
REMARK VINA RESULT:      -9.4      4.262      8.126
REMARK  8 active torsions:
REMARK  status: ('A' for Active; 'I' for Inactive)
REMARK    1  A    between atoms: C_3  and  C_4 
REMARK    2  A    between atoms: N_5  and  N_6 
REMARK    3  A    between atoms: C_17  and  C_18 
REMARK       I    between atoms: C_18  and  N_19 
REMARK    4  A    between atoms: N_19  and  C_20 
REMARK    5  A    between atoms: C_20  and  C_21 
REMARK    6  A    between atoms: C_21  and  C_22 
REMARK    7  A    between atoms: C_29  and  N_30 
REMARK    8  A    between atoms: C_31  and  O_32 
ROOT
HETATM    1  N   UNL     1      42.517 -15.533   1.289  1.00  0.00    -0.202 N 
HETATM    2  C   UNL     1      41.644 -15.272   0.249  1.00  0.00     0.183 A 
HETATM    3  C   UNL     1      40.808 -14.243   0.676  1.00  0.00     0.124 A 
HETATM    4  N   UNL     1      39.778 -13.819  -0.101  1.00  0.00    -0.242 NA
HETATM    5  C   UNL     1      39.696 -14.399  -1.308  1.00  0.00     0.086 A 
HETATM    6  C   UNL     1      40.585 -15.423  -1.729  1.00  0.00     0.088 A 
HETATM    7  N   UNL     1      41.562 -15.907  -0.944  1.00  0.00    -0.225 NA
HETATM    8  C   UNL     1      38.712 -13.964  -2.188  1.00  0.00     0.034 A 
HETATM    9  C   UNL     1      38.588 -14.499  -3.473  1.00  0.00     0.002 A 
HETATM   10  C   UNL     1      39.463 -15.493  -3.886  1.00  0.00     0.002 A 
HETATM   11  C   UNL     1      40.449 -15.948  -3.009  1.00  0.00     0.034 A 
HETATM   12  C   UNL     1      41.245 -13.820   1.966  1.00  0.00     0.099 C 
HETATM   13  C   UNL     1      42.475 -14.443   2.153  1.00  0.00     0.122 C 
ENDROOT
BRANCH  12  14
HETATM   14  C   UNL     1      40.531 -12.971   2.919  1.00  0.00     0.236 C 
HETATM   15  N   UNL     1      39.802 -11.928   2.354  1.00  0.00    -0.258 NA
HETATM   16  H   UNL     1      39.490 -12.202   1.432  1.00  0.00     0.130 HD
HETATM   17  O   UNL     1      40.624 -13.096   4.135  1.00  0.00    -0.274 OA
BRANCH  15  18
HETATM   18  C   UNL     1      40.488 -10.652   2.176  1.00  0.00     0.099 C 
BRANCH  18  19
HETATM   19  C   UNL     1      40.205  -9.888   0.882  1.00  0.00     0.048 C 
BRANCH  19  20
HETATM   20  C   UNL     1      40.982 -10.509  -0.262  1.00  0.00    -0.083 C 
HETATM   21  C   UNL     1      42.411 -10.917   0.009  1.00  0.00     0.034 C 
HETATM   22  C   UNL     1      43.221 -11.202  -1.261  1.00  0.00     0.005 C 
HETATM   23  C   UNL     1      42.406 -11.989  -2.284  1.00  0.00     0.004 C 
HETATM   24  C   UNL     1      41.130 -11.241  -2.663  1.00  0.00     0.027 C 
HETATM   25  C   UNL     1      40.421 -10.657  -1.477  1.00  0.00    -0.024 C 
ENDBRANCH  19  20
ENDBRANCH  18  19
ENDBRANCH  15  18
ENDBRANCH  12  14
BRANCH  13  26
HETATM   26  N   UNL     1      43.470 -14.249   3.077  1.00  0.00    -0.286 NA
HETATM   27  H   UNL     1      43.972 -15.085   3.379  1.00  0.00     0.125 HD
HETATM   28  H   UNL     1      43.171 -13.760   3.926  1.00  0.00     0.125 HD
ENDBRANCH  13  26
BRANCH   1  29
HETATM   29  N   UNL     1      43.302 -16.627   1.591  1.00  0.00    -0.176 NA
HETATM   30  C   UNL     1      42.676 -17.710   1.927  1.00  0.00     0.153 C 
BRANCH  30  31
HETATM   31  C   UNL     1      43.424 -18.864   2.481  1.00  0.00     0.016 A 
HETATM   32  C   UNL     1      43.460 -20.050   1.739  1.00  0.00     0.016 A 
HETATM   33  C   UNL     1      44.074 -21.186   2.275  1.00  0.00     0.001 A 
HETATM   34  C   UNL     1      44.647 -21.141   3.548  1.00  0.00     0.003 A 
HETATM   35  C   UNL     1      44.613 -19.961   4.289  1.00  0.00     0.037 A 
HETATM   36  C   UNL     1      44.002 -18.829   3.757  1.00  0.00     0.077 A 
BRANCH  36  37
HETATM   37  O   UNL     1      43.971 -17.717   4.556  1.00  0.00    -0.360 OA
HETATM   38  H   UNL     1      44.842 -17.683   5.007  1.00  0.00     0.217 HD
ENDBRANCH  36  37
ENDBRANCH  30  31
ENDBRANCH   1  29
TORSDOF 8
ENDMDL
MODEL 8
REMARK VINA RESULT:      -9.3      3.137      6.801
REMARK  8 active torsions:
REMARK  status: ('A' for Active; 'I' for Inactive)
REMARK    1  A    between atoms: C_3  and  C_4 
REMARK    2  A    between atoms: N_5  and  N_6 
REMARK    3  A    between atoms: C_17  and  C_18 
REMARK       I    between atoms: C_18  and  N_19 
REMARK    4  A    between atoms: N_19  and  C_20 
REMARK    5  A    between atoms: C_20  and  C_21 
REMARK    6  A    between atoms: C_21  and  C_22 
REMARK    7  A    between atoms: C_29  and  N_30 
REMARK    8  A    between atoms: C_31  and  O_32 
ROOT
HETATM    1  N   UNL     1      42.715 -15.423   1.512  1.00  0.00    -0.202 N 
HETATM    2  C   UNL     1      41.845 -15.140   0.475  1.00  0.00     0.183 A 
HETATM    3  C   UNL     1      41.115 -14.017   0.858  1.00  0.00     0.124 A 
HETATM    4  N   UNL     1      40.110 -13.544   0.077  1.00  0.00    -0.242 NA
HETATM    5  C   UNL     1      39.949 -14.179  -1.094  1.00  0.00     0.086 A 
HETATM    6  C   UNL     1      40.731 -15.301  -1.473  1.00  0.00     0.088 A 
HETATM    7  N   UNL     1      41.678 -15.828  -0.679  1.00  0.00    -0.225 NA
HETATM    8  C   UNL     1      38.987 -13.704  -1.979  1.00  0.00     0.034 A 
HETATM    9  C   UNL     1      38.787 -14.294  -3.229  1.00  0.00     0.002 A 
HETATM   10  C   UNL     1      39.558 -15.385  -3.601  1.00  0.00     0.002 A 
HETATM   11  C   UNL     1      40.519 -15.880  -2.718  1.00  0.00     0.034 A 
HETATM   12  C   UNL     1      41.619 -13.566   2.114  1.00  0.00     0.099 C 
HETATM   13  C   UNL     1      42.791 -14.287   2.314  1.00  0.00     0.122 C 
ENDROOT
BRANCH  12  14
HETATM   14  C   UNL     1      41.006 -12.604   3.031  1.00  0.00     0.236 C 
HETATM   15  N   UNL     1      41.370 -12.744   4.367  1.00  0.00    -0.258 NA
HETATM   16  H   UNL     1      42.307 -13.120   4.419  1.00  0.00     0.130 HD
HETATM   17  O   UNL     1      40.163 -11.785   2.682  1.00  0.00    -0.274 OA
BRANCH  15  18
HETATM   18  C   UNL     1      40.546 -13.619   5.196  1.00  0.00     0.099 C 
BRANCH  18  19
HETATM   19  C   UNL     1      40.691 -15.124   4.969  1.00  0.00     0.048 C 
BRANCH  19  20
HETATM   20  C   UNL     1      41.702 -15.696   5.945  1.00  0.00    -0.083 C 
HETATM   21  C   UNL     1      42.947 -14.883   6.212  1.00  0.00     0.034 C 
HETATM   22  C   UNL     1      44.056 -15.672   6.918  1.00  0.00     0.005 C 
HETATM   23  C   UNL     1      43.498 -16.560   8.026  1.00  0.00     0.004 C 
HETATM   24  C   UNL     1      42.462 -17.538   7.477  1.00  0.00     0.027 C 
HETATM   25  C   UNL     1      41.501 -16.897   6.521  1.00  0.00    -0.024 C 
ENDBRANCH  19  20
ENDBRANCH  18  19
ENDBRANCH  15  18
ENDBRANCH  12  14
BRANCH  13  26
HETATM   26  N   UNL     1      43.821 -14.136   3.207  1.00  0.00    -0.286 NA
HETATM   27  H   UNL     1      44.291 -13.229   3.202  1.00  0.00     0.125 HD
HETATM   28  H   UNL     1      44.552 -14.849   3.136  1.00  0.00     0.125 HD
ENDBRANCH  13  26
BRANCH   1  29
HETATM   29  N   UNL     1      43.404 -16.565   1.861  1.00  0.00    -0.176 NA
HETATM   30  C   UNL     1      42.837 -17.337   2.733  1.00  0.00     0.153 C 
BRANCH  30  31
HETATM   31  C   UNL     1      43.589 -18.464   3.335  1.00  0.00     0.016 A 
HETATM   32  C   UNL     1      44.117 -18.298   4.620  1.00  0.00     0.016 A 
HETATM   33  C   UNL     1      44.913 -19.303   5.178  1.00  0.00     0.001 A 
HETATM   34  C   UNL     1      45.183 -20.468   4.457  1.00  0.00     0.003 A 
HETATM   35  C   UNL     1      44.657 -20.637   3.178  1.00  0.00     0.037 A 
HETATM   36  C   UNL     1      43.865 -19.637   2.619  1.00  0.00     0.077 A 
BRANCH  36  37
HETATM   37  O   UNL     1      43.415 -19.852   1.344  1.00  0.00    -0.360 OA
HETATM   38  H   UNL     1      42.454 -20.035   1.423  1.00  0.00     0.217 HD
ENDBRANCH  36  37
ENDBRANCH  30  31
ENDBRANCH   1  29
TORSDOF 8
ENDMDL
MODEL 9
REMARK VINA RESULT:      -9.0      2.896      9.051
REMARK  8 active torsions:
REMARK  status: ('A' for Active; 'I' for Inactive)
REMARK    1  A    between atoms: C_3  and  C_4 
REMARK    2  A    between atoms: N_5  and  N_6 
REMARK    3  A    between atoms: C_17  and  C_18 
REMARK       I    between atoms: C_18  and  N_19 
REMARK    4  A    between atoms: N_19  and  C_20 
REMARK    5  A    between atoms: C_20  and  C_21 
REMARK    6  A    between atoms: C_21  and  C_22 
REMARK    7  A    between atoms: C_29  and  N_30 
REMARK    8  A    between atoms: C_31  and  O_32 
ROOT
HETATM    1  N   UNL     1      41.052 -15.569   3.506  1.00  0.00    -0.202 N 
HETATM    2  C   UNL     1      41.011 -14.258   3.945  1.00  0.00     0.183 A 
HETATM    3  C   UNL     1      40.433 -13.510   2.922  1.00  0.00     0.124 A 
HETATM    4  N   UNL     1      40.334 -12.159   3.022  1.00  0.00    -0.242 NA
HETATM    5  C   UNL     1      40.746 -11.641   4.189  1.00  0.00     0.086 A 
HETATM    6  C   UNL     1      41.299 -12.434   5.229  1.00  0.00     0.088 A 
HETATM    7  N   UNL     1      41.475 -13.761   5.116  1.00  0.00    -0.225 NA
HETATM    8  C   UNL     1      40.606 -10.273   4.394  1.00  0.00     0.034 A 
HETATM    9  C   UNL     1      40.982  -9.669   5.596  1.00  0.00     0.002 A 
HETATM   10  C   UNL     1      41.515 -10.446   6.614  1.00  0.00     0.002 A 
HETATM   11  C   UNL     1      41.672 -11.819   6.418  1.00  0.00     0.034 A 
HETATM   12  C   UNL     1      40.042 -14.405   1.882  1.00  0.00     0.099 C 
HETATM   13  C   UNL     1      40.175 -15.677   2.430  1.00  0.00     0.122 C 
ENDROOT
BRANCH  12  14
HETATM   14  C   UNL     1      39.650 -14.069   0.513  1.00  0.00     0.236 C 
HETATM   15  N   UNL     1      40.153 -14.915  -0.472  1.00  0.00    -0.258 NA
HETATM   16  H   UNL     1      40.273 -15.841  -0.084  1.00  0.00     0.130 HD
HETATM   17  O   UNL     1      39.002 -13.070   0.224  1.00  0.00    -0.274 OA
BRANCH  15  18
HETATM   18  C   UNL     1      41.440 -14.562  -1.062  1.00  0.00     0.099 C 
BRANCH  18  19
HETATM   19  C   UNL     1      41.434 -14.140  -2.532  1.00  0.00     0.048 C 
BRANCH  19  20
HETATM   20  C   UNL     1      41.945 -12.718  -2.661  1.00  0.00    -0.083 C 
HETATM   21  C   UNL     1      41.707 -12.010  -3.974  1.00  0.00     0.034 C 
HETATM   22  C   UNL     1      42.542 -10.736  -4.146  1.00  0.00     0.005 C 
HETATM   23  C   UNL     1      42.592  -9.917  -2.860  1.00  0.00     0.004 C 
HETATM   24  C   UNL     1      43.165 -10.738  -1.707  1.00  0.00     0.027 C 
HETATM   25  C   UNL     1      42.611 -12.130  -1.648  1.00  0.00    -0.024 C 
ENDBRANCH  19  20
ENDBRANCH  18  19
ENDBRANCH  15  18
ENDBRANCH  12  14
BRANCH  13  26
HETATM   26  N   UNL     1      39.739 -16.907   2.009  1.00  0.00    -0.286 NA
HETATM   27  H   UNL     1      39.316 -17.503   2.723  1.00  0.00     0.125 HD
HETATM   28  H   UNL     1      40.453 -17.471   1.538  1.00  0.00     0.125 HD
ENDBRANCH  13  26
BRANCH   1  29
HETATM   29  N   UNL     1      41.800 -16.658   3.903  1.00  0.00    -0.176 NA
HETATM   30  C   UNL     1      42.885 -16.888   3.233  1.00  0.00     0.153 C 
BRANCH  30  31
HETATM   31  C   UNL     1      43.634 -18.151   3.434  1.00  0.00     0.016 A 
HETATM   32  C   UNL     1      43.723 -19.048   2.365  1.00  0.00     0.016 A 
HETATM   33  C   UNL     1      44.339 -20.290   2.549  1.00  0.00     0.001 A 
HETATM   34  C   UNL     1      44.862 -20.637   3.796  1.00  0.00     0.003 A 
HETATM   35  C   UNL     1      44.776 -19.745   4.864  1.00  0.00     0.037 A 
HETATM   36  C   UNL     1      44.162 -18.508   4.683  1.00  0.00     0.077 A 
BRANCH  36  37
HETATM   37  O   UNL     1      44.078 -17.699   5.784  1.00  0.00    -0.360 OA
HETATM   38  H   UNL     1      44.448 -18.218   6.530  1.00  0.00     0.217 HD
ENDBRANCH  36  37
ENDBRANCH  30  31
ENDBRANCH   1  29
TORSDOF 8
ENDMDL
MODEL 10
REMARK VINA RESULT:      -9.0      2.978      4.269
REMARK  8 active torsions:
REMARK  status: ('A' for Active; 'I' for Inactive)
REMARK    1  A    between atoms: C_3  and  C_4 
REMARK    2  A    between atoms: N_5  and  N_6 
REMARK    3  A    between atoms: C_17  and  C_18 
REMARK       I    between atoms: C_18  and  N_19 
REMARK    4  A    between atoms: N_19  and  C_20 
REMARK    5  A    between atoms: C_20  and  C_21 
REMARK    6  A    between atoms: C_21  and  C_22 
REMARK    7  A    between atoms: C_29  and  N_30 
REMARK    8  A    between atoms: C_31  and  O_32 
ROOT
HETATM    1  N   UNL     1      41.018 -16.451   2.146  1.00  0.00    -0.202 N 
HETATM    2  C   UNL     1      41.884 -17.448   2.553  1.00  0.00     0.183 A 
HETATM    3  C   UNL     1      42.276 -17.135   3.853  1.00  0.00     0.124 A 
HETATM    4  N   UNL     1      43.202 -17.889   4.499  1.00  0.00    -0.242 NA
HETATM    5  C   UNL     1      43.624 -18.973   3.831  1.00  0.00     0.086 A 
HETATM    6  C   UNL     1      43.181 -19.286   2.519  1.00  0.00     0.088 A 
HETATM    7  N   UNL     1      42.323 -18.509   1.836  1.00  0.00    -0.225 NA
HETATM    8  C   UNL     1      44.517 -19.834   4.458  1.00  0.00     0.034 A 
HETATM    9  C   UNL     1      44.973 -20.998   3.836  1.00  0.00     0.002 A 
HETATM   10  C   UNL     1      44.533 -21.307   2.558  1.00  0.00     0.002 A 
HETATM   11  C   UNL     1      43.645 -20.446   1.910  1.00  0.00     0.034 A 
HETATM   12  C   UNL     1      41.561 -15.971   4.265  1.00  0.00     0.099 C 
HETATM   13  C   UNL     1      40.589 -15.779   3.288  1.00  0.00     0.122 C 
ENDROOT
BRANCH  12  14
HETATM   14  C   UNL     1      41.830 -15.119   5.424  1.00  0.00     0.236 C 
HETATM   15  N   UNL     1      40.724 -14.839   6.223  1.00  0.00    -0.258 NA
HETATM   16  H   UNL     1      40.076 -15.613   6.175  1.00  0.00     0.130 HD
HETATM   17  O   UNL     1      42.921 -14.607   5.644  1.00  0.00    -0.274 OA
BRANCH  15  18
HETATM   18  C   UNL     1      39.946 -13.649   5.894  1.00  0.00     0.099 C 
BRANCH  18  19
HETATM   19  C   UNL     1      40.732 -12.386   5.540  1.00  0.00     0.048 C 
BRANCH  19  20
HETATM   20  C   UNL     1      40.448 -11.989   4.104  1.00  0.00    -0.083 C 
HETATM   21  C   UNL     1      39.047 -11.530   3.774  1.00  0.00     0.034 C 
HETATM   22  C   UNL     1      38.753 -11.487   2.270  1.00  0.00     0.005 C 
HETATM   23  C   UNL     1      39.927 -10.912   1.482  1.00  0.00     0.004 C 
HETATM   24  C   UNL     1      41.198 -11.724   1.719  1.00  0.00     0.027 C 
HETATM   25  C   UNL     1      41.407 -12.076   3.162  1.00  0.00    -0.024 C 
ENDBRANCH  19  20
ENDBRANCH  18  19
ENDBRANCH  15  18
ENDBRANCH  12  14
BRANCH  13  26
HETATM   26  N   UNL     1      39.475 -14.980   3.247  1.00  0.00    -0.286 NA
HETATM   27  H   UNL     1      39.432 -14.232   3.941  1.00  0.00     0.125 HD
HETATM   28  H   UNL     1      38.587 -15.488   3.304  1.00  0.00     0.125 HD
ENDBRANCH  13  26
BRANCH   1  29
HETATM   29  N   UNL     1      40.601 -16.033   0.900  1.00  0.00    -0.176 NA
HETATM   30  C   UNL     1      41.307 -15.103   0.338  1.00  0.00     0.153 C 
BRANCH  30  31
HETATM   31  C   UNL     1      40.819 -14.434  -0.892  1.00  0.00     0.016 A 
HETATM   32  C   UNL     1      41.754 -14.075  -1.868  1.00  0.00     0.016 A 
HETATM   33  C   UNL     1      41.341 -13.358  -2.995  1.00  0.00     0.001 A 
HETATM   34  C   UNL     1      40.001 -12.998  -3.147  1.00  0.00     0.003 A 
HETATM   35  C   UNL     1      39.066 -13.356  -2.177  1.00  0.00     0.037 A 
HETATM   36  C   UNL     1      39.475 -14.069  -1.053  1.00  0.00     0.077 A 
BRANCH  36  37
HETATM   37  O   UNL     1      38.512 -14.352  -0.123  1.00  0.00    -0.360 OA
HETATM   38  H   UNL     1      38.970 -14.371   0.745  1.00  0.00     0.217 HD
ENDBRANCH  36  37
ENDBRANCH  30  31
ENDBRANCH   1  29
TORSDOF 8
ENDMDL
