MODEL 1
REMARK VINA RESULT:      -8.6      0.000      0.000
REMARK  9 active torsions:
REMARK  status: ('A' for Active; 'I' for Inactive)
REMARK       I    between atoms: C_2  and  N_3 
REMARK    1  A    between atoms: N_3  and  C_4 
REMARK    2  A    between atoms: C_4  and  C_5 
REMARK    3  A    between atoms: C_5  and  N_6 
REMARK       I    between atoms: N_6  and  C_7 
REMARK    4  A    between atoms: C_7  and  C_8 
REMARK    5  A    between atoms: C_8  and  C_9 
REMARK    6  A    between atoms: C_13  and  C_14 
REMARK    7  A    between atoms: C_14  and  O_15 
REMARK    8  A    between atoms: C_17  and  O_18 
REMARK    9  A    between atoms: C_25  and  C_26 
ROOT
HETATM    1  C   UNL     1      40.955 -15.028  -0.463  1.00  0.00     0.056 C 
HETATM    2  C   UNL     1      40.846 -13.436  -0.542  1.00  0.00    -0.030 C 
HETATM    3  C   UNL     1      42.127 -12.861  -1.215  1.00  0.00     0.016 C 
HETATM    4  C   UNL     1      40.693 -12.757   0.898  1.00  0.00     0.012 C 
HETATM    5  C   UNL     1      39.257 -12.860   1.578  1.00  0.00     0.008 C 
HETATM    6  C   UNL     1      39.171 -11.818   2.734  1.00  0.00     0.020 C 
HETATM    7  C   UNL     1      38.170 -12.457   0.534  1.00  0.00     0.128 C 
HETATM    8  C   UNL     1      38.295 -13.214  -0.781  1.00  0.00     0.033 C 
HETATM    9  C   UNL     1      39.654 -12.963  -1.412  1.00  0.00     0.013 C 
HETATM   10  C   UNL     1      41.874 -13.137   1.832  1.00  0.00     0.054 C 
HETATM   11  C   UNL     1      42.173 -14.588   1.744  1.00  0.00     0.010 A 
HETATM   12  C   UNL     1      41.779 -15.442   0.740  1.00  0.00     0.054 A 
HETATM   13  N   UNL     1      42.136 -16.763   0.936  1.00  0.00    -0.244 NA
HETATM   14  C   UNL     1      42.859 -16.891   2.037  1.00  0.00     0.110 A 
HETATM   15  S   UNL     1      43.080 -15.421   2.915  1.00  0.00    -0.072 SA
ENDROOT
BRANCH   1  16
HETATM   16  C   UNL     1      41.496 -15.752  -1.720  1.00  0.00     0.114 C 
BRANCH  16  17
HETATM   17  C   UNL     1      40.708 -15.505  -2.983  1.00  0.00     0.218 C 
HETATM   18  N   UNL     1      39.458 -16.076  -3.004  1.00  0.00    -0.359 N 
HETATM   19  H   UNL     1      39.207 -16.769  -2.311  1.00  0.00     0.162 HD
HETATM   20  O   UNL     1      41.161 -14.846  -3.913  1.00  0.00    -0.274 OA
BRANCH  18  21
HETATM   21  C   UNL     1      38.562 -15.902  -4.137  1.00  0.00     0.142 C 
BRANCH  21  22
HETATM   22  C   UNL     1      37.254 -15.202  -3.750  1.00  0.00     0.142 C 
BRANCH  22  23
HETATM   23  N   UNL     1      36.987 -14.024  -4.562  1.00  0.00    -0.360 N 
HETATM   24  C   UNL     1      35.785 -13.858  -5.209  1.00  0.00     0.213 C 
HETATM   25  C   UNL     1      35.663 -12.568  -5.975  1.00  0.00     0.117 C 
HETATM   26  O   UNL     1      34.878 -14.681  -5.170  1.00  0.00    -0.274 OA
HETATM   27  H   UNL     1      37.705 -13.315  -4.625  1.00  0.00     0.162 HD
ENDBRANCH  22  23
ENDBRANCH  21  22
ENDBRANCH  18  21
ENDBRANCH  16  17
ENDBRANCH   1  16
BRANCH   5  28
HETATM   28  C   UNL     1      38.953 -14.249   2.207  1.00  0.00     0.176 C 
BRANCH  28  29
HETATM   29  O   UNL     1      38.109 -15.048   1.379  1.00  0.00    -0.400 OA
HETATM   30  H   UNL     1      37.275 -15.166   1.882  1.00  0.00     0.209 HD
ENDBRANCH  28  29
ENDBRANCH   5  28
BRANCH  14  31
HETATM   31  C   UNL     1      43.401 -18.168   2.523  1.00  0.00     0.017 A 
HETATM   32  C   UNL     1      43.994 -18.331   3.774  1.00  0.00     0.130 A 
HETATM   33  N   UNL     1      44.504 -19.501   4.243  1.00  0.00    -0.272 NA
HETATM   34  C   UNL     1      44.424 -20.568   3.423  1.00  0.00     0.116 A 
HETATM   35  C   UNL     1      43.864 -20.522   2.159  1.00  0.00     0.020 A 
HETATM   36  C   UNL     1      43.353 -19.306   1.708  1.00  0.00     0.017 A 
ENDBRANCH  14  31
BRANCH   7  37
HETATM   37  O   UNL     1      36.849 -12.679   1.031  1.00  0.00    -0.395 OA
HETATM   38  H   UNL     1      36.849 -13.546   1.478  1.00  0.00     0.210 HD
ENDBRANCH   7  37
TORSDOF 9
ENDMDL
MODEL 2
REMARK VINA RESULT:      -8.6      4.911      8.560
REMARK  9 active torsions:
REMARK  status: ('A' for Active; 'I' for Inactive)
REMARK       I    between atoms: C_2  and  N_3 
REMARK    1  A    between atoms: N_3  and  C_4 
REMARK    2  A    between atoms: C_4  and  C_5 
REMARK    3  A    between atoms: C_5  and  N_6 
REMARK       I    between atoms: N_6  and  C_7 
REMARK    4  A    between atoms: C_7  and  C_8 
REMARK    5  A    between atoms: C_8  and  C_9 
REMARK    6  A    between atoms: C_13  and  C_14 
REMARK    7  A    between atoms: C_14  and  O_15 
REMARK    8  A    between atoms: C_17  and  O_18 
REMARK    9  A    between atoms: C_25  and  C_26 
ROOT
HETATM    1  C   UNL     1      41.882 -14.403   4.425  1.00  0.00     0.056 C 
HETATM    2  C   UNL     1      40.548 -13.534   4.290  1.00  0.00    -0.030 C 
HETATM    3  C   UNL     1      39.502 -14.024   5.334  1.00  0.00     0.016 C 
HETATM    4  C   UNL     1      39.889 -13.640   2.837  1.00  0.00     0.012 C 
HETATM    5  C   UNL     1      40.595 -12.806   1.678  1.00  0.00     0.008 C 
HETATM    6  C   UNL     1      39.613 -12.686   0.474  1.00  0.00     0.020 C 
HETATM    7  C   UNL     1      40.858 -11.355   2.185  1.00  0.00     0.128 C 
HETATM    8  C   UNL     1      41.587 -11.310   3.522  1.00  0.00     0.033 C 
HETATM    9  C   UNL     1      40.783 -12.032   4.590  1.00  0.00     0.013 C 
HETATM   10  C   UNL     1      39.571 -15.114   2.464  1.00  0.00     0.054 C 
HETATM   11  C   UNL     1      40.708 -16.004   2.810  1.00  0.00     0.010 A 
HETATM   12  C   UNL     1      41.738 -15.712   3.674  1.00  0.00     0.054 A 
HETATM   13  N   UNL     1      42.706 -16.694   3.766  1.00  0.00    -0.244 NA
HETATM   14  C   UNL     1      42.371 -17.748   3.041  1.00  0.00     0.110 A 
HETATM   15  S   UNL     1      40.895 -17.564   2.163  1.00  0.00    -0.072 SA
ENDROOT
BRANCH   1  16
HETATM   16  C   UNL     1      42.380 -14.697   5.862  1.00  0.00     0.114 C 
BRANCH  16  17
HETATM   17  C   UNL     1      43.664 -14.002   6.242  1.00  0.00     0.218 C 
HETATM   18  N   UNL     1      43.852 -13.837   7.594  1.00  0.00    -0.359 N 
HETATM   19  H   UNL     1      43.081 -13.986   8.233  1.00  0.00     0.162 HD
HETATM   20  O   UNL     1      44.470 -13.618   5.402  1.00  0.00    -0.274 OA
BRANCH  18  21
HETATM   21  C   UNL     1      45.056 -13.216   8.124  1.00  0.00     0.142 C 
BRANCH  21  22
HETATM   22  C   UNL     1      44.759 -11.935   8.912  1.00  0.00     0.142 C 
BRANCH  22  23
HETATM   23  N   UNL     1      43.833 -12.153  10.012  1.00  0.00    -0.360 N 
HETATM   24  C   UNL     1      43.877 -11.383  11.149  1.00  0.00     0.213 C 
HETATM   25  C   UNL     1      42.826 -11.720  12.172  1.00  0.00     0.117 C 
HETATM   26  O   UNL     1      44.697 -10.490  11.329  1.00  0.00    -0.274 OA
HETATM   27  H   UNL     1      43.136 -12.879   9.912  1.00  0.00     0.162 HD
ENDBRANCH  22  23
ENDBRANCH  21  22
ENDBRANCH  18  21
ENDBRANCH  16  17
ENDBRANCH   1  16
BRANCH   5  28
HETATM   28  C   UNL     1      41.894 -13.460   1.131  1.00  0.00     0.176 C 
BRANCH  28  29
HETATM   29  O   UNL     1      42.093 -13.197  -0.257  1.00  0.00    -0.400 OA
HETATM   30  H   UNL     1      43.047 -13.354  -0.425  1.00  0.00     0.209 HD
ENDBRANCH  28  29
ENDBRANCH   5  28
BRANCH  14  31
HETATM   31  C   UNL     1      43.184 -18.968   2.932  1.00  0.00     0.017 A 
HETATM   32  C   UNL     1      44.182 -19.316   3.840  1.00  0.00     0.130 A 
HETATM   33  N   UNL     1      44.947 -20.437   3.758  1.00  0.00    -0.272 NA
HETATM   34  C   UNL     1      44.710 -21.257   2.714  1.00  0.00     0.116 A 
HETATM   35  C   UNL     1      43.751 -21.009   1.749  1.00  0.00     0.020 A 
HETATM   36  C   UNL     1      42.985 -19.849   1.862  1.00  0.00     0.017 A 
ENDBRANCH  14  31
BRANCH   7  37
HETATM   37  O   UNL     1      41.631 -10.598   1.252  1.00  0.00    -0.395 OA
HETATM   38  H   UNL     1      41.625  -9.671   1.555  1.00  0.00     0.210 HD
ENDBRANCH   7  37
TORSDOF 9
ENDMDL
MODEL 3
REMARK VINA RESULT:      -8.3      3.932      8.298
REMARK  9 active torsions:
REMARK  status: ('A' for Active; 'I' for Inactive)
REMARK       I    between atoms: C_2  and  N_3 
REMARK    1  A    between atoms: N_3  and  C_4 
REMARK    2  A    between atoms: C_4  and  C_5 
REMARK    3  A    between atoms: C_5  and  N_6 
REMARK       I    between atoms: N_6  and  C_7 
REMARK    4  A    between atoms: C_7  and  C_8 
REMARK    5  A    between atoms: C_8  and  C_9 
REMARK    6  A    between atoms: C_13  and  C_14 
REMARK    7  A    between atoms: C_14  and  O_15 
REMARK    8  A    between atoms: C_17  and  O_18 
REMARK    9  A    between atoms: C_25  and  C_26 
ROOT
HETATM    1  C   UNL     1      41.970 -15.507   1.817  1.00  0.00     0.056 C 
HETATM    2  C   UNL     1      40.969 -15.947   2.983  1.00  0.00    -0.030 C 
HETATM    3  C   UNL     1      39.838 -16.835   2.388  1.00  0.00     0.016 C 
HETATM    4  C   UNL     1      40.290 -14.697   3.714  1.00  0.00     0.012 C 
HETATM    5  C   UNL     1      41.203 -13.900   4.746  1.00  0.00     0.008 C 
HETATM    6  C   UNL     1      40.290 -13.016   5.648  1.00  0.00     0.020 C 
HETATM    7  C   UNL     1      41.910 -14.919   5.692  1.00  0.00     0.128 C 
HETATM    8  C   UNL     1      42.636 -16.028   4.940  1.00  0.00     0.033 C 
HETATM    9  C   UNL     1      41.664 -16.806   4.070  1.00  0.00     0.013 C 
HETATM   10  C   UNL     1      39.526 -13.797   2.705  1.00  0.00     0.054 C 
HETATM   11  C   UNL     1      40.335 -13.567   1.482  1.00  0.00     0.010 A 
HETATM   12  C   UNL     1      41.417 -14.310   1.070  1.00  0.00     0.054 A 
HETATM   13  N   UNL     1      42.034 -13.840  -0.075  1.00  0.00    -0.244 NA
HETATM   14  C   UNL     1      41.378 -12.801  -0.564  1.00  0.00     0.110 A 
HETATM   15  S   UNL     1      40.020 -12.310   0.383  1.00  0.00    -0.072 SA
ENDROOT
BRANCH   1  16
HETATM   16  C   UNL     1      42.373 -16.599   0.796  1.00  0.00     0.114 C 
BRANCH  16  17
HETATM   17  C   UNL     1      43.513 -17.486   1.232  1.00  0.00     0.218 C 
HETATM   18  N   UNL     1      43.143 -18.749   1.628  1.00  0.00    -0.359 N 
HETATM   19  H   UNL     1      42.169 -18.959   1.803  1.00  0.00     0.162 HD
HETATM   20  O   UNL     1      44.677 -17.097   1.230  1.00  0.00    -0.274 OA
BRANCH  18  21
HETATM   21  C   UNL     1      44.129 -19.734   2.045  1.00  0.00     0.142 C 
BRANCH  21  22
HETATM   22  C   UNL     1      44.020 -20.083   3.533  1.00  0.00     0.142 C 
BRANCH  22  23
HETATM   23  N   UNL     1      44.591 -19.057   4.393  1.00  0.00    -0.360 N 
HETATM   24  C   UNL     1      44.557 -19.170   5.762  1.00  0.00     0.213 C 
HETATM   25  C   UNL     1      45.223 -18.038   6.498  1.00  0.00     0.117 C 
HETATM   26  O   UNL     1      44.033 -20.110   6.350  1.00  0.00    -0.274 OA
HETATM   27  H   UNL     1      45.035 -18.261   3.956  1.00  0.00     0.162 HD
ENDBRANCH  22  23
ENDBRANCH  21  22
ENDBRANCH  18  21
ENDBRANCH  16  17
ENDBRANCH   1  16
BRANCH   5  28
HETATM   28  C   UNL     1      42.228 -12.943   4.075  1.00  0.00     0.176 C 
BRANCH  28  29
HETATM   29  O   UNL     1      41.822 -11.577   4.144  1.00  0.00    -0.400 OA
HETATM   30  H   UNL     1      42.641 -11.048   4.028  1.00  0.00     0.209 HD
ENDBRANCH  28  29
ENDBRANCH   5  28
BRANCH  14  31
HETATM   31  C   UNL     1      41.771 -12.075  -1.780  1.00  0.00     0.017 A 
HETATM   32  C   UNL     1      41.471 -12.506  -3.071  1.00  0.00     0.130 A 
HETATM   33  N   UNL     1      41.826 -11.852  -4.208  1.00  0.00    -0.272 NA
HETATM   34  C   UNL     1      42.521 -10.707  -4.057  1.00  0.00     0.116 A 
HETATM   35  C   UNL     1      42.882 -10.188  -2.826  1.00  0.00     0.020 A 
HETATM   36  C   UNL     1      42.504 -10.885  -1.679  1.00  0.00     0.017 A 
ENDBRANCH  14  31
BRANCH   7  37
HETATM   37  O   UNL     1      42.867 -14.281   6.540  1.00  0.00    -0.395 OA
HETATM   38  H   UNL     1      42.715 -14.610   7.446  1.00  0.00     0.210 HD
ENDBRANCH   7  37
TORSDOF 9
ENDMDL
MODEL 4
REMARK VINA RESULT:      -8.1      3.640      8.639
REMARK  9 active torsions:
REMARK  status: ('A' for Active; 'I' for Inactive)
REMARK       I    between atoms: C_2  and  N_3 
REMARK    1  A    between atoms: N_3  and  C_4 
REMARK    2  A    between atoms: C_4  and  C_5 
REMARK    3  A    between atoms: C_5  and  N_6 
REMARK       I    between atoms: N_6  and  C_7 
REMARK    4  A    between atoms: C_7  and  C_8 
REMARK    5  A    between atoms: C_8  and  C_9 
REMARK    6  A    between atoms: C_13  and  C_14 
REMARK    7  A    between atoms: C_14  and  O_15 
REMARK    8  A    between atoms: C_17  and  O_18 
REMARK    9  A    between atoms: C_25  and  C_26 
ROOT
HETATM    1  C   UNL     1      41.957 -16.286   3.100  1.00  0.00     0.056 C 
HETATM    2  C   UNL     1      41.700 -16.284   4.677  1.00  0.00    -0.030 C 
HETATM    3  C   UNL     1      40.582 -17.311   5.023  1.00  0.00     0.016 C 
HETATM    4  C   UNL     1      41.248 -14.852   5.225  1.00  0.00     0.012 C 
HETATM    5  C   UNL     1      42.394 -13.756   5.372  1.00  0.00     0.008 C 
HETATM    6  C   UNL     1      41.877 -12.604   6.286  1.00  0.00     0.020 C 
HETATM    7  C   UNL     1      43.615 -14.393   6.105  1.00  0.00     0.128 C 
HETATM    8  C   UNL     1      44.075 -15.701   5.475  1.00  0.00     0.033 C 
HETATM    9  C   UNL     1      42.949 -16.721   5.484  1.00  0.00     0.013 C 
HETATM   10  C   UNL     1      39.967 -14.348   4.504  1.00  0.00     0.054 C 
HETATM   11  C   UNL     1      40.065 -14.564   3.039  1.00  0.00     0.010 A 
HETATM   12  C   UNL     1      40.934 -15.416   2.398  1.00  0.00     0.054 A 
HETATM   13  N   UNL     1      40.861 -15.378   1.018  1.00  0.00    -0.244 NA
HETATM   14  C   UNL     1      39.895 -14.565   0.625  1.00  0.00     0.110 A 
HETATM   15  S   UNL     1      39.075 -13.762   1.915  1.00  0.00    -0.072 SA
ENDROOT
BRANCH   1  16
HETATM   16  C   UNL     1      42.008 -17.669   2.405  1.00  0.00     0.114 C 
BRANCH  16  17
HETATM   17  C   UNL     1      43.377 -18.299   2.345  1.00  0.00     0.218 C 
HETATM   18  N   UNL     1      43.477 -19.521   2.966  1.00  0.00    -0.359 N 
HETATM   19  H   UNL     1      42.737 -19.839   3.580  1.00  0.00     0.162 HD
HETATM   20  O   UNL     1      44.322 -17.752   1.785  1.00  0.00    -0.274 OA
BRANCH  18  21
HETATM   21  C   UNL     1      44.722 -20.274   2.969  1.00  0.00     0.142 C 
BRANCH  21  22
HETATM   22  C   UNL     1      45.092 -20.797   4.361  1.00  0.00     0.142 C 
BRANCH  22  23
HETATM   23  N   UNL     1      44.696 -19.887   5.426  1.00  0.00    -0.360 N 
HETATM   24  C   UNL     1      44.044 -20.339   6.548  1.00  0.00     0.213 C 
HETATM   25  C   UNL     1      43.740 -19.271   7.564  1.00  0.00     0.117 C 
HETATM   26  O   UNL     1      43.733 -21.511   6.723  1.00  0.00    -0.274 OA
HETATM   27  H   UNL     1      44.930 -18.908   5.329  1.00  0.00     0.162 HD
ENDBRANCH  22  23
ENDBRANCH  21  22
ENDBRANCH  18  21
ENDBRANCH  16  17
ENDBRANCH   1  16
BRANCH   5  28
HETATM   28  C   UNL     1      42.818 -13.102   4.027  1.00  0.00     0.176 C 
BRANCH  28  29
HETATM   29  O   UNL     1      42.155 -11.861   3.792  1.00  0.00    -0.400 OA
HETATM   30  H   UNL     1      41.267 -12.094   3.445  1.00  0.00     0.209 HD
ENDBRANCH  28  29
ENDBRANCH   5  28
BRANCH  14  31
HETATM   31  C   UNL     1      39.553 -14.309  -0.782  1.00  0.00     0.017 A 
HETATM   32  C   UNL     1      40.445 -14.479  -1.839  1.00  0.00     0.130 A 
HETATM   33  N   UNL     1      40.152 -14.246  -3.145  1.00  0.00    -0.272 NA
HETATM   34  C   UNL     1      38.903 -13.818  -3.419  1.00  0.00     0.116 A 
HETATM   35  C   UNL     1      37.938 -13.606  -2.451  1.00  0.00     0.020 A 
HETATM   36  C   UNL     1      38.273 -13.852  -1.120  1.00  0.00     0.017 A 
ENDBRANCH  14  31
BRANCH   7  37
HETATM   37  O   UNL     1      44.739 -13.512   6.129  1.00  0.00    -0.395 OA
HETATM   38  H   UNL     1      44.393 -12.600   6.100  1.00  0.00     0.210 HD
ENDBRANCH   7  37
TORSDOF 9
ENDMDL
MODEL 5
REMARK VINA RESULT:      -8.0      2.099      3.245
REMARK  9 active torsions:
REMARK  status: ('A' for Active; 'I' for Inactive)
REMARK       I    between atoms: C_2  and  N_3 
REMARK    1  A    between atoms: N_3  and  C_4 
REMARK    2  A    between atoms: C_4  and  C_5 
REMARK    3  A    between atoms: C_5  and  N_6 
REMARK       I    between atoms: N_6  and  C_7 
REMARK    4  A    between atoms: C_7  and  C_8 
REMARK    5  A    between atoms: C_8  and  C_9 
REMARK    6  A    between atoms: C_13  and  C_14 
REMARK    7  A    between atoms: C_14  and  O_15 
REMARK    8  A    between atoms: C_17  and  O_18 
REMARK    9  A    between atoms: C_25  and  C_26 
ROOT
HETATM    1  C   UNL     1      40.999 -14.240   1.920  1.00  0.00     0.056 C 
HETATM    2  C   UNL     1      41.220 -12.700   2.284  1.00  0.00    -0.030 C 
HETATM    3  C   UNL     1      42.347 -12.110   1.387  1.00  0.00     0.016 C 
HETATM    4  C   UNL     1      41.634 -12.483   3.813  1.00  0.00     0.012 C 
HETATM    5  C   UNL     1      40.466 -12.610   4.888  1.00  0.00     0.008 C 
HETATM    6  C   UNL     1      40.941 -11.972   6.227  1.00  0.00     0.020 C 
HETATM    7  C   UNL     1      39.240 -11.774   4.406  1.00  0.00     0.128 C 
HETATM    8  C   UNL     1      38.817 -12.100   2.979  1.00  0.00     0.033 C 
HETATM    9  C   UNL     1      39.960 -11.839   2.013  1.00  0.00     0.013 C 
HETATM   10  C   UNL     1      42.922 -13.276   4.169  1.00  0.00     0.054 C 
HETATM   11  C   UNL     1      42.862 -14.655   3.625  1.00  0.00     0.010 A 
HETATM   12  C   UNL     1      42.023 -15.103   2.631  1.00  0.00     0.054 A 
HETATM   13  N   UNL     1      42.127 -16.454   2.357  1.00  0.00    -0.244 NA
HETATM   14  C   UNL     1      43.088 -17.003   3.081  1.00  0.00     0.110 A 
HETATM   15  S   UNL     1      43.863 -15.914   4.174  1.00  0.00    -0.072 SA
ENDROOT
BRANCH   1  16
HETATM   16  C   UNL     1      40.988 -14.605   0.415  1.00  0.00     0.114 C 
BRANCH  16  17
HETATM   17  C   UNL     1      39.886 -13.959  -0.387  1.00  0.00     0.218 C 
HETATM   18  N   UNL     1      40.306 -13.001  -1.279  1.00  0.00    -0.359 N 
HETATM   19  H   UNL     1      41.249 -12.638  -1.223  1.00  0.00     0.162 HD
HETATM   20  O   UNL     1      38.708 -14.271  -0.243  1.00  0.00    -0.274 OA
BRANCH  18  21
HETATM   21  C   UNL     1      39.369 -12.310  -2.150  1.00  0.00     0.142 C 
BRANCH  21  22
HETATM   22  C   UNL     1      39.509 -12.729  -3.617  1.00  0.00     0.142 C 
BRANCH  22  23
HETATM   23  N   UNL     1      38.917 -14.030  -3.889  1.00  0.00    -0.360 N 
HETATM   24  C   UNL     1      39.668 -15.180  -3.857  1.00  0.00     0.213 C 
HETATM   25  C   UNL     1      38.891 -16.441  -4.127  1.00  0.00     0.117 C 
HETATM   26  O   UNL     1      40.872 -15.195  -3.625  1.00  0.00    -0.274 OA
HETATM   27  H   UNL     1      37.926 -14.071  -4.086  1.00  0.00     0.162 HD
ENDBRANCH  22  23
ENDBRANCH  21  22
ENDBRANCH  18  21
ENDBRANCH  16  17
ENDBRANCH   1  16
BRANCH   5  28
HETATM   28  C   UNL     1      40.061 -14.076   5.211  1.00  0.00     0.176 C 
BRANCH  28  29
HETATM   29  O   UNL     1      40.280 -14.411   6.580  1.00  0.00    -0.400 OA
HETATM   30  H   UNL     1      40.034 -13.613   7.094  1.00  0.00     0.209 HD
ENDBRANCH  28  29
ENDBRANCH   5  28
BRANCH  14  31
HETATM   31  C   UNL     1      43.457 -18.424   3.020  1.00  0.00     0.017 A 
HETATM   32  C   UNL     1      44.164 -19.085   4.023  1.00  0.00     0.130 A 
HETATM   33  N   UNL     1      44.517 -20.397   3.987  1.00  0.00    -0.272 NA
HETATM   34  C   UNL     1      44.152 -21.092   2.891  1.00  0.00     0.116 A 
HETATM   35  C   UNL     1      43.457 -20.540   1.830  1.00  0.00     0.020 A 
HETATM   36  C   UNL     1      43.111 -19.190   1.899  1.00  0.00     0.017 A 
ENDBRANCH  14  31
BRANCH   7  37
HETATM   37  O   UNL     1      38.100 -11.972   5.245  1.00  0.00    -0.395 OA
HETATM   38  H   UNL     1      37.590 -11.140   5.242  1.00  0.00     0.210 HD
ENDBRANCH   7  37
TORSDOF 9
ENDMDL
MODEL 6
REMARK VINA RESULT:      -7.8      3.638      7.385
REMARK  9 active torsions:
REMARK  status: ('A' for Active; 'I' for Inactive)
REMARK       I    between atoms: C_2  and  N_3 
REMARK    1  A    between atoms: N_3  and  C_4 
REMARK    2  A    between atoms: C_4  and  C_5 
REMARK    3  A    between atoms: C_5  and  N_6 
REMARK       I    between atoms: N_6  and  C_7 
REMARK    4  A    between atoms: C_7  and  C_8 
REMARK    5  A    between atoms: C_8  and  C_9 
REMARK    6  A    between atoms: C_13  and  C_14 
REMARK    7  A    between atoms: C_14  and  O_15 
REMARK    8  A    between atoms: C_17  and  O_18 
REMARK    9  A    between atoms: C_25  and  C_26 
ROOT
HETATM    1  C   UNL     1      41.650 -13.353   2.069  1.00  0.00     0.056 C 
HETATM    2  C   UNL     1      40.246 -12.609   1.893  1.00  0.00    -0.030 C 
HETATM    3  C   UNL     1      39.591 -12.399   3.290  1.00  0.00     0.016 C 
HETATM    4  C   UNL     1      39.223 -13.434   0.982  1.00  0.00     0.012 C 
HETATM    5  C   UNL     1      39.484 -13.395  -0.588  1.00  0.00     0.008 C 
HETATM    6  C   UNL     1      38.198 -13.877  -1.325  1.00  0.00     0.020 C 
HETATM    7  C   UNL     1      39.722 -11.917  -1.027  1.00  0.00     0.128 C 
HETATM    8  C   UNL     1      40.786 -11.211  -0.197  1.00  0.00     0.033 C 
HETATM    9  C   UNL     1      40.394 -11.197   1.271  1.00  0.00     0.013 C 
HETATM   10  C   UNL     1      38.973 -14.856   1.556  1.00  0.00     0.054 C 
HETATM   11  C   UNL     1      40.249 -15.492   1.968  1.00  0.00     0.010 A 
HETATM   12  C   UNL     1      41.442 -14.848   2.202  1.00  0.00     0.054 A 
HETATM   13  N   UNL     1      42.496 -15.687   2.512  1.00  0.00    -0.244 NA
HETATM   14  C   UNL     1      42.086 -16.942   2.587  1.00  0.00     0.110 A 
HETATM   15  S   UNL     1      40.413 -17.164   2.221  1.00  0.00    -0.072 SA
ENDROOT
BRANCH   1  16
HETATM   16  C   UNL     1      42.557 -12.863   3.224  1.00  0.00     0.114 C 
BRANCH  16  17
HETATM   17  C   UNL     1      42.466 -13.675   4.492  1.00  0.00     0.218 C 
HETATM   18  N   UNL     1      43.642 -14.274   4.878  1.00  0.00    -0.359 N 
HETATM   19  H   UNL     1      44.421 -14.320   4.235  1.00  0.00     0.162 HD
HETATM   20  O   UNL     1      41.418 -13.788   5.118  1.00  0.00    -0.274 OA
BRANCH  18  21
HETATM   21  C   UNL     1      43.727 -15.064   6.097  1.00  0.00     0.142 C 
BRANCH  21  22
HETATM   22  C   UNL     1      44.599 -14.401   7.169  1.00  0.00     0.142 C 
BRANCH  22  23
HETATM   23  N   UNL     1      43.961 -13.241   7.773  1.00  0.00    -0.360 N 
HETATM   24  C   UNL     1      44.596 -12.497   8.739  1.00  0.00     0.213 C 
HETATM   25  C   UNL     1      43.808 -11.312   9.230  1.00  0.00     0.117 C 
HETATM   26  O   UNL     1      45.712 -12.761   9.171  1.00  0.00    -0.274 OA
HETATM   27  H   UNL     1      43.039 -12.981   7.450  1.00  0.00     0.162 HD
ENDBRANCH  22  23
ENDBRANCH  21  22
ENDBRANCH  18  21
ENDBRANCH  16  17
ENDBRANCH   1  16
BRANCH   5  28
HETATM   28  C   UNL     1      40.641 -14.320  -1.060  1.00  0.00     0.176 C 
BRANCH  28  29
HETATM   29  O   UNL     1      40.167 -15.479  -1.743  1.00  0.00    -0.400 OA
HETATM   30  H   UNL     1      40.945 -16.069  -1.839  1.00  0.00     0.209 HD
ENDBRANCH  28  29
ENDBRANCH   5  28
BRANCH  14  31
HETATM   31  C   UNL     1      42.962 -18.078   2.906  1.00  0.00     0.017 A 
HETATM   32  C   UNL     1      43.687 -18.189   4.092  1.00  0.00     0.130 A 
HETATM   33  N   UNL     1      44.503 -19.229   4.407  1.00  0.00    -0.272 NA
HETATM   34  C   UNL     1      44.610 -20.214   3.492  1.00  0.00     0.116 A 
HETATM   35  C   UNL     1      43.945 -20.207   2.279  1.00  0.00     0.020 A 
HETATM   36  C   UNL     1      43.117 -19.124   1.987  1.00  0.00     0.017 A 
ENDBRANCH  14  31
BRANCH   7  37
HETATM   37  O   UNL     1      40.118 -11.827  -2.396  1.00  0.00    -0.395 OA
HETATM   38  H   UNL     1      41.071 -12.033  -2.437  1.00  0.00     0.210 HD
ENDBRANCH   7  37
TORSDOF 9
ENDMDL
MODEL 7
REMARK VINA RESULT:      -7.8      3.674      6.731
REMARK  9 active torsions:
REMARK  status: ('A' for Active; 'I' for Inactive)
REMARK       I    between atoms: C_2  and  N_3 
REMARK    1  A    between atoms: N_3  and  C_4 
REMARK    2  A    between atoms: C_4  and  C_5 
REMARK    3  A    between atoms: C_5  and  N_6 
REMARK       I    between atoms: N_6  and  C_7 
REMARK    4  A    between atoms: C_7  and  C_8 
REMARK    5  A    between atoms: C_8  and  C_9 
REMARK    6  A    between atoms: C_13  and  C_14 
REMARK    7  A    between atoms: C_14  and  O_15 
REMARK    8  A    between atoms: C_17  and  O_18 
REMARK    9  A    between atoms: C_25  and  C_26 
ROOT
HETATM    1  C   UNL     1      39.823 -13.660   2.274  1.00  0.00     0.056 C 
HETATM    2  C   UNL     1      38.925 -13.018   1.119  1.00  0.00    -0.030 C 
HETATM    3  C   UNL     1      37.623 -13.854   0.948  1.00  0.00     0.016 C 
HETATM    4  C   UNL     1      39.677 -12.973  -0.291  1.00  0.00     0.012 C 
HETATM    5  C   UNL     1      40.782 -11.841  -0.468  1.00  0.00     0.008 C 
HETATM    6  C   UNL     1      41.097 -11.675  -1.985  1.00  0.00     0.020 C 
HETATM    7  C   UNL     1      40.195 -10.478   0.016  1.00  0.00     0.128 C 
HETATM    8  C   UNL     1      39.589 -10.550   1.412  1.00  0.00     0.033 C 
HETATM    9  C   UNL     1      38.468 -11.575   1.453  1.00  0.00     0.013 C 
HETATM   10  C   UNL     1      40.134 -14.390  -0.735  1.00  0.00     0.054 C 
HETATM   11  C   UNL     1      40.758 -15.123   0.395  1.00  0.00     0.010 A 
HETATM   12  C   UNL     1      40.633 -14.820   1.731  1.00  0.00     0.054 A 
HETATM   13  N   UNL     1      41.374 -15.626   2.574  1.00  0.00    -0.244 NA
HETATM   14  C   UNL     1      41.989 -16.576   1.889  1.00  0.00     0.110 A 
HETATM   15  S   UNL     1      41.745 -16.490   0.182  1.00  0.00    -0.072 SA
ENDROOT
BRANCH   1  16
HETATM   16  C   UNL     1      39.085 -14.115   3.558  1.00  0.00     0.114 C 
BRANCH  16  17
HETATM   17  C   UNL     1      39.783 -13.767   4.849  1.00  0.00     0.218 C 
HETATM   18  N   UNL     1      39.991 -12.423   5.047  1.00  0.00    -0.359 N 
HETATM   19  H   UNL     1      39.867 -11.773   4.281  1.00  0.00     0.162 HD
HETATM   20  O   UNL     1      40.136 -14.626   5.650  1.00  0.00    -0.274 OA
BRANCH  18  21
HETATM   21  C   UNL     1      40.621 -11.922   6.259  1.00  0.00     0.142 C 
BRANCH  21  22
HETATM   22  C   UNL     1      42.151 -11.922   6.170  1.00  0.00     0.142 C 
BRANCH  22  23
HETATM   23  N   UNL     1      42.743 -13.146   6.686  1.00  0.00    -0.360 N 
HETATM   24  C   UNL     1      43.602 -13.903   5.925  1.00  0.00     0.213 C 
HETATM   25  C   UNL     1      44.150 -15.117   6.625  1.00  0.00     0.117 C 
HETATM   26  O   UNL     1      43.909 -13.622   4.772  1.00  0.00    -0.274 OA
HETATM   27  H   UNL     1      42.522 -13.422   7.634  1.00  0.00     0.162 HD
ENDBRANCH  22  23
ENDBRANCH  21  22
ENDBRANCH  18  21
ENDBRANCH  16  17
ENDBRANCH   1  16
BRANCH   5  28
HETATM   28  C   UNL     1      42.131 -12.159   0.235  1.00  0.00     0.176 C 
BRANCH  28  29
HETATM   29  O   UNL     1      43.209 -11.375  -0.274  1.00  0.00    -0.400 OA
HETATM   30  H   UNL     1      44.021 -11.905  -0.121  1.00  0.00     0.209 HD
ENDBRANCH  28  29
ENDBRANCH   5  28
BRANCH  14  31
HETATM   31  C   UNL     1      42.851 -17.602   2.493  1.00  0.00     0.017 A 
HETATM   32  C   UNL     1      43.423 -17.487   3.758  1.00  0.00     0.130 A 
HETATM   33  N   UNL     1      44.223 -18.422   4.335  1.00  0.00    -0.272 NA
HETATM   34  C   UNL     1      44.473 -19.533   3.613  1.00  0.00     0.116 A 
HETATM   35  C   UNL     1      43.967 -19.752   2.345  1.00  0.00     0.020 A 
HETATM   36  C   UNL     1      43.151 -18.771   1.782  1.00  0.00     0.017 A 
ENDBRANCH  14  31
BRANCH   7  37
HETATM   37  O   UNL     1      41.186  -9.449   0.033  1.00  0.00    -0.395 OA
HETATM   38  H   UNL     1      41.511  -9.344  -0.881  1.00  0.00     0.210 HD
ENDBRANCH   7  37
TORSDOF 9
ENDMDL
MODEL 8
REMARK VINA RESULT:      -7.7      3.272      6.396
REMARK  9 active torsions:
REMARK  status: ('A' for Active; 'I' for Inactive)
REMARK       I    between atoms: C_2  and  N_3 
REMARK    1  A    between atoms: N_3  and  C_4 
REMARK    2  A    between atoms: C_4  and  C_5 
REMARK    3  A    between atoms: C_5  and  N_6 
REMARK       I    between atoms: N_6  and  C_7 
REMARK    4  A    between atoms: C_7  and  C_8 
REMARK    5  A    between atoms: C_8  and  C_9 
REMARK    6  A    between atoms: C_13  and  C_14 
REMARK    7  A    between atoms: C_14  and  O_15 
REMARK    8  A    between atoms: C_17  and  O_18 
REMARK    9  A    between atoms: C_25  and  C_26 
ROOT
HETATM    1  C   UNL     1      39.522 -12.918   0.584  1.00  0.00     0.056 C 
HETATM    2  C   UNL     1      39.101 -12.588  -0.922  1.00  0.00    -0.030 C 
HETATM    3  C   UNL     1      37.833 -13.409  -1.299  1.00  0.00     0.016 C 
HETATM    4  C   UNL     1      40.253 -12.940  -1.974  1.00  0.00     0.012 C 
HETATM    5  C   UNL     1      41.474 -11.921  -2.052  1.00  0.00     0.008 C 
HETATM    6  C   UNL     1      42.259 -12.176  -3.374  1.00  0.00     0.020 C 
HETATM    7  C   UNL     1      40.918 -10.466  -2.137  1.00  0.00     0.128 C 
HETATM    8  C   UNL     1      39.906 -10.148  -1.044  1.00  0.00     0.033 C 
HETATM    9  C   UNL     1      38.723 -11.098  -1.122  1.00  0.00     0.013 C 
HETATM   10  C   UNL     1      40.668 -14.434  -1.881  1.00  0.00     0.054 C 
HETATM   11  C   UNL     1      40.828 -14.851  -0.466  1.00  0.00     0.010 A 
HETATM   12  C   UNL     1      40.329 -14.199   0.637  1.00  0.00     0.054 A 
HETATM   13  N   UNL     1      40.681 -14.766   1.848  1.00  0.00    -0.244 NA
HETATM   14  C   UNL     1      41.371 -15.879   1.658  1.00  0.00     0.110 A 
HETATM   15  S   UNL     1      41.678 -16.247  -0.001  1.00  0.00    -0.072 SA
ENDROOT
BRANCH   1  16
HETATM   16  C   UNL     1      38.378 -12.996   1.625  1.00  0.00     0.114 C 
BRANCH  16  17
HETATM   17  C   UNL     1      38.518 -12.052   2.794  1.00  0.00     0.218 C 
HETATM   18  N   UNL     1      39.425 -12.448   3.749  1.00  0.00    -0.359 N 
HETATM   19  H   UNL     1      39.787 -13.393   3.741  1.00  0.00     0.162 HD
HETATM   20  O   UNL     1      37.867 -11.017   2.876  1.00  0.00    -0.274 OA
BRANCH  18  21
HETATM   21  C   UNL     1      39.700 -11.631   4.921  1.00  0.00     0.142 C 
BRANCH  21  22
HETATM   22  C   UNL     1      40.996 -12.036   5.630  1.00  0.00     0.142 C 
BRANCH  22  23
HETATM   23  N   UNL     1      42.047 -12.422   4.701  1.00  0.00    -0.360 N 
HETATM   24  C   UNL     1      42.764 -13.583   4.872  1.00  0.00     0.213 C 
HETATM   25  C   UNL     1      43.788 -13.847   3.801  1.00  0.00     0.117 C 
HETATM   26  O   UNL     1      42.591 -14.351   5.811  1.00  0.00    -0.274 OA
HETATM   27  H   UNL     1      42.229 -11.821   3.908  1.00  0.00     0.162 HD
ENDBRANCH  22  23
ENDBRANCH  21  22
ENDBRANCH  18  21
ENDBRANCH  16  17
ENDBRANCH   1  16
BRANCH   5  28
HETATM   28  C   UNL     1      42.496 -12.071  -0.891  1.00  0.00     0.176 C 
BRANCH  28  29
HETATM   29  O   UNL     1      43.695 -11.334  -1.123  1.00  0.00    -0.400 OA
HETATM   30  H   UNL     1      44.432 -11.952  -0.928  1.00  0.00     0.209 HD
ENDBRANCH  28  29
ENDBRANCH   5  28
BRANCH  14  31
HETATM   31  C   UNL     1      41.887 -16.726   2.743  1.00  0.00     0.017 A 
HETATM   32  C   UNL     1      41.193 -16.977   3.925  1.00  0.00     0.130 A 
HETATM   33  N   UNL     1      41.652 -17.755   4.941  1.00  0.00    -0.272 NA
HETATM   34  C   UNL     1      42.868 -18.312   4.777  1.00  0.00     0.116 A 
HETATM   35  C   UNL     1      43.649 -18.126   3.650  1.00  0.00     0.020 A 
HETATM   36  C   UNL     1      43.150 -17.320   2.627  1.00  0.00     0.017 A 
ENDBRANCH  14  31
BRANCH   7  37
HETATM   37  O   UNL     1      41.960  -9.493  -2.051  1.00  0.00    -0.395 OA
HETATM   38  H   UNL     1      41.599  -8.723  -1.573  1.00  0.00     0.210 HD
ENDBRANCH   7  37
TORSDOF 9
ENDMDL
MODEL 9
REMARK VINA RESULT:      -7.7      3.807      5.932
REMARK  9 active torsions:
REMARK  status: ('A' for Active; 'I' for Inactive)
REMARK       I    between atoms: C_2  and  N_3 
REMARK    1  A    between atoms: N_3  and  C_4 
REMARK    2  A    between atoms: C_4  and  C_5 
REMARK    3  A    between atoms: C_5  and  N_6 
REMARK       I    between atoms: N_6  and  C_7 
REMARK    4  A    between atoms: C_7  and  C_8 
REMARK    5  A    between atoms: C_8  and  C_9 
REMARK    6  A    between atoms: C_13  and  C_14 
REMARK    7  A    between atoms: C_14  and  O_15 
REMARK    8  A    between atoms: C_17  and  O_18 
REMARK    9  A    between atoms: C_25  and  C_26 
ROOT
HETATM    1  C   UNL     1      38.889 -13.017   0.007  1.00  0.00     0.056 C 
HETATM    2  C   UNL     1      38.988 -13.075  -1.587  1.00  0.00    -0.030 C 
HETATM    3  C   UNL     1      38.027 -14.173  -2.128  1.00  0.00     0.016 C 
HETATM    4  C   UNL     1      40.465 -13.409  -2.100  1.00  0.00     0.012 C 
HETATM    5  C   UNL     1      41.521 -12.219  -2.039  1.00  0.00     0.008 C 
HETATM    6  C   UNL     1      42.741 -12.580  -2.939  1.00  0.00     0.020 C 
HETATM    7  C   UNL     1      40.878 -10.938  -2.654  1.00  0.00     0.128 C 
HETATM    8  C   UNL     1      39.520 -10.601  -2.051  1.00  0.00     0.033 C 
HETATM    9  C   UNL     1      38.547 -11.750  -2.259  1.00  0.00     0.013 C 
HETATM   10  C   UNL     1      40.979 -14.753  -1.513  1.00  0.00     0.054 C 
HETATM   11  C   UNL     1      40.678 -14.845  -0.062  1.00  0.00     0.010 A 
HETATM   12  C   UNL     1      39.758 -14.091   0.629  1.00  0.00     0.054 A 
HETATM   13  N   UNL     1      39.723 -14.334   1.989  1.00  0.00    -0.244 NA
HETATM   14  C   UNL     1      40.551 -15.315   2.309  1.00  0.00     0.110 A 
HETATM   15  S   UNL     1      41.455 -15.941   0.978  1.00  0.00    -0.072 SA
ENDROOT
BRANCH   1  16
HETATM   16  C   UNL     1      37.469 -13.097   0.619  1.00  0.00     0.114 C 
BRANCH  16  17
HETATM   17  C   UNL     1      36.891 -11.774   1.056  1.00  0.00     0.218 C 
HETATM   18  N   UNL     1      35.600 -11.544   0.642  1.00  0.00    -0.359 N 
HETATM   19  H   UNL     1      35.184 -12.133  -0.068  1.00  0.00     0.162 HD
HETATM   20  O   UNL     1      37.532 -10.973   1.727  1.00  0.00    -0.274 OA
BRANCH  18  21
HETATM   21  C   UNL     1      34.889 -10.329   1.009  1.00  0.00     0.142 C 
BRANCH  21  22
HETATM   22  C   UNL     1      33.424 -10.592   1.373  1.00  0.00     0.142 C 
BRANCH  22  23
HETATM   23  N   UNL     1      33.208 -10.679   2.809  1.00  0.00    -0.360 N 
HETATM   24  C   UNL     1      32.821  -9.584   3.543  1.00  0.00     0.213 C 
HETATM   25  C   UNL     1      32.609  -9.858   5.008  1.00  0.00     0.117 C 
HETATM   26  O   UNL     1      32.655  -8.470   3.058  1.00  0.00    -0.274 OA
HETATM   27  H   UNL     1      33.332 -11.578   3.256  1.00  0.00     0.162 HD
ENDBRANCH  22  23
ENDBRANCH  21  22
ENDBRANCH  18  21
ENDBRANCH  16  17
ENDBRANCH   1  16
BRANCH   5  28
HETATM   28  C   UNL     1      42.083 -11.945  -0.616  1.00  0.00     0.176 C 
BRANCH  28  29
HETATM   29  O   UNL     1      43.330 -11.253  -0.647  1.00  0.00    -0.400 OA
HETATM   30  H   UNL     1      43.549 -11.138  -1.597  1.00  0.00     0.209 HD
ENDBRANCH  28  29
ENDBRANCH   5  28
BRANCH  14  31
HETATM   31  C   UNL     1      40.742 -15.821   3.676  1.00  0.00     0.017 A 
HETATM   32  C   UNL     1      40.485 -15.071   4.822  1.00  0.00     0.130 A 
HETATM   33  N   UNL     1      40.656 -15.517   6.094  1.00  0.00    -0.272 NA
HETATM   34  C   UNL     1      41.111 -16.779   6.238  1.00  0.00     0.116 A 
HETATM   35  C   UNL     1      41.407 -17.611   5.173  1.00  0.00     0.020 A 
HETATM   36  C   UNL     1      41.222 -17.121   3.881  1.00  0.00     0.017 A 
ENDBRANCH  14  31
BRANCH   7  37
HETATM   37  O   UNL     1      41.715  -9.791  -2.488  1.00  0.00    -0.395 OA
HETATM   38  H   UNL     1      41.950  -9.472  -3.379  1.00  0.00     0.210 HD
ENDBRANCH   7  37
TORSDOF 9
ENDMDL
MODEL 10
REMARK VINA RESULT:      -7.4      2.279      3.313
REMARK  9 active torsions:
REMARK  status: ('A' for Active; 'I' for Inactive)
REMARK       I    between atoms: C_2  and  N_3 
REMARK    1  A    between atoms: N_3  and  C_4 
REMARK    2  A    between atoms: C_4  and  C_5 
REMARK    3  A    between atoms: C_5  and  N_6 
REMARK       I    between atoms: N_6  and  C_7 
REMARK    4  A    between atoms: C_7  and  C_8 
REMARK    5  A    between atoms: C_8  and  C_9 
REMARK    6  A    between atoms: C_13  and  C_14 
REMARK    7  A    between atoms: C_14  and  O_15 
REMARK    8  A    between atoms: C_17  and  O_18 
REMARK    9  A    between atoms: C_25  and  C_26 
ROOT
HETATM    1  C   UNL     1      40.792 -14.128   1.770  1.00  0.00     0.056 C 
HETATM    2  C   UNL     1      41.023 -12.574   2.061  1.00  0.00    -0.030 C 
HETATM    3  C   UNL     1      42.090 -12.014   1.075  1.00  0.00     0.016 C 
HETATM    4  C   UNL     1      41.528 -12.296   3.552  1.00  0.00     0.012 C 
HETATM    5  C   UNL     1      40.428 -12.387   4.700  1.00  0.00     0.008 C 
HETATM    6  C   UNL     1      40.979 -11.695   5.983  1.00  0.00     0.020 C 
HETATM    7  C   UNL     1      39.169 -11.576   4.262  1.00  0.00     0.128 C 
HETATM    8  C   UNL     1      38.663 -11.958   2.878  1.00  0.00     0.033 C 
HETATM    9  C   UNL     1      39.743 -11.729   1.834  1.00  0.00     0.013 C 
HETATM   10  C   UNL     1      42.841 -13.069   3.860  1.00  0.00     0.054 C 
HETATM   11  C   UNL     1      42.757 -14.468   3.373  1.00  0.00     0.010 A 
HETATM   12  C   UNL     1      41.863 -14.958   2.450  1.00  0.00     0.054 A 
HETATM   13  N   UNL     1      41.959 -16.318   2.222  1.00  0.00    -0.244 NA
HETATM   14  C   UNL     1      42.966 -16.834   2.907  1.00  0.00     0.110 A 
HETATM   15  S   UNL     1      43.798 -15.700   3.908  1.00  0.00    -0.072 SA
ENDROOT
BRANCH   1  16
HETATM   16  C   UNL     1      40.692 -14.551   0.283  1.00  0.00     0.114 C 
BRANCH  16  17
HETATM   17  C   UNL     1      39.319 -14.409  -0.326  1.00  0.00     0.218 C 
HETATM   18  N   UNL     1      39.296 -14.408  -1.700  1.00  0.00    -0.359 N 
HETATM   19  H   UNL     1      40.157 -14.298  -2.221  1.00  0.00     0.162 HD
HETATM   20  O   UNL     1      38.310 -14.303   0.362  1.00  0.00    -0.274 OA
BRANCH  18  21
HETATM   21  C   UNL     1      38.046 -14.313  -2.439  1.00  0.00     0.142 C 
BRANCH  21  22
HETATM   22  C   UNL     1      37.873 -12.957  -3.131  1.00  0.00     0.142 C 
BRANCH  22  23
HETATM   23  N   UNL     1      37.363 -11.930  -2.235  1.00  0.00    -0.360 N 
HETATM   24  C   UNL     1      38.210 -11.082  -1.562  1.00  0.00     0.213 C 
HETATM   25  C   UNL     1      37.516 -10.058  -0.705  1.00  0.00     0.117 C 
HETATM   26  O   UNL     1      39.432 -11.140  -1.646  1.00  0.00    -0.274 OA
HETATM   27  H   UNL     1      36.361 -11.841  -2.131  1.00  0.00     0.162 HD
ENDBRANCH  22  23
ENDBRANCH  21  22
ENDBRANCH  18  21
ENDBRANCH  16  17
ENDBRANCH   1  16
BRANCH   5  28
HETATM   28  C   UNL     1      40.054 -13.841   5.103  1.00  0.00     0.176 C 
BRANCH  28  29
HETATM   29  O   UNL     1      39.851 -13.981   6.508  1.00  0.00    -0.400 OA
HETATM   30  H   UNL     1      39.991 -13.087   6.889  1.00  0.00     0.209 HD
ENDBRANCH  28  29
ENDBRANCH   5  28
BRANCH  14  31
HETATM   31  C   UNL     1      43.340 -18.256   2.878  1.00  0.00     0.017 A 
HETATM   32  C   UNL     1      42.960 -19.136   1.867  1.00  0.00     0.130 A 
HETATM   33  N   UNL     1      43.294 -20.453   1.820  1.00  0.00    -0.272 NA
HETATM   34  C   UNL     1      44.044 -20.924   2.837  1.00  0.00     0.116 A 
HETATM   35  C   UNL     1      44.472 -20.145   3.897  1.00  0.00     0.020 A 
HETATM   36  C   UNL     1      44.110 -18.798   3.915  1.00  0.00     0.017 A 
ENDBRANCH  14  31
BRANCH   7  37
HETATM   37  O   UNL     1      38.084 -11.746   5.176  1.00  0.00    -0.395 OA
HETATM   38  H   UNL     1      37.760 -12.660   5.074  1.00  0.00     0.210 HD
ENDBRANCH   7  37
TORSDOF 9
ENDMDL
