MODEL 1
REMARK VINA RESULT:      -7.6      0.000      0.000
REMARK  6 active torsions:
REMARK  status: ('A' for Active; 'I' for Inactive)
REMARK    1  A    between atoms: C_3  and  N_4 
REMARK       I    between atoms: N_4  and  C_5 
REMARK       I    between atoms: C_5  and  N_6 
REMARK    2  A    between atoms: N_6  and  C_7 
REMARK    3  A    between atoms: C_7  and  C_8 
REMARK    4  A    between atoms: C_8  and  C_9 
REMARK    5  A    between atoms: C_21  and  O_22 
REMARK    6  A    between atoms: O_22  and  C_23 
ROOT
HETATM    1  N   UNL     1      40.907 -16.623   3.916  1.00  0.00    -0.308 N 
HETATM    2  C   UNL     1      41.012 -15.457   4.612  1.00  0.00     0.322 C 
HETATM    3  N   UNL     1      42.052 -14.593   4.336  1.00  0.00    -0.338 N 
HETATM    4  C   UNL     1      42.754 -14.547   3.056  1.00  0.00     0.154 C 
HETATM    5  O   UNL     1      40.117 -15.172   5.409  1.00  0.00    -0.247 OA
HETATM    6  H   UNL     1      39.961 -16.984   3.938  1.00  0.00     0.170 HD
ENDROOT
BRANCH   1   7
HETATM    7  C   UNL     1      41.901 -17.569   3.583  1.00  0.00     0.042 A 
HETATM    8  C   UNL     1      42.014 -17.993   2.243  1.00  0.00    -0.033 A 
HETATM    9  C   UNL     1      41.141 -17.426   1.153  1.00  0.00     0.050 C 
HETATM   10  C   UNL     1      42.965 -18.972   1.907  1.00  0.00     0.045 A 
HETATM   11  C   UNL     1      43.806 -19.504   2.884  1.00  0.00     0.075 A 
HETATM   12  C   UNL     1      43.668 -19.113   4.211  1.00  0.00     0.039 A 
HETATM   13  C   UNL     1      42.723 -18.147   4.559  1.00  0.00     0.033 A 
BRANCH  11  14
HETATM   14  O   UNL     1      44.721 -20.482   2.611  1.00  0.00    -0.290 OA
BRANCH  14  15
HETATM   15  C   UNL     1      44.098 -21.723   2.304  1.00  0.00     0.505 C 
HETATM   16  F   UNL     1      44.326 -22.027   1.002  1.00  0.00    -0.184 F 
HETATM   17  F   UNL     1      44.721 -22.679   3.040  1.00  0.00    -0.184 F 
ENDBRANCH  14  15
ENDBRANCH  11  14
ENDBRANCH   1   7
BRANCH   3  18
HETATM   18  C   UNL     1      42.180 -13.393   5.168  1.00  0.00     0.132 C 
BRANCH  18  19
HETATM   19  C   UNL     1      41.876 -12.095   4.400  1.00  0.00     0.062 C 
BRANCH  19  20
HETATM   20  C   UNL     1      40.444 -11.680   4.505  1.00  0.00    -0.007 A 
HETATM   21  C   UNL     1      39.860 -10.815   5.474  1.00  0.00     0.059 A 
HETATM   22  C   UNL     1      40.521 -10.105   6.597  1.00  0.00     0.073 C 
HETATM   23  N   UNL     1      38.547 -10.658   5.272  1.00  0.00    -0.179 NA
HETATM   24  N   UNL     1      38.292 -11.395   4.183  1.00  0.00    -0.282 N 
HETATM   25  H   UNL     1      37.340 -11.417   3.833  1.00  0.00     0.189 HD
HETATM   26  C   UNL     1      39.391 -12.032   3.679  1.00  0.00     0.032 A 
HETATM   27  C   UNL     1      39.322 -12.894   2.478  1.00  0.00     0.070 C 
ENDBRANCH  19  20
ENDBRANCH  18  19
ENDBRANCH   3  18
TORSDOF 6
ENDMDL
MODEL 2
REMARK VINA RESULT:      -7.6      2.486      3.941
REMARK  6 active torsions:
REMARK  status: ('A' for Active; 'I' for Inactive)
REMARK    1  A    between atoms: C_3  and  N_4 
REMARK       I    between atoms: N_4  and  C_5 
REMARK       I    between atoms: C_5  and  N_6 
REMARK    2  A    between atoms: N_6  and  C_7 
REMARK    3  A    between atoms: C_7  and  C_8 
REMARK    4  A    between atoms: C_8  and  C_9 
REMARK    5  A    between atoms: C_21  and  O_22 
REMARK    6  A    between atoms: O_22  and  C_23 
ROOT
HETATM    1  N   UNL     1      43.608 -15.737   4.627  1.00  0.00    -0.308 N 
HETATM    2  C   UNL     1      42.640 -14.842   4.288  1.00  0.00     0.322 C 
HETATM    3  N   UNL     1      41.315 -15.226   4.331  1.00  0.00    -0.338 N 
HETATM    4  C   UNL     1      40.809 -16.309   5.169  1.00  0.00     0.154 C 
HETATM    5  O   UNL     1      42.979 -13.684   4.038  1.00  0.00    -0.247 OA
HETATM    6  H   UNL     1      44.465 -15.271   4.902  1.00  0.00     0.170 HD
ENDROOT
BRANCH   1   7
HETATM    7  C   UNL     1      43.757 -17.091   4.256  1.00  0.00     0.042 A 
HETATM    8  C   UNL     1      43.989 -18.051   5.264  1.00  0.00    -0.033 A 
HETATM    9  C   UNL     1      44.030 -17.678   6.722  1.00  0.00     0.050 C 
HETATM   10  C   UNL     1      44.189 -19.395   4.903  1.00  0.00     0.045 A 
HETATM   11  C   UNL     1      44.136 -19.783   3.565  1.00  0.00     0.075 A 
HETATM   12  C   UNL     1      43.945 -18.830   2.570  1.00  0.00     0.039 A 
HETATM   13  C   UNL     1      43.752 -17.491   2.914  1.00  0.00     0.033 A 
BRANCH  11  14
HETATM   14  O   UNL     1      44.359 -21.070   3.164  1.00  0.00    -0.290 OA
BRANCH  14  15
HETATM   15  C   UNL     1      44.006 -21.273   1.802  1.00  0.00     0.505 C 
HETATM   16  F   UNL     1      44.793 -22.245   1.276  1.00  0.00    -0.184 F 
HETATM   17  F   UNL     1      42.735 -21.750   1.782  1.00  0.00    -0.184 F 
ENDBRANCH  14  15
ENDBRANCH  11  14
ENDBRANCH   1   7
BRANCH   3  18
HETATM   18  C   UNL     1      40.311 -14.261   3.873  1.00  0.00     0.132 C 
BRANCH  18  19
HETATM   19  C   UNL     1      39.569 -14.723   2.607  1.00  0.00     0.062 C 
BRANCH  19  20
HETATM   20  C   UNL     1      40.471 -14.863   1.424  1.00  0.00    -0.007 A 
HETATM   21  C   UNL     1      41.033 -13.820   0.632  1.00  0.00     0.059 A 
HETATM   22  C   UNL     1      40.879 -12.353   0.793  1.00  0.00     0.073 C 
HETATM   23  N   UNL     1      41.798 -14.303  -0.353  1.00  0.00    -0.179 NA
HETATM   24  N   UNL     1      41.744 -15.631  -0.191  1.00  0.00    -0.282 N 
HETATM   25  H   UNL     1      42.270 -16.213  -0.834  1.00  0.00     0.189 HD
HETATM   26  C   UNL     1      40.963 -16.026   0.858  1.00  0.00     0.032 A 
HETATM   27  C   UNL     1      40.773 -17.452   1.207  1.00  0.00     0.070 C 
ENDBRANCH  19  20
ENDBRANCH  18  19
ENDBRANCH   3  18
TORSDOF 6
ENDMDL
MODEL 3
REMARK VINA RESULT:      -7.5      3.901      5.097
REMARK  6 active torsions:
REMARK  status: ('A' for Active; 'I' for Inactive)
REMARK    1  A    between atoms: C_3  and  N_4 
REMARK       I    between atoms: N_4  and  C_5 
REMARK       I    between atoms: C_5  and  N_6 
REMARK    2  A    between atoms: N_6  and  C_7 
REMARK    3  A    between atoms: C_7  and  C_8 
REMARK    4  A    between atoms: C_8  and  C_9 
REMARK    5  A    between atoms: C_21  and  O_22 
REMARK    6  A    between atoms: O_22  and  C_23 
ROOT
HETATM    1  N   UNL     1      42.786 -15.221   2.885  1.00  0.00    -0.308 N 
HETATM    2  C   UNL     1      42.183 -14.476   1.917  1.00  0.00     0.322 C 
HETATM    3  N   UNL     1      41.075 -14.977   1.265  1.00  0.00    -0.338 N 
HETATM    4  C   UNL     1      40.184 -15.985   1.833  1.00  0.00     0.154 C 
HETATM    5  O   UNL     1      42.600 -13.333   1.718  1.00  0.00    -0.247 OA
HETATM    6  H   UNL     1      43.328 -14.643   3.515  1.00  0.00     0.170 HD
ENDROOT
BRANCH   1   7
HETATM    7  C   UNL     1      43.126 -16.591   2.888  1.00  0.00     0.042 A 
HETATM    8  C   UNL     1      42.807 -17.368   4.022  1.00  0.00    -0.033 A 
HETATM    9  C   UNL     1      42.071 -16.788   5.201  1.00  0.00     0.050 C 
HETATM   10  C   UNL     1      43.186 -18.721   4.060  1.00  0.00     0.045 A 
HETATM   11  C   UNL     1      43.850 -19.300   2.978  1.00  0.00     0.075 A 
HETATM   12  C   UNL     1      44.197 -18.524   1.877  1.00  0.00     0.039 A 
HETATM   13  C   UNL     1      43.833 -17.177   1.830  1.00  0.00     0.033 A 
BRANCH  11  14
HETATM   14  O   UNL     1      44.268 -20.600   2.984  1.00  0.00    -0.290 OA
BRANCH  14  15
HETATM   15  C   UNL     1      43.977 -21.259   1.758  1.00  0.00     0.505 C 
HETATM   16  F   UNL     1      44.520 -22.502   1.778  1.00  0.00    -0.184 F 
HETATM   17  F   UNL     1      42.631 -21.425   1.699  1.00  0.00    -0.184 F 
ENDBRANCH  14  15
ENDBRANCH  11  14
ENDBRANCH   1   7
BRANCH   3  18
HETATM   18  C   UNL     1      40.511 -14.182   0.170  1.00  0.00     0.132 C 
BRANCH  18  19
HETATM   19  C   UNL     1      40.820 -14.769  -1.218  1.00  0.00     0.062 C 
BRANCH  19  20
HETATM   20  C   UNL     1      40.458 -13.842  -2.333  1.00  0.00    -0.007 A 
HETATM   21  C   UNL     1      41.291 -12.871  -2.961  1.00  0.00     0.059 A 
HETATM   22  C   UNL     1      42.713 -12.555  -2.679  1.00  0.00     0.073 C 
HETATM   23  N   UNL     1      40.644 -12.213  -3.928  1.00  0.00    -0.179 NA
HETATM   24  N   UNL     1      39.421 -12.758  -3.936  1.00  0.00    -0.282 N 
HETATM   25  H   UNL     1      38.748 -12.413  -4.611  1.00  0.00     0.189 HD
HETATM   26  C   UNL     1      39.251 -13.740  -3.000  1.00  0.00     0.032 A 
HETATM   27  C   UNL     1      37.971 -14.469  -2.847  1.00  0.00     0.070 C 
ENDBRANCH  19  20
ENDBRANCH  18  19
ENDBRANCH   3  18
TORSDOF 6
ENDMDL
MODEL 4
REMARK VINA RESULT:      -7.5      2.601      3.989
REMARK  6 active torsions:
REMARK  status: ('A' for Active; 'I' for Inactive)
REMARK    1  A    between atoms: C_3  and  N_4 
REMARK       I    between atoms: N_4  and  C_5 
REMARK       I    between atoms: C_5  and  N_6 
REMARK    2  A    between atoms: N_6  and  C_7 
REMARK    3  A    between atoms: C_7  and  C_8 
REMARK    4  A    between atoms: C_8  and  C_9 
REMARK    5  A    between atoms: C_21  and  O_22 
REMARK    6  A    between atoms: O_22  and  C_23 
ROOT
HETATM    1  N   UNL     1      43.822 -16.306   5.468  1.00  0.00    -0.308 N 
HETATM    2  C   UNL     1      42.904 -15.317   5.284  1.00  0.00     0.322 C 
HETATM    3  N   UNL     1      41.563 -15.637   5.229  1.00  0.00    -0.338 N 
HETATM    4  C   UNL     1      40.986 -16.832   5.840  1.00  0.00     0.154 C 
HETATM    5  O   UNL     1      43.301 -14.150   5.262  1.00  0.00    -0.247 OA
HETATM    6  H   UNL     1      44.691 -15.941   5.841  1.00  0.00     0.170 HD
ENDROOT
BRANCH   1   7
HETATM    7  C   UNL     1      43.921 -17.572   4.852  1.00  0.00     0.042 A 
HETATM    8  C   UNL     1      44.196 -18.699   5.655  1.00  0.00    -0.033 A 
HETATM    9  C   UNL     1      44.336 -18.594   7.151  1.00  0.00     0.050 C 
HETATM   10  C   UNL     1      44.348 -19.958   5.049  1.00  0.00     0.045 A 
HETATM   11  C   UNL     1      44.204 -20.099   3.669  1.00  0.00     0.075 A 
HETATM   12  C   UNL     1      43.970 -18.982   2.874  1.00  0.00     0.039 A 
HETATM   13  C   UNL     1      43.824 -17.725   3.464  1.00  0.00     0.033 A 
BRANCH  11  14
HETATM   14  O   UNL     1      44.376 -21.295   3.032  1.00  0.00    -0.290 OA
BRANCH  14  15
HETATM   15  C   UNL     1      43.871 -21.269   1.703  1.00  0.00     0.505 C 
HETATM   16  F   UNL     1      44.435 -22.276   0.990  1.00  0.00    -0.184 F 
HETATM   17  F   UNL     1      42.542 -21.540   1.771  1.00  0.00    -0.184 F 
ENDBRANCH  14  15
ENDBRANCH  11  14
ENDBRANCH   1   7
BRANCH   3  18
HETATM   18  C   UNL     1      40.615 -14.557   4.942  1.00  0.00     0.132 C 
BRANCH  18  19
HETATM   19  C   UNL     1      39.846 -14.768   3.626  1.00  0.00     0.062 C 
BRANCH  19  20
HETATM   20  C   UNL     1      40.741 -14.806   2.430  1.00  0.00    -0.007 A 
HETATM   21  C   UNL     1      41.069 -15.936   1.626  1.00  0.00     0.059 A 
HETATM   22  C   UNL     1      40.595 -17.336   1.764  1.00  0.00     0.073 C 
HETATM   23  N   UNL     1      41.901 -15.612   0.631  1.00  0.00    -0.179 NA
HETATM   24  N   UNL     1      42.094 -14.295   0.779  1.00  0.00    -0.282 N 
HETATM   25  H   UNL     1      42.697 -13.823   0.114  1.00  0.00     0.189 HD
HETATM   26  C   UNL     1      41.425 -13.757   1.842  1.00  0.00     0.032 A 
HETATM   27  C   UNL     1      41.505 -12.317   2.178  1.00  0.00     0.070 C 
ENDBRANCH  19  20
ENDBRANCH  18  19
ENDBRANCH   3  18
TORSDOF 6
ENDMDL
MODEL 5
REMARK VINA RESULT:      -7.5      3.878      7.675
REMARK  6 active torsions:
REMARK  status: ('A' for Active; 'I' for Inactive)
REMARK    1  A    between atoms: C_3  and  N_4 
REMARK       I    between atoms: N_4  and  C_5 
REMARK       I    between atoms: C_5  and  N_6 
REMARK    2  A    between atoms: N_6  and  C_7 
REMARK    3  A    between atoms: C_7  and  C_8 
REMARK    4  A    between atoms: C_8  and  C_9 
REMARK    5  A    between atoms: C_21  and  O_22 
REMARK    6  A    between atoms: O_22  and  C_23 
ROOT
HETATM    1  N   UNL     1      40.736 -16.420   3.873  1.00  0.00    -0.308 N 
HETATM    2  C   UNL     1      41.299 -17.448   4.567  1.00  0.00     0.322 C 
HETATM    3  N   UNL     1      42.670 -17.604   4.556  1.00  0.00    -0.338 N 
HETATM    4  C   UNL     1      43.610 -16.516   4.303  1.00  0.00     0.154 C 
HETATM    5  O   UNL     1      40.564 -18.155   5.258  1.00  0.00    -0.247 OA
HETATM    6  H   UNL     1      39.815 -16.193   4.228  1.00  0.00     0.170 HD
ENDROOT
BRANCH   1   7
HETATM    7  C   UNL     1      41.002 -15.962   2.564  1.00  0.00     0.042 A 
HETATM    8  C   UNL     1      41.091 -14.572   2.336  1.00  0.00    -0.033 A 
HETATM    9  C   UNL     1      40.962 -13.573   3.455  1.00  0.00     0.050 C 
HETATM   10  C   UNL     1      41.304 -14.100   1.029  1.00  0.00     0.045 A 
HETATM   11  C   UNL     1      41.451 -14.996  -0.030  1.00  0.00     0.075 A 
HETATM   12  C   UNL     1      41.325 -16.363   0.190  1.00  0.00     0.039 A 
HETATM   13  C   UNL     1      41.107 -16.844   1.482  1.00  0.00     0.033 A 
BRANCH  11  14
HETATM   14  O   UNL     1      41.625 -14.583  -1.321  1.00  0.00    -0.290 OA
BRANCH  14  15
HETATM   15  C   UNL     1      40.656 -15.146  -2.196  1.00  0.00     0.505 C 
HETATM   16  F   UNL     1      40.059 -14.153  -2.901  1.00  0.00    -0.184 F 
HETATM   17  F   UNL     1      41.323 -15.914  -3.095  1.00  0.00    -0.184 F 
ENDBRANCH  14  15
ENDBRANCH  11  14
ENDBRANCH   1   7
BRANCH   3  18
HETATM   18  C   UNL     1      43.228 -18.773   5.242  1.00  0.00     0.132 C 
BRANCH  18  19
HETATM   19  C   UNL     1      44.577 -19.224   4.657  1.00  0.00     0.062 C 
BRANCH  19  20
HETATM   20  C   UNL     1      44.445 -20.374   3.711  1.00  0.00    -0.007 A 
HETATM   21  C   UNL     1      44.697 -21.750   3.976  1.00  0.00     0.059 A 
HETATM   22  C   UNL     1      45.132 -22.381   5.246  1.00  0.00     0.073 C 
HETATM   23  N   UNL     1      44.477 -22.512   2.899  1.00  0.00    -0.179 NA
HETATM   24  N   UNL     1      44.074 -21.645   1.960  1.00  0.00    -0.282 N 
HETATM   25  H   UNL     1      43.837 -22.010   1.044  1.00  0.00     0.189 HD
HETATM   26  C   UNL     1      44.037 -20.348   2.389  1.00  0.00     0.032 A 
HETATM   27  C   UNL     1      43.617 -19.237   1.505  1.00  0.00     0.070 C 
ENDBRANCH  19  20
ENDBRANCH  18  19
ENDBRANCH   3  18
TORSDOF 6
ENDMDL
MODEL 6
REMARK VINA RESULT:      -7.4      3.485      4.826
REMARK  6 active torsions:
REMARK  status: ('A' for Active; 'I' for Inactive)
REMARK    1  A    between atoms: C_3  and  N_4 
REMARK       I    between atoms: N_4  and  C_5 
REMARK       I    between atoms: C_5  and  N_6 
REMARK    2  A    between atoms: N_6  and  C_7 
REMARK    3  A    between atoms: C_7  and  C_8 
REMARK    4  A    between atoms: C_8  and  C_9 
REMARK    5  A    between atoms: C_21  and  O_22 
REMARK    6  A    between atoms: O_22  and  C_23 
ROOT
HETATM    1  N   UNL     1      42.918 -15.108   3.189  1.00  0.00    -0.308 N 
HETATM    2  C   UNL     1      42.391 -14.265   2.258  1.00  0.00     0.322 C 
HETATM    3  N   UNL     1      41.280 -14.655   1.540  1.00  0.00    -0.338 N 
HETATM    4  C   UNL     1      40.316 -15.647   2.008  1.00  0.00     0.154 C 
HETATM    5  O   UNL     1      42.877 -13.137   2.154  1.00  0.00    -0.247 OA
HETATM    6  H   UNL     1      43.470 -14.607   3.875  1.00  0.00     0.170 HD
ENDROOT
BRANCH   1   7
HETATM    7  C   UNL     1      43.182 -16.493   3.106  1.00  0.00     0.042 A 
HETATM    8  C   UNL     1      42.841 -17.316   4.200  1.00  0.00    -0.033 A 
HETATM    9  C   UNL     1      42.160 -16.768   5.426  1.00  0.00     0.050 C 
HETATM   10  C   UNL     1      43.145 -18.688   4.152  1.00  0.00     0.045 A 
HETATM   11  C   UNL     1      43.755 -19.237   3.024  1.00  0.00     0.075 A 
HETATM   12  C   UNL     1      44.125 -18.418   1.963  1.00  0.00     0.039 A 
HETATM   13  C   UNL     1      43.835 -17.053   2.001  1.00  0.00     0.033 A 
BRANCH  11  14
HETATM   14  O   UNL     1      44.101 -20.556   2.946  1.00  0.00    -0.290 OA
BRANCH  14  15
HETATM   15  C   UNL     1      43.807 -21.110   1.669  1.00  0.00     0.505 C 
HETATM   16  F   UNL     1      44.530 -22.245   1.497  1.00  0.00    -0.184 F 
HETATM   17  F   UNL     1      42.501 -21.479   1.681  1.00  0.00    -0.184 F 
ENDBRANCH  14  15
ENDBRANCH  11  14
ENDBRANCH   1   7
BRANCH   3  18
HETATM   18  C   UNL     1      40.799 -13.756   0.487  1.00  0.00     0.132 C 
BRANCH  18  19
HETATM   19  C   UNL     1      39.464 -14.212  -0.127  1.00  0.00     0.062 C 
BRANCH  19  20
HETATM   20  C   UNL     1      39.338 -13.853  -1.573  1.00  0.00    -0.007 A 
HETATM   21  C   UNL     1      38.637 -12.747  -2.135  1.00  0.00     0.059 A 
HETATM   22  C   UNL     1      37.882 -11.679  -1.434  1.00  0.00     0.073 C 
HETATM   23  N   UNL     1      38.731 -12.727  -3.469  1.00  0.00    -0.179 NA
HETATM   24  N   UNL     1      39.490 -13.790  -3.761  1.00  0.00    -0.282 N 
HETATM   25  H   UNL     1      39.706 -13.970  -4.736  1.00  0.00     0.189 HD
HETATM   26  C   UNL     1      39.883 -14.504  -2.665  1.00  0.00     0.032 A 
HETATM   27  C   UNL     1      40.729 -15.714  -2.773  1.00  0.00     0.070 C 
ENDBRANCH  19  20
ENDBRANCH  18  19
ENDBRANCH   3  18
TORSDOF 6
ENDMDL
MODEL 7
REMARK VINA RESULT:      -6.9      2.547      3.283
REMARK  6 active torsions:
REMARK  status: ('A' for Active; 'I' for Inactive)
REMARK    1  A    between atoms: C_3  and  N_4 
REMARK       I    between atoms: N_4  and  C_5 
REMARK       I    between atoms: C_5  and  N_6 
REMARK    2  A    between atoms: N_6  and  C_7 
REMARK    3  A    between atoms: C_7  and  C_8 
REMARK    4  A    between atoms: C_8  and  C_9 
REMARK    5  A    between atoms: C_21  and  O_22 
REMARK    6  A    between atoms: O_22  and  C_23 
ROOT
HETATM    1  N   UNL     1      40.775 -16.932   2.405  1.00  0.00    -0.308 N 
HETATM    2  C   UNL     1      40.298 -15.676   2.182  1.00  0.00     0.322 C 
HETATM    3  N   UNL     1      41.151 -14.597   2.291  1.00  0.00    -0.338 N 
HETATM    4  C   UNL     1      42.599 -14.685   2.126  1.00  0.00     0.154 C 
HETATM    5  O   UNL     1      39.133 -15.554   1.801  1.00  0.00    -0.247 OA
HETATM    6  H   UNL     1      40.193 -17.633   1.964  1.00  0.00     0.170 HD
ENDROOT
BRANCH   1   7
HETATM    7  C   UNL     1      41.609 -17.411   3.439  1.00  0.00     0.042 A 
HETATM    8  C   UNL     1      42.773 -18.130   3.094  1.00  0.00    -0.033 A 
HETATM    9  C   UNL     1      43.174 -18.354   1.660  1.00  0.00     0.050 C 
HETATM   10  C   UNL     1      43.585 -18.657   4.114  1.00  0.00     0.045 A 
HETATM   11  C   UNL     1      43.259 -18.451   5.454  1.00  0.00     0.075 A 
HETATM   12  C   UNL     1      42.092 -17.775   5.792  1.00  0.00     0.039 A 
HETATM   13  C   UNL     1      41.273 -17.253   4.789  1.00  0.00     0.033 A 
BRANCH  11  14
HETATM   14  O   UNL     1      43.998 -18.973   6.477  1.00  0.00    -0.290 OA
BRANCH  14  15
HETATM   15  C   UNL     1      45.068 -18.114   6.853  1.00  0.00     0.505 C 
HETATM   16  F   UNL     1      46.117 -18.313   6.016  1.00  0.00    -0.184 F 
HETATM   17  F   UNL     1      44.650 -16.838   6.655  1.00  0.00    -0.184 F 
ENDBRANCH  14  15
ENDBRANCH  11  14
ENDBRANCH   1   7
BRANCH   3  18
HETATM   18  C   UNL     1      40.579 -13.257   2.131  1.00  0.00     0.132 C 
BRANCH  18  19
HETATM   19  C   UNL     1      41.151 -12.236   3.130  1.00  0.00     0.062 C 
BRANCH  19  20
HETATM   20  C   UNL     1      40.541 -12.351   4.490  1.00  0.00    -0.007 A 
HETATM   21  C   UNL     1      39.322 -11.773   4.947  1.00  0.00     0.059 A 
HETATM   22  C   UNL     1      38.357 -10.937   4.191  1.00  0.00     0.073 C 
HETATM   23  N   UNL     1      39.076 -12.080   6.225  1.00  0.00    -0.179 NA
HETATM   24  N   UNL     1      40.107 -12.855   6.582  1.00  0.00    -0.282 N 
HETATM   25  H   UNL     1      40.126 -13.220   7.528  1.00  0.00     0.189 HD
HETATM   26  C   UNL     1      41.019 -13.052   5.583  1.00  0.00     0.032 A 
HETATM   27  C   UNL     1      42.232 -13.879   5.774  1.00  0.00     0.070 C 
ENDBRANCH  19  20
ENDBRANCH  18  19
ENDBRANCH   3  18
TORSDOF 6
ENDMDL
MODEL 8
REMARK VINA RESULT:      -6.8      3.963      7.817
REMARK  6 active torsions:
REMARK  status: ('A' for Active; 'I' for Inactive)
REMARK    1  A    between atoms: C_3  and  N_4 
REMARK       I    between atoms: N_4  and  C_5 
REMARK       I    between atoms: C_5  and  N_6 
REMARK    2  A    between atoms: N_6  and  C_7 
REMARK    3  A    between atoms: C_7  and  C_8 
REMARK    4  A    between atoms: C_8  and  C_9 
REMARK    5  A    between atoms: C_21  and  O_22 
REMARK    6  A    between atoms: O_22  and  C_23 
ROOT
HETATM    1  N   UNL     1      40.576 -15.817   4.788  1.00  0.00    -0.308 N 
HETATM    2  C   UNL     1      41.194 -16.911   5.315  1.00  0.00     0.322 C 
HETATM    3  N   UNL     1      42.476 -17.226   4.912  1.00  0.00    -0.338 N 
HETATM    4  C   UNL     1      43.421 -16.253   4.372  1.00  0.00     0.154 C 
HETATM    5  O   UNL     1      40.615 -17.534   6.206  1.00  0.00    -0.247 OA
HETATM    6  H   UNL     1      39.830 -15.487   5.389  1.00  0.00     0.170 HD
ENDROOT
BRANCH   1   7
HETATM    7  C   UNL     1      40.503 -15.380   3.448  1.00  0.00     0.042 A 
HETATM    8  C   UNL     1      40.436 -13.994   3.188  1.00  0.00    -0.033 A 
HETATM    9  C   UNL     1      40.494 -12.974   4.294  1.00  0.00     0.050 C 
HETATM   10  C   UNL     1      40.311 -13.547   1.861  1.00  0.00     0.045 A 
HETATM   11  C   UNL     1      40.277 -14.460   0.808  1.00  0.00     0.075 A 
HETATM   12  C   UNL     1      40.304 -15.826   1.068  1.00  0.00     0.039 A 
HETATM   13  C   UNL     1      40.422 -16.284   2.382  1.00  0.00     0.033 A 
BRANCH  11  14
HETATM   14  O   UNL     1      40.121 -14.074  -0.493  1.00  0.00    -0.290 OA
BRANCH  14  15
HETATM   15  C   UNL     1      38.843 -13.497  -0.729  1.00  0.00     0.505 C 
HETATM   16  F   UNL     1      38.535 -13.614  -2.045  1.00  0.00    -0.184 F 
HETATM   17  F   UNL     1      37.933 -14.241  -0.050  1.00  0.00    -0.184 F 
ENDBRANCH  14  15
ENDBRANCH  11  14
ENDBRANCH   1   7
BRANCH   3  18
HETATM   18  C   UNL     1      43.071 -18.459   5.435  1.00  0.00     0.132 C 
BRANCH  18  19
HETATM   19  C   UNL     1      44.417 -18.803   4.775  1.00  0.00     0.062 C 
BRANCH  19  20
HETATM   20  C   UNL     1      44.310 -19.920   3.787  1.00  0.00    -0.007 A 
HETATM   21  C   UNL     1      43.902 -19.838   2.424  1.00  0.00     0.059 A 
HETATM   22  C   UNL     1      43.503 -18.636   1.651  1.00  0.00     0.073 C 
HETATM   23  N   UNL     1      43.921 -21.035   1.828  1.00  0.00    -0.179 NA
HETATM   24  N   UNL     1      44.349 -21.871   2.782  1.00  0.00    -0.282 N 
HETATM   25  H   UNL     1      44.453 -22.852   2.547  1.00  0.00     0.189 HD
HETATM   26  C   UNL     1      44.597 -21.259   3.979  1.00  0.00     0.032 A 
HETATM   27  C   UNL     1      45.079 -22.007   5.162  1.00  0.00     0.070 C 
ENDBRANCH  19  20
ENDBRANCH  18  19
ENDBRANCH   3  18
TORSDOF 6
ENDMDL
MODEL 9
REMARK VINA RESULT:      -6.7      4.827      7.713
REMARK  6 active torsions:
REMARK  status: ('A' for Active; 'I' for Inactive)
REMARK    1  A    between atoms: C_3  and  N_4 
REMARK       I    between atoms: N_4  and  C_5 
REMARK       I    between atoms: C_5  and  N_6 
REMARK    2  A    between atoms: N_6  and  C_7 
REMARK    3  A    between atoms: C_7  and  C_8 
REMARK    4  A    between atoms: C_8  and  C_9 
REMARK    5  A    between atoms: C_21  and  O_22 
REMARK    6  A    between atoms: O_22  and  C_23 
ROOT
HETATM    1  N   UNL     1      39.758 -15.691   1.047  1.00  0.00    -0.308 N 
HETATM    2  C   UNL     1      40.358 -16.241   2.139  1.00  0.00     0.322 C 
HETATM    3  N   UNL     1      40.906 -15.416   3.100  1.00  0.00    -0.338 N 
HETATM    4  C   UNL     1      40.479 -14.039   3.329  1.00  0.00     0.154 C 
HETATM    5  O   UNL     1      40.312 -17.465   2.273  1.00  0.00    -0.247 OA
HETATM    6  H   UNL     1      39.105 -16.336   0.618  1.00  0.00     0.170 HD
ENDROOT
BRANCH   1   7
HETATM    7  C   UNL     1      40.189 -14.635   0.215  1.00  0.00     0.042 A 
HETATM    8  C   UNL     1      39.256 -13.651  -0.174  1.00  0.00    -0.033 A 
HETATM    9  C   UNL     1      37.831 -13.670   0.315  1.00  0.00     0.050 C 
HETATM   10  C   UNL     1      39.659 -12.623  -1.044  1.00  0.00     0.045 A 
HETATM   11  C   UNL     1      40.976 -12.559  -1.500  1.00  0.00     0.075 A 
HETATM   12  C   UNL     1      41.885 -13.550  -1.146  1.00  0.00     0.039 A 
HETATM   13  C   UNL     1      41.495 -14.581  -0.289  1.00  0.00     0.033 A 
BRANCH  11  14
HETATM   14  O   UNL     1      41.405 -11.600  -2.372  1.00  0.00    -0.290 OA
BRANCH  14  15
HETATM   15  C   UNL     1      41.655 -12.130  -3.667  1.00  0.00     0.505 C 
HETATM   16  F   UNL     1      40.520 -12.058  -4.407  1.00  0.00    -0.184 F 
HETATM   17  F   UNL     1      42.561 -11.317  -4.267  1.00  0.00    -0.184 F 
ENDBRANCH  14  15
ENDBRANCH  11  14
ENDBRANCH   1   7
BRANCH   3  18
HETATM   18  C   UNL     1      41.620 -16.048   4.213  1.00  0.00     0.132 C 
BRANCH  18  19
HETATM   19  C   UNL     1      43.136 -16.149   3.973  1.00  0.00     0.062 C 
BRANCH  19  20
HETATM   20  C   UNL     1      43.581 -17.538   3.647  1.00  0.00    -0.007 A 
HETATM   21  C   UNL     1      43.808 -18.613   4.554  1.00  0.00     0.059 A 
HETATM   22  C   UNL     1      43.645 -18.626   6.029  1.00  0.00     0.073 C 
HETATM   23  N   UNL     1      44.200 -19.723   3.920  1.00  0.00    -0.179 NA
HETATM   24  N   UNL     1      44.210 -19.377   2.627  1.00  0.00    -0.282 N 
HETATM   25  H   UNL     1      44.474 -20.081   1.946  1.00  0.00     0.189 HD
HETATM   26  C   UNL     1      43.849 -18.078   2.402  1.00  0.00     0.032 A 
HETATM   27  C   UNL     1      43.796 -17.499   1.040  1.00  0.00     0.070 C 
ENDBRANCH  19  20
ENDBRANCH  18  19
ENDBRANCH   3  18
TORSDOF 6
ENDMDL
MODEL 10
REMARK VINA RESULT:      -6.7      4.797      8.111
REMARK  6 active torsions:
REMARK  status: ('A' for Active; 'I' for Inactive)
REMARK    1  A    between atoms: C_3  and  N_4 
REMARK       I    between atoms: N_4  and  C_5 
REMARK       I    between atoms: C_5  and  N_6 
REMARK    2  A    between atoms: N_6  and  C_7 
REMARK    3  A    between atoms: C_7  and  C_8 
REMARK    4  A    between atoms: C_8  and  C_9 
REMARK    5  A    between atoms: C_21  and  O_22 
REMARK    6  A    between atoms: O_22  and  C_23 
ROOT
HETATM    1  N   UNL     1      39.909 -15.693   0.933  1.00  0.00    -0.308 N 
HETATM    2  C   UNL     1      40.494 -16.513   1.850  1.00  0.00     0.322 C 
HETATM    3  N   UNL     1      41.097 -15.965   2.964  1.00  0.00    -0.338 N 
HETATM    4  C   UNL     1      40.746 -14.662   3.520  1.00  0.00     0.154 C 
HETATM    5  O   UNL     1      40.385 -17.731   1.695  1.00  0.00    -0.247 OA
HETATM    6  H   UNL     1      39.218 -16.186   0.381  1.00  0.00     0.170 HD
ENDROOT
BRANCH   1   7
HETATM    7  C   UNL     1      40.386 -14.493   0.362  1.00  0.00     0.042 A 
HETATM    8  C   UNL     1      39.572 -13.342   0.424  1.00  0.00    -0.033 A 
HETATM    9  C   UNL     1      38.240 -13.346   1.125  1.00  0.00     0.050 C 
HETATM   10  C   UNL     1      40.012 -12.153  -0.186  1.00  0.00     0.045 A 
HETATM   11  C   UNL     1      41.250 -12.103  -0.826  1.00  0.00     0.075 A 
HETATM   12  C   UNL     1      42.033 -13.249  -0.919  1.00  0.00     0.039 A 
HETATM   13  C   UNL     1      41.605 -14.437  -0.324  1.00  0.00     0.033 A 
BRANCH  11  14
HETATM   14  O   UNL     1      41.703 -10.982  -1.462  1.00  0.00    -0.290 OA
BRANCH  14  15
HETATM   15  C   UNL     1      43.107 -10.817  -1.315  1.00  0.00     0.505 C 
HETATM   16  F   UNL     1      43.573 -10.033  -2.320  1.00  0.00    -0.184 F 
HETATM   17  F   UNL     1      43.314 -10.132  -0.161  1.00  0.00    -0.184 F 
ENDBRANCH  14  15
ENDBRANCH  11  14
ENDBRANCH   1   7
BRANCH   3  18
HETATM   18  C   UNL     1      41.791 -16.875   3.880  1.00  0.00     0.132 C 
BRANCH  18  19
HETATM   19  C   UNL     1      43.307 -16.943   3.623  1.00  0.00     0.062 C 
BRANCH  19  20
HETATM   20  C   UNL     1      43.905 -18.252   4.025  1.00  0.00    -0.007 A 
HETATM   21  C   UNL     1      43.961 -19.453   3.260  1.00  0.00     0.059 A 
HETATM   22  C   UNL     1      43.460 -19.695   1.884  1.00  0.00     0.073 C 
HETATM   23  N   UNL     1      44.570 -20.439   3.927  1.00  0.00    -0.179 NA
HETATM   24  N   UNL     1      44.917 -19.881   5.094  1.00  0.00    -0.282 N 
HETATM   25  H   UNL     1      45.411 -20.454   5.769  1.00  0.00     0.189 HD
HETATM   26  C   UNL     1      44.543 -18.572   5.210  1.00  0.00     0.032 A 
HETATM   27  C   UNL     1      44.833 -17.773   6.423  1.00  0.00     0.070 C 
ENDBRANCH  19  20
ENDBRANCH  18  19
ENDBRANCH   3  18
TORSDOF 6
ENDMDL
