MODEL 1
REMARK VINA RESULT:      -8.9      0.000      0.000
REMARK  6 active torsions:
REMARK  status: ('A' for Active; 'I' for Inactive)
REMARK    1  A    between atoms: O_2  and  C_3 
REMARK    2  A    between atoms: C_6  and  C_7 
REMARK    3  A    between atoms: C_9  and  N_10 
REMARK    4  A    between atoms: N_10  and  N_11 
REMARK       I    between atoms: N_10  and  C_21 
REMARK       I    between atoms: N_11  and  C_12 
REMARK       I    between atoms: C_12  and  N_13 
REMARK    5  A    between atoms: N_13  and  C_14 
REMARK       I    between atoms: C_21  and  N_22 
REMARK    6  A    between atoms: N_22  and  C_23 
ROOT
HETATM    1  N   UNL     1      40.677 -14.372   1.419  1.00  0.00    -0.176 N 
HETATM    2  C   UNL     1      39.761 -13.459   2.013  1.00  0.00     0.348 C 
HETATM    3  N   UNL     1      39.023 -12.761   1.061  1.00  0.00    -0.307 N 
HETATM    4  O   UNL     1      39.640 -13.263   3.219  1.00  0.00    -0.245 OA
HETATM    5  H   UNL     1      39.486 -12.703   0.156  1.00  0.00     0.170 HD
ENDROOT
BRANCH   1   6
HETATM    6  C   UNL     1      41.563 -15.066   2.248  1.00  0.00     0.197 A 
HETATM    7  N   UNL     1      41.705 -16.363   2.385  1.00  0.00    -0.222 NA
HETATM    8  C   UNL     1      42.785 -16.661   3.206  1.00  0.00     0.076 A 
HETATM    9  C   UNL     1      43.378 -15.555   3.783  1.00  0.00     0.086 A 
HETATM   10  S   UNL     1      42.645 -14.120   3.199  1.00  0.00    -0.060 SA
BRANCH   8  11
HETATM   11  C   UNL     1      43.258 -18.038   3.349  1.00  0.00    -0.007 A 
HETATM   12  C   UNL     1      43.807 -18.529   4.539  1.00  0.00     0.016 A 
HETATM   13  C   UNL     1      44.332 -19.827   4.598  1.00  0.00     0.037 A 
HETATM   14  C   UNL     1      44.321 -20.656   3.475  1.00  0.00     0.068 A 
HETATM   15  C   UNL     1      43.748 -20.188   2.295  1.00  0.00     0.037 A 
HETATM   16  C   UNL     1      43.220 -18.892   2.236  1.00  0.00     0.016 A 
BRANCH  14  17
HETATM   17  O   UNL     1      44.892 -21.883   3.664  1.00  0.00    -0.356 OA
HETATM   18  C   UNL     1      45.035 -22.320   5.010  1.00  0.00     0.210 C 
ENDBRANCH  14  17
ENDBRANCH   8  11
ENDBRANCH   1   6
BRANCH   1  19
HETATM   19  N   UNL     1      40.297 -15.062   0.222  1.00  0.00    -0.239 N 
HETATM   20  C   UNL     1      40.648 -14.619  -1.026  1.00  0.00     0.335 C 
HETATM   21  N   UNL     1      40.161 -15.439  -2.012  1.00  0.00    -0.337 N 
HETATM   22  O   UNL     1      41.263 -13.580  -1.234  1.00  0.00    -0.246 OA
HETATM   23  H   UNL     1      39.665 -16.272  -1.736  1.00  0.00     0.164 HD
HETATM   24  H   UNL     1      39.451 -15.607   0.323  1.00  0.00     0.192 HD
BRANCH  21  25
HETATM   25  C   UNL     1      40.085 -15.023  -3.408  1.00  0.00     0.086 C 
HETATM   26  C   UNL     1      39.090 -15.896  -4.183  1.00  0.00     0.025 C 
HETATM   27  C   UNL     1      37.635 -15.632  -3.795  1.00  0.00     0.002 C 
HETATM   28  C   UNL     1      37.281 -14.149  -3.880  1.00  0.00     0.000 C 
HETATM   29  C   UNL     1      38.254 -13.284  -3.083  1.00  0.00     0.002 C 
HETATM   30  C   UNL     1      39.703 -13.538  -3.499  1.00  0.00     0.025 C 
ENDBRANCH  21  25
ENDBRANCH   1  19
BRANCH   3  31
HETATM   31  C   UNL     1      37.956 -11.868   1.254  1.00  0.00     0.036 A 
HETATM   32  C   UNL     1      37.995 -10.780   2.128  1.00  0.00     0.031 A 
HETATM   33  C   UNL     1      36.880  -9.945   2.266  1.00  0.00     0.026 A 
HETATM   34  C   UNL     1      35.720 -10.204   1.539  1.00  0.00     0.034 A 
HETATM   35 CL   UNL     1      34.349  -9.180   1.715  1.00  0.00    -0.084 Cl
HETATM   36  C   UNL     1      35.664 -11.292   0.674  1.00  0.00     0.026 A 
HETATM   37  C   UNL     1      36.780 -12.121   0.532  1.00  0.00     0.031 A 
ENDBRANCH   3  31
TORSDOF 6
ENDMDL
MODEL 2
REMARK VINA RESULT:      -8.8      3.880      9.741
REMARK  6 active torsions:
REMARK  status: ('A' for Active; 'I' for Inactive)
REMARK    1  A    between atoms: O_2  and  C_3 
REMARK    2  A    between atoms: C_6  and  C_7 
REMARK    3  A    between atoms: C_9  and  N_10 
REMARK    4  A    between atoms: N_10  and  N_11 
REMARK       I    between atoms: N_10  and  C_21 
REMARK       I    between atoms: N_11  and  C_12 
REMARK       I    between atoms: C_12  and  N_13 
REMARK    5  A    between atoms: N_13  and  C_14 
REMARK       I    between atoms: C_21  and  N_22 
REMARK    6  A    between atoms: N_22  and  C_23 
ROOT
HETATM    1  N   UNL     1      41.123 -14.374   0.020  1.00  0.00    -0.176 N 
HETATM    2  C   UNL     1      41.590 -15.691   0.292  1.00  0.00     0.348 C 
HETATM    3  N   UNL     1      42.217 -15.780   1.531  1.00  0.00    -0.307 N 
HETATM    4  O   UNL     1      41.496 -16.646  -0.474  1.00  0.00    -0.245 OA
HETATM    5  H   UNL     1      42.589 -14.892   1.860  1.00  0.00     0.170 HD
ENDROOT
BRANCH   1   6
HETATM    6  C   UNL     1      40.567 -14.106  -1.233  1.00  0.00     0.197 A 
HETATM    7  N   UNL     1      39.316 -14.215  -1.611  1.00  0.00    -0.222 NA
HETATM    8  C   UNL     1      39.140 -13.726  -2.899  1.00  0.00     0.076 A 
HETATM    9  C   UNL     1      40.313 -13.358  -3.529  1.00  0.00     0.086 A 
HETATM   10  S   UNL     1      41.636 -13.521  -2.451  1.00  0.00    -0.060 SA
BRANCH   8  11
HETATM   11  C   UNL     1      37.799 -13.563  -3.460  1.00  0.00    -0.007 A 
HETATM   12  C   UNL     1      37.109 -14.608  -4.086  1.00  0.00     0.016 A 
HETATM   13  C   UNL     1      35.866 -14.379  -4.690  1.00  0.00     0.037 A 
HETATM   14  C   UNL     1      35.290 -13.108  -4.684  1.00  0.00     0.068 A 
HETATM   15  C   UNL     1      35.953 -12.068  -4.037  1.00  0.00     0.037 A 
HETATM   16  C   UNL     1      37.195 -12.297  -3.430  1.00  0.00     0.016 A 
BRANCH  14  17
HETATM   17  O   UNL     1      34.092 -13.018  -5.335  1.00  0.00    -0.356 OA
HETATM   18  C   UNL     1      33.138 -12.111  -4.796  1.00  0.00     0.210 C 
ENDBRANCH  14  17
ENDBRANCH   8  11
ENDBRANCH   1   6
BRANCH   1  19
HETATM   19  N   UNL     1      40.607 -13.581   1.097  1.00  0.00    -0.239 N 
HETATM   20  C   UNL     1      41.416 -12.848   1.925  1.00  0.00     0.335 C 
HETATM   21  N   UNL     1      40.694 -12.184   2.882  1.00  0.00    -0.337 N 
HETATM   22  O   UNL     1      42.639 -12.847   1.858  1.00  0.00    -0.246 OA
HETATM   23  H   UNL     1      39.687 -12.251   2.852  1.00  0.00     0.164 HD
HETATM   24  H   UNL     1      39.722 -13.916   1.454  1.00  0.00     0.192 HD
BRANCH  21  25
HETATM   25  C   UNL     1      41.310 -11.627   4.081  1.00  0.00     0.086 C 
HETATM   26  C   UNL     1      40.392 -10.586   4.733  1.00  0.00     0.025 C 
HETATM   27  C   UNL     1      39.157 -11.205   5.388  1.00  0.00     0.002 C 
HETATM   28  C   UNL     1      39.525 -12.327   6.355  1.00  0.00     0.000 C 
HETATM   29  C   UNL     1      40.413 -13.378   5.696  1.00  0.00     0.002 C 
HETATM   30  C   UNL     1      41.659 -12.751   5.069  1.00  0.00     0.025 C 
ENDBRANCH  21  25
ENDBRANCH   1  19
BRANCH   3  31
HETATM   31  C   UNL     1      42.701 -16.922   2.193  1.00  0.00     0.036 A 
HETATM   32  C   UNL     1      42.239 -17.361   3.435  1.00  0.00     0.031 A 
HETATM   33  C   UNL     1      42.785 -18.506   4.028  1.00  0.00     0.026 A 
HETATM   34  C   UNL     1      43.803 -19.206   3.384  1.00  0.00     0.034 A 
HETATM   35 CL   UNL     1      44.476 -20.609   4.116  1.00  0.00    -0.084 Cl
HETATM   36  C   UNL     1      44.281 -18.772   2.151  1.00  0.00     0.026 A 
HETATM   37  C   UNL     1      43.730 -17.633   1.558  1.00  0.00     0.031 A 
ENDBRANCH   3  31
TORSDOF 6
ENDMDL
MODEL 3
REMARK VINA RESULT:      -8.8      4.410      8.055
REMARK  6 active torsions:
REMARK  status: ('A' for Active; 'I' for Inactive)
REMARK    1  A    between atoms: O_2  and  C_3 
REMARK    2  A    between atoms: C_6  and  C_7 
REMARK    3  A    between atoms: C_9  and  N_10 
REMARK    4  A    between atoms: N_10  and  N_11 
REMARK       I    between atoms: N_10  and  C_21 
REMARK       I    between atoms: N_11  and  C_12 
REMARK       I    between atoms: C_12  and  N_13 
REMARK    5  A    between atoms: N_13  and  C_14 
REMARK       I    between atoms: C_21  and  N_22 
REMARK    6  A    between atoms: N_22  and  C_23 
ROOT
HETATM    1  N   UNL     1      39.717 -14.554   2.783  1.00  0.00    -0.176 N 
HETATM    2  C   UNL     1      40.829 -15.301   3.263  1.00  0.00     0.348 C 
HETATM    3  N   UNL     1      40.896 -16.569   2.693  1.00  0.00    -0.307 N 
HETATM    4  O   UNL     1      41.630 -14.912   4.109  1.00  0.00    -0.245 OA
HETATM    5  H   UNL     1      39.997 -16.908   2.357  1.00  0.00     0.170 HD
ENDROOT
BRANCH   1   6
HETATM    6  C   UNL     1      39.458 -13.302   3.346  1.00  0.00     0.197 A 
HETATM    7  N   UNL     1      39.434 -12.967   4.614  1.00  0.00    -0.222 NA
HETATM    8  C   UNL     1      39.271 -11.596   4.764  1.00  0.00     0.076 A 
HETATM    9  C   UNL     1      39.051 -10.920   3.579  1.00  0.00     0.086 A 
HETATM   10  S   UNL     1      39.163 -12.002   2.254  1.00  0.00    -0.060 SA
BRANCH   8  11
HETATM   11  C   UNL     1      39.410 -10.966   6.077  1.00  0.00    -0.007 A 
HETATM   12  C   UNL     1      39.584 -11.703   7.255  1.00  0.00     0.016 A 
HETATM   13  C   UNL     1      39.618 -11.058   8.498  1.00  0.00     0.037 A 
HETATM   14  C   UNL     1      39.478  -9.673   8.592  1.00  0.00     0.068 A 
HETATM   15  C   UNL     1      39.336  -8.927   7.424  1.00  0.00     0.037 A 
HETATM   16  C   UNL     1      39.305  -9.570   6.180  1.00  0.00     0.016 A 
BRANCH  14  17
HETATM   17  O   UNL     1      39.499  -9.179   9.866  1.00  0.00    -0.356 OA
HETATM   18  C   UNL     1      40.379  -9.818  10.783  1.00  0.00     0.210 C 
ENDBRANCH  14  17
ENDBRANCH   8  11
ENDBRANCH   1   6
BRANCH   1  19
HETATM   19  N   UNL     1      39.318 -14.700   1.414  1.00  0.00    -0.239 N 
HETATM   20  C   UNL     1      40.200 -14.584   0.373  1.00  0.00     0.335 C 
HETATM   21  N   UNL     1      39.581 -14.753  -0.839  1.00  0.00    -0.337 N 
HETATM   22  O   UNL     1      41.383 -14.295   0.510  1.00  0.00    -0.246 OA
HETATM   23  H   UNL     1      38.600 -14.988  -0.844  1.00  0.00     0.164 HD
HETATM   24  H   UNL     1      38.345 -14.475   1.253  1.00  0.00     0.192 HD
BRANCH  21  25
HETATM   25  C   UNL     1      40.197 -14.341  -2.095  1.00  0.00     0.086 C 
HETATM   26  C   UNL     1      40.875 -15.530  -2.786  1.00  0.00     0.025 C 
HETATM   27  C   UNL     1      39.876 -16.541  -3.351  1.00  0.00     0.002 C 
HETATM   28  C   UNL     1      38.836 -15.877  -4.249  1.00  0.00     0.000 C 
HETATM   29  C   UNL     1      38.141 -14.712  -3.550  1.00  0.00     0.002 C 
HETATM   30  C   UNL     1      39.148 -13.695  -3.013  1.00  0.00     0.025 C 
ENDBRANCH  21  25
ENDBRANCH   1  19
BRANCH   3  31
HETATM   31  C   UNL     1      41.899 -17.544   2.827  1.00  0.00     0.036 A 
HETATM   32  C   UNL     1      42.312 -18.078   4.049  1.00  0.00     0.031 A 
HETATM   33  C   UNL     1      43.328 -19.041   4.091  1.00  0.00     0.026 A 
HETATM   34  C   UNL     1      43.940 -19.461   2.912  1.00  0.00     0.034 A 
HETATM   35 CL   UNL     1      45.192 -20.640   2.967  1.00  0.00    -0.084 Cl
HETATM   36  C   UNL     1      43.545 -18.928   1.689  1.00  0.00     0.026 A 
HETATM   37  C   UNL     1      42.527 -17.972   1.648  1.00  0.00     0.031 A 
ENDBRANCH   3  31
TORSDOF 6
ENDMDL
MODEL 4
REMARK VINA RESULT:      -8.7      5.421      9.211
REMARK  6 active torsions:
REMARK  status: ('A' for Active; 'I' for Inactive)
REMARK    1  A    between atoms: O_2  and  C_3 
REMARK    2  A    between atoms: C_6  and  C_7 
REMARK    3  A    between atoms: C_9  and  N_10 
REMARK    4  A    between atoms: N_10  and  N_11 
REMARK       I    between atoms: N_10  and  C_21 
REMARK       I    between atoms: N_11  and  C_12 
REMARK       I    between atoms: C_12  and  N_13 
REMARK    5  A    between atoms: N_13  and  C_14 
REMARK       I    between atoms: C_21  and  N_22 
REMARK    6  A    between atoms: N_22  and  C_23 
ROOT
HETATM    1  N   UNL     1      41.113 -12.161   5.941  1.00  0.00    -0.176 N 
HETATM    2  C   UNL     1      41.227 -11.043   6.815  1.00  0.00     0.348 C 
HETATM    3  N   UNL     1      41.444 -11.428   8.135  1.00  0.00    -0.307 N 
HETATM    4  O   UNL     1      41.114  -9.868   6.477  1.00  0.00    -0.245 OA
HETATM    5  H   UNL     1      41.110 -12.367   8.340  1.00  0.00     0.170 HD
ENDROOT
BRANCH   1   6
HETATM    6  C   UNL     1      40.786 -11.933   4.602  1.00  0.00     0.197 A 
HETATM    7  N   UNL     1      41.560 -12.021   3.546  1.00  0.00    -0.222 NA
HETATM    8  C   UNL     1      40.830 -11.850   2.378  1.00  0.00     0.076 A 
HETATM    9  C   UNL     1      39.507 -11.508   2.583  1.00  0.00     0.086 A 
HETATM   10  S   UNL     1      39.150 -11.515   4.259  1.00  0.00    -0.060 SA
BRANCH   8  11
HETATM   11  C   UNL     1      41.440 -12.099   1.072  1.00  0.00    -0.007 A 
HETATM   12  C   UNL     1      42.124 -11.110   0.355  1.00  0.00     0.016 A 
HETATM   13  C   UNL     1      42.610 -11.372  -0.932  1.00  0.00     0.037 A 
HETATM   14  C   UNL     1      42.423 -12.619  -1.529  1.00  0.00     0.068 A 
HETATM   15  C   UNL     1      41.771 -13.620  -0.813  1.00  0.00     0.037 A 
HETATM   16  C   UNL     1      41.288 -13.361   0.476  1.00  0.00     0.016 A 
BRANCH  14  17
HETATM   17  O   UNL     1      42.920 -12.728  -2.798  1.00  0.00    -0.356 OA
HETATM   18  C   UNL     1      42.254 -11.982  -3.810  1.00  0.00     0.210 C 
ENDBRANCH  14  17
ENDBRANCH   8  11
ENDBRANCH   1   6
BRANCH   1  19
HETATM   19  N   UNL     1      41.922 -13.319   6.181  1.00  0.00    -0.239 N 
HETATM   20  C   UNL     1      41.429 -14.594   6.088  1.00  0.00     0.335 C 
HETATM   21  N   UNL     1      42.388 -15.531   6.373  1.00  0.00    -0.337 N 
HETATM   22  O   UNL     1      40.257 -14.857   5.849  1.00  0.00    -0.246 OA
HETATM   23  H   UNL     1      43.327 -15.211   6.559  1.00  0.00     0.164 HD
HETATM   24  H   UNL     1      42.700 -13.144   6.803  1.00  0.00     0.192 HD
BRANCH  21  25
HETATM   25  C   UNL     1      42.059 -16.917   6.688  1.00  0.00     0.086 C 
HETATM   26  C   UNL     1      41.969 -17.760   5.410  1.00  0.00     0.025 C 
HETATM   27  C   UNL     1      43.330 -18.000   4.756  1.00  0.00     0.002 C 
HETATM   28  C   UNL     1      44.346 -18.568   5.744  1.00  0.00     0.000 C 
HETATM   29  C   UNL     1      44.457 -17.711   7.002  1.00  0.00     0.002 C 
HETATM   30  C   UNL     1      43.093 -17.500   7.662  1.00  0.00     0.025 C 
ENDBRANCH  21  25
ENDBRANCH   1  19
BRANCH   3  31
HETATM   31  C   UNL     1      41.717 -10.623   9.253  1.00  0.00     0.036 A 
HETATM   32  C   UNL     1      40.829  -9.680   9.775  1.00  0.00     0.031 A 
HETATM   33  C   UNL     1      41.188  -8.913  10.890  1.00  0.00     0.026 A 
HETATM   34  C   UNL     1      42.440  -9.080  11.477  1.00  0.00     0.034 A 
HETATM   35 CL   UNL     1      42.881  -8.132  12.844  1.00  0.00    -0.084 Cl
HETATM   36  C   UNL     1      43.339 -10.008  10.960  1.00  0.00     0.026 A 
HETATM   37  C   UNL     1      42.976 -10.778   9.852  1.00  0.00     0.031 A 
ENDBRANCH   3  31
TORSDOF 6
ENDMDL
MODEL 5
REMARK VINA RESULT:      -8.6      3.767      9.354
REMARK  6 active torsions:
REMARK  status: ('A' for Active; 'I' for Inactive)
REMARK    1  A    between atoms: O_2  and  C_3 
REMARK    2  A    between atoms: C_6  and  C_7 
REMARK    3  A    between atoms: C_9  and  N_10 
REMARK    4  A    between atoms: N_10  and  N_11 
REMARK       I    between atoms: N_10  and  C_21 
REMARK       I    between atoms: N_11  and  C_12 
REMARK       I    between atoms: C_12  and  N_13 
REMARK    5  A    between atoms: N_13  and  C_14 
REMARK       I    between atoms: C_21  and  N_22 
REMARK    6  A    between atoms: N_22  and  C_23 
ROOT
HETATM    1  N   UNL     1      42.148 -14.279   1.389  1.00  0.00    -0.176 N 
HETATM    2  C   UNL     1      42.427 -15.674   1.406  1.00  0.00     0.348 C 
HETATM    3  N   UNL     1      43.101 -16.060   2.561  1.00  0.00    -0.307 N 
HETATM    4  O   UNL     1      42.152 -16.460   0.504  1.00  0.00    -0.245 OA
HETATM    5  H   UNL     1      43.617 -15.301   3.000  1.00  0.00     0.170 HD
ENDROOT
BRANCH   1   6
HETATM    6  C   UNL     1      41.571 -13.725   0.243  1.00  0.00     0.197 A 
HETATM    7  N   UNL     1      40.742 -14.285  -0.605  1.00  0.00    -0.222 NA
HETATM    8  C   UNL     1      40.289 -13.364  -1.540  1.00  0.00     0.076 A 
HETATM    9  C   UNL     1      40.891 -12.124  -1.450  1.00  0.00     0.086 A 
HETATM   10  S   UNL     1      41.953 -12.081  -0.105  1.00  0.00    -0.060 SA
BRANCH   8  11
HETATM   11  C   UNL     1      39.209 -13.708  -2.466  1.00  0.00    -0.007 A 
HETATM   12  C   UNL     1      38.199 -12.805  -2.819  1.00  0.00     0.016 A 
HETATM   13  C   UNL     1      37.135 -13.211  -3.635  1.00  0.00     0.037 A 
HETATM   14  C   UNL     1      37.057 -14.520  -4.112  1.00  0.00     0.068 A 
HETATM   15  C   UNL     1      38.073 -15.418  -3.793  1.00  0.00     0.037 A 
HETATM   16  C   UNL     1      39.139 -15.012  -2.979  1.00  0.00     0.016 A 
BRANCH  14  17
HETATM   17  O   UNL     1      35.953 -14.788  -4.871  1.00  0.00    -0.356 OA
HETATM   18  C   UNL     1      34.982 -13.753  -4.973  1.00  0.00     0.210 C 
ENDBRANCH  14  17
ENDBRANCH   8  11
ENDBRANCH   1   6
BRANCH   1  19
HETATM   19  N   UNL     1      41.814 -13.620   2.617  1.00  0.00    -0.239 N 
HETATM   20  C   UNL     1      40.588 -13.751   3.215  1.00  0.00     0.335 C 
HETATM   21  N   UNL     1      40.505 -13.019   4.371  1.00  0.00    -0.337 N 
HETATM   22  O   UNL     1      39.660 -14.390   2.734  1.00  0.00    -0.246 OA
HETATM   23  H   UNL     1      41.328 -12.524   4.682  1.00  0.00     0.164 HD
HETATM   24  H   UNL     1      42.342 -12.771   2.774  1.00  0.00     0.192 HD
BRANCH  21  25
HETATM   25  C   UNL     1      39.231 -12.702   5.006  1.00  0.00     0.086 C 
HETATM   26  C   UNL     1      39.402 -12.547   6.522  1.00  0.00     0.025 C 
HETATM   27  C   UNL     1      40.163 -11.279   6.911  1.00  0.00     0.002 C 
HETATM   28  C   UNL     1      39.557 -10.031   6.274  1.00  0.00     0.000 C 
HETATM   29  C   UNL     1      39.417 -10.175   4.761  1.00  0.00     0.002 C 
HETATM   30  C   UNL     1      38.631 -11.432   4.386  1.00  0.00     0.025 C 
ENDBRANCH  21  25
ENDBRANCH   1  19
BRANCH   3  31
HETATM   31  C   UNL     1      43.445 -17.354   2.988  1.00  0.00     0.036 A 
HETATM   32  C   UNL     1      43.325 -17.801   4.306  1.00  0.00     0.031 A 
HETATM   33  C   UNL     1      43.701 -19.106   4.646  1.00  0.00     0.026 A 
HETATM   34  C   UNL     1      44.209 -19.961   3.671  1.00  0.00     0.034 A 
HETATM   35 CL   UNL     1      44.676 -21.563   4.094  1.00  0.00    -0.084 Cl
HETATM   36  C   UNL     1      44.345 -19.525   2.358  1.00  0.00     0.026 A 
HETATM   37  C   UNL     1      43.963 -18.224   2.018  1.00  0.00     0.031 A 
ENDBRANCH   3  31
TORSDOF 6
ENDMDL
MODEL 6
REMARK VINA RESULT:      -8.6      5.869      8.654
REMARK  6 active torsions:
REMARK  status: ('A' for Active; 'I' for Inactive)
REMARK    1  A    between atoms: O_2  and  C_3 
REMARK    2  A    between atoms: C_6  and  C_7 
REMARK    3  A    between atoms: C_9  and  N_10 
REMARK    4  A    between atoms: N_10  and  N_11 
REMARK       I    between atoms: N_10  and  C_21 
REMARK       I    between atoms: N_11  and  C_12 
REMARK       I    between atoms: C_12  and  N_13 
REMARK    5  A    between atoms: N_13  and  C_14 
REMARK       I    between atoms: C_21  and  N_22 
REMARK    6  A    between atoms: N_22  and  C_23 
ROOT
HETATM    1  N   UNL     1      41.573 -12.952   4.100  1.00  0.00    -0.176 N 
HETATM    2  C   UNL     1      42.005 -14.296   4.284  1.00  0.00     0.348 C 
HETATM    3  N   UNL     1      42.213 -14.951   3.073  1.00  0.00    -0.307 N 
HETATM    4  O   UNL     1      42.149 -14.849   5.370  1.00  0.00    -0.245 OA
HETATM    5  H   UNL     1      41.682 -14.551   2.302  1.00  0.00     0.170 HD
ENDROOT
BRANCH   1   6
HETATM    6  C   UNL     1      41.220 -12.203   5.225  1.00  0.00     0.197 A 
HETATM    7  N   UNL     1      41.874 -12.069   6.354  1.00  0.00    -0.222 NA
HETATM    8  C   UNL     1      41.262 -11.131   7.175  1.00  0.00     0.076 A 
HETATM    9  C   UNL     1      40.062 -10.650   6.688  1.00  0.00     0.086 A 
HETATM   10  S   UNL     1      39.757 -11.297   5.130  1.00  0.00    -0.060 SA
BRANCH   8  11
HETATM   11  C   UNL     1      41.916 -10.670   8.401  1.00  0.00    -0.007 A 
HETATM   12  C   UNL     1      43.200 -11.084   8.773  1.00  0.00     0.016 A 
HETATM   13  C   UNL     1      43.746 -10.689  10.002  1.00  0.00     0.037 A 
HETATM   14  C   UNL     1      43.024  -9.880  10.880  1.00  0.00     0.068 A 
HETATM   15  C   UNL     1      41.758  -9.437  10.505  1.00  0.00     0.037 A 
HETATM   16  C   UNL     1      41.212  -9.828   9.276  1.00  0.00     0.016 A 
BRANCH  14  17
HETATM   17  O   UNL     1      43.662  -9.596  12.055  1.00  0.00    -0.356 OA
HETATM   18  C   UNL     1      43.081 -10.125  13.240  1.00  0.00     0.210 C 
ENDBRANCH  14  17
ENDBRANCH   8  11
ENDBRANCH   1   6
BRANCH   1  19
HETATM   19  N   UNL     1      42.102 -12.194   3.004  1.00  0.00    -0.239 N 
HETATM   20  C   UNL     1      41.435 -12.054   1.816  1.00  0.00     0.335 C 
HETATM   21  N   UNL     1      42.145 -11.295   0.922  1.00  0.00    -0.337 N 
HETATM   22  O   UNL     1      40.368 -12.601   1.563  1.00  0.00    -0.246 OA
HETATM   23  H   UNL     1      43.016 -10.889   1.227  1.00  0.00     0.164 HD
HETATM   24  H   UNL     1      43.112 -12.139   3.004  1.00  0.00     0.192 HD
BRANCH  21  25
HETATM   25  C   UNL     1      41.842 -11.280  -0.505  1.00  0.00     0.086 C 
HETATM   26  C   UNL     1      40.925 -10.102  -0.856  1.00  0.00     0.025 C 
HETATM   27  C   UNL     1      41.630  -8.749  -0.766  1.00  0.00     0.002 C 
HETATM   28  C   UNL     1      42.925  -8.725  -1.575  1.00  0.00     0.000 C 
HETATM   29  C   UNL     1      43.850  -9.879  -1.203  1.00  0.00     0.002 C 
HETATM   30  C   UNL     1      43.142 -11.229  -1.323  1.00  0.00     0.025 C 
ENDBRANCH  21  25
ENDBRANCH   1  19
BRANCH   3  31
HETATM   31  C   UNL     1      42.742 -16.233   2.845  1.00  0.00     0.036 A 
HETATM   32  C   UNL     1      43.631 -16.540   1.813  1.00  0.00     0.031 A 
HETATM   33  C   UNL     1      44.102 -17.848   1.653  1.00  0.00     0.026 A 
HETATM   34  C   UNL     1      43.674 -18.854   2.517  1.00  0.00     0.034 A 
HETATM   35 CL   UNL     1      44.250 -20.462   2.314  1.00  0.00    -0.084 Cl
HETATM   36  C   UNL     1      42.779 -18.564   3.542  1.00  0.00     0.026 A 
HETATM   37  C   UNL     1      42.315 -17.256   3.704  1.00  0.00     0.031 A 
ENDBRANCH   3  31
TORSDOF 6
ENDMDL
MODEL 7
REMARK VINA RESULT:      -8.5      3.956      4.975
REMARK  6 active torsions:
REMARK  status: ('A' for Active; 'I' for Inactive)
REMARK    1  A    between atoms: O_2  and  C_3 
REMARK    2  A    between atoms: C_6  and  C_7 
REMARK    3  A    between atoms: C_9  and  N_10 
REMARK    4  A    between atoms: N_10  and  N_11 
REMARK       I    between atoms: N_10  and  C_21 
REMARK       I    between atoms: N_11  and  C_12 
REMARK       I    between atoms: C_12  and  N_13 
REMARK    5  A    between atoms: N_13  and  C_14 
REMARK       I    between atoms: C_21  and  N_22 
REMARK    6  A    between atoms: N_22  and  C_23 
ROOT
HETATM    1  N   UNL     1      41.249 -13.713   3.623  1.00  0.00    -0.176 N 
HETATM    2  C   UNL     1      41.027 -13.557   5.019  1.00  0.00     0.348 C 
HETATM    3  N   UNL     1      41.074 -12.222   5.413  1.00  0.00    -0.307 N 
HETATM    4  O   UNL     1      40.849 -14.476   5.814  1.00  0.00    -0.245 OA
HETATM    5  H   UNL     1      41.619 -11.636   4.784  1.00  0.00     0.170 HD
ENDROOT
BRANCH   1   6
HETATM    6  C   UNL     1      41.338 -15.005   3.099  1.00  0.00     0.197 A 
HETATM    7  N   UNL     1      42.312 -15.875   3.233  1.00  0.00    -0.222 NA
HETATM    8  C   UNL     1      41.966 -17.098   2.675  1.00  0.00     0.076 A 
HETATM    9  C   UNL     1      40.756 -17.094   2.008  1.00  0.00     0.086 A 
HETATM   10  S   UNL     1      39.992 -15.570   2.183  1.00  0.00    -0.060 SA
BRANCH   8  11
HETATM   11  C   UNL     1      42.811 -18.276   2.874  1.00  0.00    -0.007 A 
HETATM   12  C   UNL     1      42.978 -19.262   1.893  1.00  0.00     0.016 A 
HETATM   13  C   UNL     1      43.722 -20.417   2.166  1.00  0.00     0.037 A 
HETATM   14  C   UNL     1      44.311 -20.612   3.416  1.00  0.00     0.068 A 
HETATM   15  C   UNL     1      44.177 -19.624   4.388  1.00  0.00     0.037 A 
HETATM   16  C   UNL     1      43.436 -18.467   4.116  1.00  0.00     0.016 A 
BRANCH  14  17
HETATM   17  O   UNL     1      44.981 -21.795   3.556  1.00  0.00    -0.356 OA
HETATM   18  C   UNL     1      44.970 -22.386   4.849  1.00  0.00     0.210 C 
ENDBRANCH  14  17
ENDBRANCH   8  11
ENDBRANCH   1   6
BRANCH   1  19
HETATM   19  N   UNL     1      40.736 -12.725   2.720  1.00  0.00    -0.239 N 
HETATM   20  C   UNL     1      41.487 -12.195   1.703  1.00  0.00     0.335 C 
HETATM   21  N   UNL     1      40.783 -11.264   0.985  1.00  0.00    -0.337 N 
HETATM   22  O   UNL     1      42.664 -12.472   1.509  1.00  0.00    -0.246 OA
HETATM   23  H   UNL     1      39.816 -11.107   1.226  1.00  0.00     0.164 HD
HETATM   24  H   UNL     1      39.993 -12.165   3.117  1.00  0.00     0.192 HD
BRANCH  21  25
HETATM   25  C   UNL     1      41.433 -10.310   0.093  1.00  0.00     0.086 C 
HETATM   26  C   UNL     1      41.502 -10.861  -1.337  1.00  0.00     0.025 C 
HETATM   27  C   UNL     1      40.137 -10.911  -2.025  1.00  0.00     0.002 C 
HETATM   28  C   UNL     1      39.418  -9.566  -1.965  1.00  0.00     0.000 C 
HETATM   29  C   UNL     1      39.323  -9.033  -0.538  1.00  0.00     0.002 C 
HETATM   30  C   UNL     1      40.697  -8.962   0.129  1.00  0.00     0.025 C 
ENDBRANCH  21  25
ENDBRANCH   1  19
BRANCH   3  31
HETATM   31  C   UNL     1      40.795 -11.665   6.672  1.00  0.00     0.036 A 
HETATM   32  C   UNL     1      39.547 -11.726   7.295  1.00  0.00     0.031 A 
HETATM   33  C   UNL     1      39.354 -11.134   8.549  1.00  0.00     0.026 A 
HETATM   34  C   UNL     1      40.406 -10.469   9.175  1.00  0.00     0.034 A 
HETATM   35 CL   UNL     1      40.165  -9.737  10.714  1.00  0.00    -0.084 Cl
HETATM   36  C   UNL     1      41.652 -10.391   8.560  1.00  0.00     0.026 A 
HETATM   37  C   UNL     1      41.844 -10.988   7.311  1.00  0.00     0.031 A 
ENDBRANCH   3  31
TORSDOF 6
ENDMDL
MODEL 8
REMARK VINA RESULT:      -8.5      3.773      4.857
REMARK  6 active torsions:
REMARK  status: ('A' for Active; 'I' for Inactive)
REMARK    1  A    between atoms: O_2  and  C_3 
REMARK    2  A    between atoms: C_6  and  C_7 
REMARK    3  A    between atoms: C_9  and  N_10 
REMARK    4  A    between atoms: N_10  and  N_11 
REMARK       I    between atoms: N_10  and  C_21 
REMARK       I    between atoms: N_11  and  C_12 
REMARK       I    between atoms: C_12  and  N_13 
REMARK    5  A    between atoms: N_13  and  C_14 
REMARK       I    between atoms: C_21  and  N_22 
REMARK    6  A    between atoms: N_22  and  C_23 
ROOT
HETATM    1  N   UNL     1      42.159 -13.549   3.709  1.00  0.00    -0.176 N 
HETATM    2  C   UNL     1      41.396 -13.102   4.823  1.00  0.00     0.348 C 
HETATM    3  N   UNL     1      41.717 -11.798   5.190  1.00  0.00    -0.307 N 
HETATM    4  O   UNL     1      40.572 -13.778   5.432  1.00  0.00    -0.245 OA
HETATM    5  H   UNL     1      42.652 -11.517   4.903  1.00  0.00     0.170 HD
ENDROOT
BRANCH   1   6
HETATM    6  C   UNL     1      42.024 -14.877   3.294  1.00  0.00     0.197 A 
HETATM    7  N   UNL     1      42.912 -15.841   3.342  1.00  0.00    -0.222 NA
HETATM    8  C   UNL     1      42.353 -17.053   2.959  1.00  0.00     0.076 A 
HETATM    9  C   UNL     1      41.052 -16.956   2.503  1.00  0.00     0.086 A 
HETATM   10  S   UNL     1      40.490 -15.345   2.665  1.00  0.00    -0.060 SA
BRANCH   8  11
HETATM   11  C   UNL     1      43.095 -18.303   3.119  1.00  0.00    -0.007 A 
HETATM   12  C   UNL     1      43.177 -19.269   2.109  1.00  0.00     0.016 A 
HETATM   13  C   UNL     1      43.821 -20.491   2.344  1.00  0.00     0.037 A 
HETATM   14  C   UNL     1      44.392 -20.773   3.586  1.00  0.00     0.068 A 
HETATM   15  C   UNL     1      44.343 -19.807   4.587  1.00  0.00     0.037 A 
HETATM   16  C   UNL     1      43.702 -18.584   4.353  1.00  0.00     0.016 A 
BRANCH  14  17
HETATM   17  O   UNL     1      44.960 -22.012   3.687  1.00  0.00    -0.356 OA
HETATM   18  C   UNL     1      45.138 -22.526   5.001  1.00  0.00     0.210 C 
ENDBRANCH  14  17
ENDBRANCH   8  11
ENDBRANCH   1   6
BRANCH   1  19
HETATM   19  N   UNL     1      42.489 -12.618   2.670  1.00  0.00    -0.239 N 
HETATM   20  C   UNL     1      41.540 -11.873   2.020  1.00  0.00     0.335 C 
HETATM   21  N   UNL     1      42.098 -11.065   1.063  1.00  0.00    -0.337 N 
HETATM   22  O   UNL     1      40.337 -11.973   2.224  1.00  0.00    -0.246 OA
HETATM   23  H   UNL     1      43.102 -11.057   0.972  1.00  0.00     0.164 HD
HETATM   24  H   UNL     1      43.345 -12.847   2.182  1.00  0.00     0.192 HD
BRANCH  21  25
HETATM   25  C   UNL     1      41.306 -10.445   0.006  1.00  0.00     0.086 C 
HETATM   26  C   UNL     1      41.891  -9.082  -0.384  1.00  0.00     0.025 C 
HETATM   27  C   UNL     1      43.216  -9.194  -1.138  1.00  0.00     0.002 C 
HETATM   28  C   UNL     1      43.114 -10.135  -2.336  1.00  0.00     0.000 C 
HETATM   29  C   UNL     1      42.561 -11.501  -1.941  1.00  0.00     0.002 C 
HETATM   30  C   UNL     1      41.222 -11.378  -1.211  1.00  0.00     0.025 C 
ENDBRANCH  21  25
ENDBRANCH   1  19
BRANCH   3  31
HETATM   31  C   UNL     1      41.108 -10.980   6.157  1.00  0.00     0.036 A 
HETATM   32  C   UNL     1      41.573 -10.836   7.465  1.00  0.00     0.031 A 
HETATM   33  C   UNL     1      40.897 -10.005   8.367  1.00  0.00     0.026 A 
HETATM   34  C   UNL     1      39.750  -9.326   7.964  1.00  0.00     0.034 A 
HETATM   35 CL   UNL     1      38.919  -8.309   9.076  1.00  0.00    -0.084 Cl
HETATM   36  C   UNL     1      39.270  -9.469   6.666  1.00  0.00     0.026 A 
HETATM   37  C   UNL     1      39.949 -10.294   5.765  1.00  0.00     0.031 A 
ENDBRANCH   3  31
TORSDOF 6
ENDMDL
MODEL 9
REMARK VINA RESULT:      -8.4      5.171      8.872
REMARK  6 active torsions:
REMARK  status: ('A' for Active; 'I' for Inactive)
REMARK    1  A    between atoms: O_2  and  C_3 
REMARK    2  A    between atoms: C_6  and  C_7 
REMARK    3  A    between atoms: C_9  and  N_10 
REMARK    4  A    between atoms: N_10  and  N_11 
REMARK       I    between atoms: N_10  and  C_21 
REMARK       I    between atoms: N_11  and  C_12 
REMARK       I    between atoms: C_12  and  N_13 
REMARK    5  A    between atoms: N_13  and  C_14 
REMARK       I    between atoms: C_21  and  N_22 
REMARK    6  A    between atoms: N_22  and  C_23 
ROOT
HETATM    1  N   UNL     1      42.265 -12.688   4.025  1.00  0.00    -0.176 N 
HETATM    2  C   UNL     1      41.556 -12.819   2.798  1.00  0.00     0.348 C 
HETATM    3  N   UNL     1      42.231 -13.623   1.884  1.00  0.00    -0.307 N 
HETATM    4  O   UNL     1      40.491 -12.268   2.535  1.00  0.00    -0.245 OA
HETATM    5  H   UNL     1      43.235 -13.666   2.049  1.00  0.00     0.170 HD
ENDROOT
BRANCH   1   6
HETATM    6  C   UNL     1      41.763 -11.823   5.000  1.00  0.00     0.197 A 
HETATM    7  N   UNL     1      41.682 -12.011   6.295  1.00  0.00    -0.222 NA
HETATM    8  C   UNL     1      41.247 -10.861   6.940  1.00  0.00     0.076 A 
HETATM    9  C   UNL     1      40.884  -9.838   6.086  1.00  0.00     0.086 A 
HETATM   10  S   UNL     1      41.200 -10.285   4.462  1.00  0.00    -0.060 SA
BRANCH   8  11
HETATM   11  C   UNL     1      41.267 -10.769   8.400  1.00  0.00    -0.007 A 
HETATM   12  C   UNL     1      42.455 -10.671   9.135  1.00  0.00     0.016 A 
HETATM   13  C   UNL     1      42.427 -10.680  10.536  1.00  0.00     0.037 A 
HETATM   14  C   UNL     1      41.220 -10.789  11.228  1.00  0.00     0.068 A 
HETATM   15  C   UNL     1      40.030 -10.855  10.507  1.00  0.00     0.037 A 
HETATM   16  C   UNL     1      40.056 -10.843   9.106  1.00  0.00     0.016 A 
BRANCH  14  17
HETATM   17  O   UNL     1      41.340 -10.816  12.589  1.00  0.00    -0.356 OA
HETATM   18  C   UNL     1      42.663 -10.829  13.113  1.00  0.00     0.210 C 
ENDBRANCH  14  17
ENDBRANCH   8  11
ENDBRANCH   1   6
BRANCH   1  19
HETATM   19  N   UNL     1      43.000 -13.811   4.529  1.00  0.00    -0.239 N 
HETATM   20  C   UNL     1      42.408 -15.016   4.802  1.00  0.00     0.335 C 
HETATM   21  N   UNL     1      43.312 -15.928   5.282  1.00  0.00    -0.337 N 
HETATM   22  O   UNL     1      41.206 -15.225   4.695  1.00  0.00    -0.246 OA
HETATM   23  H   UNL     1      44.282 -15.656   5.334  1.00  0.00     0.164 HD
HETATM   24  H   UNL     1      43.830 -13.549   5.045  1.00  0.00     0.192 HD
BRANCH  21  25
HETATM   25  C   UNL     1      42.902 -17.147   5.971  1.00  0.00     0.086 C 
HETATM   26  C   UNL     1      42.701 -18.295   4.974  1.00  0.00     0.025 C 
HETATM   27  C   UNL     1      44.014 -18.808   4.381  1.00  0.00     0.002 C 
HETATM   28  C   UNL     1      45.029 -19.163   5.464  1.00  0.00     0.000 C 
HETATM   29  C   UNL     1      45.251 -18.009   6.438  1.00  0.00     0.002 C 
HETATM   30  C   UNL     1      43.934 -17.523   7.044  1.00  0.00     0.025 C 
ENDBRANCH  21  25
ENDBRANCH   1  19
BRANCH   3  31
HETATM   31  C   UNL     1      41.805 -14.074   0.624  1.00  0.00     0.036 A 
HETATM   32  C   UNL     1      41.621 -13.244  -0.484  1.00  0.00     0.031 A 
HETATM   33  C   UNL     1      41.183 -13.778  -1.702  1.00  0.00     0.026 A 
HETATM   34  C   UNL     1      40.917 -15.141  -1.810  1.00  0.00     0.034 A 
HETATM   35 CL   UNL     1      40.374 -15.793  -3.307  1.00  0.00    -0.084 Cl
HETATM   36  C   UNL     1      41.085 -15.977  -0.711  1.00  0.00     0.026 A 
HETATM   37  C   UNL     1      41.528 -15.444   0.502  1.00  0.00     0.031 A 
ENDBRANCH   3  31
TORSDOF 6
ENDMDL
MODEL 10
REMARK VINA RESULT:      -8.3      5.932      9.110
REMARK  6 active torsions:
REMARK  status: ('A' for Active; 'I' for Inactive)
REMARK    1  A    between atoms: O_2  and  C_3 
REMARK    2  A    between atoms: C_6  and  C_7 
REMARK    3  A    between atoms: C_9  and  N_10 
REMARK    4  A    between atoms: N_10  and  N_11 
REMARK       I    between atoms: N_10  and  C_21 
REMARK       I    between atoms: N_11  and  C_12 
REMARK       I    between atoms: C_12  and  N_13 
REMARK    5  A    between atoms: N_13  and  C_14 
REMARK       I    between atoms: C_21  and  N_22 
REMARK    6  A    between atoms: N_22  and  C_23 
ROOT
HETATM    1  N   UNL     1      41.818 -12.085   5.335  1.00  0.00    -0.176 N 
HETATM    2  C   UNL     1      40.787 -12.078   4.354  1.00  0.00     0.348 C 
HETATM    3  N   UNL     1      41.124 -12.832   3.234  1.00  0.00    -0.307 N 
HETATM    4  O   UNL     1      39.731 -11.459   4.443  1.00  0.00    -0.245 OA
HETATM    5  H   UNL     1      42.128 -12.934   3.104  1.00  0.00     0.170 HD
ENDROOT
BRANCH   1   6
HETATM    6  C   UNL     1      41.668 -11.283   6.470  1.00  0.00     0.197 A 
HETATM    7  N   UNL     1      41.764 -11.628   7.732  1.00  0.00    -0.222 NA
HETATM    8  C   UNL     1      41.682 -10.516   8.559  1.00  0.00     0.076 A 
HETATM    9  C   UNL     1      41.398  -9.337   7.897  1.00  0.00     0.086 A 
HETATM   10  S   UNL     1      41.347  -9.610   6.205  1.00  0.00    -0.060 SA
BRANCH   8  11
HETATM   11  C   UNL     1      41.959 -10.628   9.992  1.00  0.00    -0.007 A 
HETATM   12  C   UNL     1      40.983 -11.001  10.924  1.00  0.00     0.016 A 
HETATM   13  C   UNL     1      41.273 -11.003  12.294  1.00  0.00     0.037 A 
HETATM   14  C   UNL     1      42.535 -10.634  12.761  1.00  0.00     0.068 A 
HETATM   15  C   UNL     1      43.523 -10.292  11.841  1.00  0.00     0.037 A 
HETATM   16  C   UNL     1      43.235 -10.292  10.469  1.00  0.00     0.016 A 
BRANCH  14  17
HETATM   17  O   UNL     1      42.671 -10.652  14.121  1.00  0.00    -0.356 OA
HETATM   18  C   UNL     1      41.720  -9.901  14.867  1.00  0.00     0.210 C 
ENDBRANCH  14  17
ENDBRANCH   8  11
ENDBRANCH   1   6
BRANCH   1  19
HETATM   19  N   UNL     1      42.587 -13.278   5.532  1.00  0.00    -0.239 N 
HETATM   20  C   UNL     1      42.007 -14.500   5.751  1.00  0.00     0.335 C 
HETATM   21  N   UNL     1      42.946 -15.485   5.920  1.00  0.00    -0.337 N 
HETATM   22  O   UNL     1      40.799 -14.674   5.852  1.00  0.00    -0.246 OA
HETATM   23  H   UNL     1      43.919 -15.238   5.818  1.00  0.00     0.164 HD
HETATM   24  H   UNL     1      43.510 -13.104   5.908  1.00  0.00     0.192 HD
BRANCH  21  25
HETATM   25  C   UNL     1      42.623 -16.781   6.505  1.00  0.00     0.086 C 
HETATM   26  C   UNL     1      42.323 -17.813   5.410  1.00  0.00     0.025 C 
HETATM   27  C   UNL     1      43.567 -18.230   4.625  1.00  0.00     0.002 C 
HETATM   28  C   UNL     1      44.697 -18.685   5.545  1.00  0.00     0.000 C 
HETATM   29  C   UNL     1      45.015 -17.644   6.614  1.00  0.00     0.002 C 
HETATM   30  C   UNL     1      43.769 -17.255   7.411  1.00  0.00     0.025 C 
ENDBRANCH  21  25
ENDBRANCH   1  19
BRANCH   3  31
HETATM   31  C   UNL     1      40.333 -13.155   2.119  1.00  0.00     0.036 A 
HETATM   32  C   UNL     1      39.316 -14.112   2.131  1.00  0.00     0.031 A 
HETATM   33  C   UNL     1      38.581 -14.378   0.969  1.00  0.00     0.026 A 
HETATM   34  C   UNL     1      38.871 -13.694  -0.209  1.00  0.00     0.034 A 
HETATM   35 CL   UNL     1      37.970 -14.026  -1.637  1.00  0.00    -0.084 Cl
HETATM   36  C   UNL     1      39.889 -12.747  -0.239  1.00  0.00     0.026 A 
HETATM   37  C   UNL     1      40.617 -12.478   0.924  1.00  0.00     0.031 A 
ENDBRANCH   3  31
TORSDOF 6
ENDMDL
