MODEL 1
REMARK VINA RESULT:      -7.8      0.000      0.000
REMARK  6 active torsions:
REMARK  status: ('A' for Active; 'I' for Inactive)
REMARK    1  A    between atoms: C_2  and  C_3 
REMARK    2  A    between atoms: C_3  and  N_4 
REMARK       I    between atoms: N_4  and  C_5 
REMARK    3  A    between atoms: C_5  and  C_6 
REMARK    4  A    between atoms: C_11  and  C_12 
REMARK    5  A    between atoms: C_15  and  O_16 
REMARK    6  A    between atoms: C_21  and  C_22 
ROOT
HETATM    1  C   UNL     1      42.877 -17.108   4.911  1.00  0.00     0.170 A 
HETATM    2  N   UNL     1      43.372 -16.826   3.678  1.00  0.00    -0.163 NA
HETATM    3  N   UNL     1      42.336 -16.250   3.047  1.00  0.00    -0.238 N 
HETATM    4  C   UNL     1      41.220 -16.094   3.820  1.00  0.00     0.145 A 
HETATM    5  N   UNL     1      40.119 -15.462   3.340  1.00  0.00    -0.365 N 
HETATM    6  C   UNL     1      40.008 -15.111   1.927  1.00  0.00     0.118 C 
HETATM    7  C   UNL     1      41.394 -14.717   1.385  1.00  0.00     0.066 C 
HETATM    8  C   UNL     1      42.437 -15.812   1.667  1.00  0.00     0.221 C 
HETATM    9  C   UNL     1      41.531 -16.662   5.036  1.00  0.00     0.115 A 
HETATM   10 CL   UNL     1      40.514 -16.775   6.389  1.00  0.00    -0.077 Cl
HETATM   11  H   UNL     1      39.237 -15.516   3.851  1.00  0.00     0.162 HD
ENDROOT
BRANCH   6  12
HETATM   12  C   UNL     1      39.021 -13.975   1.731  1.00  0.00    -0.035 A 
HETATM   13  C   UNL     1      39.144 -12.760   2.419  1.00  0.00     0.012 A 
HETATM   14  C   UNL     1      38.244 -11.717   2.183  1.00  0.00     0.037 A 
HETATM   15  C   UNL     1      37.215 -11.858   1.252  1.00  0.00     0.068 A 
HETATM   16  C   UNL     1      37.084 -13.062   0.562  1.00  0.00     0.037 A 
HETATM   17  C   UNL     1      37.981 -14.110   0.798  1.00  0.00     0.012 A 
BRANCH  15  18
HETATM   18  O   UNL     1      36.415 -10.757   1.110  1.00  0.00    -0.356 OA
HETATM   19  C   UNL     1      35.110 -10.974   0.588  1.00  0.00     0.210 C 
ENDBRANCH  15  18
ENDBRANCH   6  12
BRANCH   8  20
HETATM   20  C   UNL     1      42.287 -16.998   0.740  1.00  0.00     0.409 C 
HETATM   21  F   UNL     1      43.462 -17.596   0.451  1.00  0.00    -0.169 F 
HETATM   22  F   UNL     1      41.503 -17.944   1.322  1.00  0.00    -0.169 F 
HETATM   23  F   UNL     1      41.692 -16.675  -0.429  1.00  0.00    -0.169 F 
ENDBRANCH   8  20
BRANCH   1  24
HETATM   24  C   UNL     1      43.711 -17.789   5.915  1.00  0.00     0.273 C 
HETATM   25  N   UNL     1      43.207 -19.020   6.285  1.00  0.00    -0.356 N 
HETATM   26  H   UNL     1      42.312 -19.269   5.871  1.00  0.00     0.162 HD
HETATM   27  O   UNL     1      44.740 -17.317   6.387  1.00  0.00    -0.266 OA
BRANCH  25  28
HETATM   28  C   UNL     1      43.793 -19.836   7.321  1.00  0.00     0.122 C 
BRANCH  28  29
HETATM   29  C   UNL     1      43.828 -21.308   6.922  1.00  0.00     0.015 C 
HETATM   30  C   UNL     1      44.542 -21.509   5.595  1.00  0.00     0.006 C 
ENDBRANCH  28  29
ENDBRANCH  25  28
ENDBRANCH   1  24
TORSDOF 6
ENDMDL
MODEL 2
REMARK VINA RESULT:      -7.7      3.072      7.726
REMARK  6 active torsions:
REMARK  status: ('A' for Active; 'I' for Inactive)
REMARK    1  A    between atoms: C_2  and  C_3 
REMARK    2  A    between atoms: C_3  and  N_4 
REMARK       I    between atoms: N_4  and  C_5 
REMARK    3  A    between atoms: C_5  and  C_6 
REMARK    4  A    between atoms: C_11  and  C_12 
REMARK    5  A    between atoms: C_15  and  O_16 
REMARK    6  A    between atoms: C_21  and  C_22 
ROOT
HETATM    1  C   UNL     1      40.417 -13.556   4.282  1.00  0.00     0.170 A 
HETATM    2  N   UNL     1      39.837 -14.136   3.200  1.00  0.00    -0.163 NA
HETATM    3  N   UNL     1      40.674 -15.140   2.893  1.00  0.00    -0.238 N 
HETATM    4  C   UNL     1      41.731 -15.274   3.749  1.00  0.00     0.145 A 
HETATM    5  N   UNL     1      42.620 -16.290   3.608  1.00  0.00    -0.365 N 
HETATM    6  C   UNL     1      42.604 -17.148   2.426  1.00  0.00     0.118 C 
HETATM    7  C   UNL     1      41.150 -17.356   1.964  1.00  0.00     0.066 C 
HETATM    8  C   UNL     1      40.431 -16.011   1.758  1.00  0.00     0.221 C 
HETATM    9  C   UNL     1      41.606 -14.245   4.655  1.00  0.00     0.115 A 
HETATM   10 CL   UNL     1      42.650 -13.902   5.947  1.00  0.00    -0.077 Cl
HETATM   11  H   UNL     1      43.499 -16.273   4.128  1.00  0.00     0.162 HD
ENDROOT
BRANCH   6  12
HETATM   12  C   UNL     1      43.261 -18.483   2.722  1.00  0.00    -0.035 A 
HETATM   13  C   UNL     1      43.912 -18.736   3.938  1.00  0.00     0.012 A 
HETATM   14  C   UNL     1      44.468 -19.992   4.197  1.00  0.00     0.037 A 
HETATM   15  C   UNL     1      44.377 -21.021   3.259  1.00  0.00     0.068 A 
HETATM   16  C   UNL     1      43.732 -20.780   2.048  1.00  0.00     0.037 A 
HETATM   17  C   UNL     1      43.176 -19.523   1.783  1.00  0.00     0.012 A 
BRANCH  15  18
HETATM   18  O   UNL     1      44.952 -22.201   3.645  1.00  0.00    -0.356 OA
HETATM   19  C   UNL     1      45.119 -22.408   5.042  1.00  0.00     0.210 C 
ENDBRANCH  15  18
ENDBRANCH   6  12
BRANCH   8  20
HETATM   20  C   UNL     1      40.859 -15.322   0.481  1.00  0.00     0.409 C 
HETATM   21  F   UNL     1      41.263 -16.185  -0.475  1.00  0.00    -0.169 F 
HETATM   22  F   UNL     1      39.815 -14.625  -0.040  1.00  0.00    -0.169 F 
HETATM   23  F   UNL     1      41.854 -14.430   0.678  1.00  0.00    -0.169 F 
ENDBRANCH   8  20
BRANCH   1  24
HETATM   24  C   UNL     1      39.811 -12.372   4.912  1.00  0.00     0.273 C 
HETATM   25  N   UNL     1      40.582 -11.236   4.774  1.00  0.00    -0.356 N 
HETATM   26  H   UNL     1      41.481 -11.371   4.316  1.00  0.00     0.162 HD
HETATM   27  O   UNL     1      38.739 -12.385   5.509  1.00  0.00    -0.266 OA
BRANCH  25  28
HETATM   28  C   UNL     1      40.249  -9.973   5.386  1.00  0.00     0.122 C 
BRANCH  28  29
HETATM   29  C   UNL     1      41.376  -9.470   6.283  1.00  0.00     0.015 C 
HETATM   30  C   UNL     1      41.718 -10.479   7.367  1.00  0.00     0.006 C 
ENDBRANCH  28  29
ENDBRANCH  25  28
ENDBRANCH   1  24
TORSDOF 6
ENDMDL
MODEL 3
REMARK VINA RESULT:      -7.7      2.550      7.968
REMARK  6 active torsions:
REMARK  status: ('A' for Active; 'I' for Inactive)
REMARK    1  A    between atoms: C_2  and  C_3 
REMARK    2  A    between atoms: C_3  and  N_4 
REMARK       I    between atoms: N_4  and  C_5 
REMARK    3  A    between atoms: C_5  and  C_6 
REMARK    4  A    between atoms: C_11  and  C_12 
REMARK    5  A    between atoms: C_15  and  O_16 
REMARK    6  A    between atoms: C_21  and  C_22 
ROOT
HETATM    1  C   UNL     1      40.153 -13.837   3.954  1.00  0.00     0.170 A 
HETATM    2  N   UNL     1      39.725 -14.410   2.799  1.00  0.00    -0.163 NA
HETATM    3  N   UNL     1      40.627 -15.379   2.575  1.00  0.00    -0.238 N 
HETATM    4  C   UNL     1      41.580 -15.500   3.547  1.00  0.00     0.145 A 
HETATM    5  N   UNL     1      42.514 -16.482   3.492  1.00  0.00    -0.365 N 
HETATM    6  C   UNL     1      42.667 -17.313   2.300  1.00  0.00     0.118 C 
HETATM    7  C   UNL     1      41.285 -17.556   1.665  1.00  0.00     0.066 C 
HETATM    8  C   UNL     1      40.549 -16.231   1.402  1.00  0.00     0.221 C 
HETATM    9  C   UNL     1      41.314 -14.496   4.452  1.00  0.00     0.115 A 
HETATM   10 CL   UNL     1      42.186 -14.150   5.864  1.00  0.00    -0.077 Cl
HETATM   11  H   UNL     1      43.325 -16.450   4.113  1.00  0.00     0.162 HD
ENDROOT
BRANCH   6  12
HETATM   12  C   UNL     1      43.329 -18.633   2.645  1.00  0.00    -0.035 A 
HETATM   13  C   UNL     1      44.010 -18.827   3.856  1.00  0.00     0.012 A 
HETATM   14  C   UNL     1      44.572 -20.069   4.163  1.00  0.00     0.037 A 
HETATM   15  C   UNL     1      44.458 -21.143   3.280  1.00  0.00     0.068 A 
HETATM   16  C   UNL     1      43.783 -20.961   2.074  1.00  0.00     0.037 A 
HETATM   17  C   UNL     1      43.222 -19.718   1.761  1.00  0.00     0.012 A 
BRANCH  15  18
HETATM   18  O   UNL     1      45.042 -22.303   3.709  1.00  0.00    -0.356 OA
HETATM   19  C   UNL     1      45.096 -22.514   5.114  1.00  0.00     0.210 C 
ENDBRANCH  15  18
ENDBRANCH   6  12
BRANCH   8  20
HETATM   20  C   UNL     1      41.100 -15.499   0.198  1.00  0.00     0.409 C 
HETATM   21  F   UNL     1      42.096 -14.643   0.511  1.00  0.00    -0.169 F 
HETATM   22  F   UNL     1      41.617 -16.389  -0.688  1.00  0.00    -0.169 F 
HETATM   23  F   UNL     1      40.153 -14.803  -0.467  1.00  0.00    -0.169 F 
ENDBRANCH   8  20
BRANCH   1  24
HETATM   24  C   UNL     1      39.437 -12.688   4.531  1.00  0.00     0.273 C 
HETATM   25  N   UNL     1      39.135 -11.719   3.596  1.00  0.00    -0.356 N 
HETATM   26  H   UNL     1      39.490 -11.890   2.658  1.00  0.00     0.162 HD
HETATM   27  O   UNL     1      39.145 -12.588   5.718  1.00  0.00    -0.266 OA
BRANCH  25  28
HETATM   28  C   UNL     1      38.521 -10.458   3.934  1.00  0.00     0.122 C 
BRANCH  28  29
HETATM   29  C   UNL     1      37.596  -9.970   2.822  1.00  0.00     0.015 C 
HETATM   30  C   UNL     1      37.422 -11.024   1.740  1.00  0.00     0.006 C 
ENDBRANCH  28  29
ENDBRANCH  25  28
ENDBRANCH   1  24
TORSDOF 6
ENDMDL
MODEL 4
REMARK VINA RESULT:      -7.7      4.065      8.828
REMARK  6 active torsions:
REMARK  status: ('A' for Active; 'I' for Inactive)
REMARK    1  A    between atoms: C_2  and  C_3 
REMARK    2  A    between atoms: C_3  and  N_4 
REMARK       I    between atoms: N_4  and  C_5 
REMARK    3  A    between atoms: C_5  and  C_6 
REMARK    4  A    between atoms: C_11  and  C_12 
REMARK    5  A    between atoms: C_15  and  O_16 
REMARK    6  A    between atoms: C_21  and  C_22 
ROOT
HETATM    1  C   UNL     1      41.802 -13.135   0.035  1.00  0.00     0.170 A 
HETATM    2  N   UNL     1      42.309 -12.750   1.235  1.00  0.00    -0.163 NA
HETATM    3  N   UNL     1      42.426 -13.903   1.913  1.00  0.00    -0.238 N 
HETATM    4  C   UNL     1      42.075 -15.015   1.200  1.00  0.00     0.145 A 
HETATM    5  N   UNL     1      42.210 -16.257   1.730  1.00  0.00    -0.365 N 
HETATM    6  C   UNL     1      42.534 -16.443   3.141  1.00  0.00     0.118 C 
HETATM    7  C   UNL     1      43.489 -15.326   3.600  1.00  0.00     0.066 C 
HETATM    8  C   UNL     1      42.917 -13.934   3.278  1.00  0.00     0.221 C 
HETATM    9  C   UNL     1      41.644 -14.549  -0.022  1.00  0.00     0.115 A 
HETATM   10 CL   UNL     1      41.068 -15.484  -1.316  1.00  0.00    -0.077 Cl
HETATM   11  H   UNL     1      41.775 -17.058   1.269  1.00  0.00     0.162 HD
ENDROOT
BRANCH   6  12
HETATM   12  C   UNL     1      43.164 -17.804   3.373  1.00  0.00    -0.035 A 
HETATM   13  C   UNL     1      43.295 -18.746   2.343  1.00  0.00     0.012 A 
HETATM   14  C   UNL     1      43.920 -19.973   2.579  1.00  0.00     0.037 A 
HETATM   15  C   UNL     1      44.436 -20.283   3.838  1.00  0.00     0.068 A 
HETATM   16  C   UNL     1      44.311 -19.353   4.869  1.00  0.00     0.037 A 
HETATM   17  C   UNL     1      43.683 -18.124   4.638  1.00  0.00     0.012 A 
BRANCH  15  18
HETATM   18  O   UNL     1      45.032 -21.510   3.927  1.00  0.00    -0.356 OA
HETATM   19  C   UNL     1      44.975 -22.162   5.190  1.00  0.00     0.210 C 
ENDBRANCH  15  18
ENDBRANCH   6  12
BRANCH   8  20
HETATM   20  C   UNL     1      41.810 -13.536   4.231  1.00  0.00     0.409 C 
HETATM   21  F   UNL     1      40.582 -13.876   3.785  1.00  0.00    -0.169 F 
HETATM   22  F   UNL     1      41.978 -14.165   5.423  1.00  0.00    -0.169 F 
HETATM   23  F   UNL     1      41.801 -12.212   4.495  1.00  0.00    -0.169 F 
ENDBRANCH   8  20
BRANCH   1  24
HETATM   24  C   UNL     1      41.492 -12.138  -1.002  1.00  0.00     0.273 C 
HETATM   25  N   UNL     1      42.580 -11.830  -1.793  1.00  0.00    -0.356 N 
HETATM   26  H   UNL     1      43.455 -12.276  -1.527  1.00  0.00     0.162 HD
HETATM   27  O   UNL     1      40.389 -11.622  -1.149  1.00  0.00    -0.266 OA
BRANCH  25  28
HETATM   28  C   UNL     1      42.552 -10.812  -2.815  1.00  0.00     0.122 C 
BRANCH  28  29
HETATM   29  C   UNL     1      42.941  -9.447  -2.257  1.00  0.00     0.015 C 
HETATM   30  C   UNL     1      44.063  -9.560  -1.238  1.00  0.00     0.006 C 
ENDBRANCH  28  29
ENDBRANCH  25  28
ENDBRANCH   1  24
TORSDOF 6
ENDMDL
MODEL 5
REMARK VINA RESULT:      -7.6      3.082      3.704
REMARK  6 active torsions:
REMARK  status: ('A' for Active; 'I' for Inactive)
REMARK    1  A    between atoms: C_2  and  C_3 
REMARK    2  A    between atoms: C_3  and  N_4 
REMARK       I    between atoms: N_4  and  C_5 
REMARK    3  A    between atoms: C_5  and  C_6 
REMARK    4  A    between atoms: C_11  and  C_12 
REMARK    5  A    between atoms: C_15  and  O_16 
REMARK    6  A    between atoms: C_21  and  C_22 
ROOT
HETATM    1  C   UNL     1      43.752 -17.703   4.066  1.00  0.00     0.170 A 
HETATM    2  N   UNL     1      43.186 -16.664   4.733  1.00  0.00    -0.163 NA
HETATM    3  N   UNL     1      42.624 -15.932   3.757  1.00  0.00    -0.238 N 
HETATM    4  C   UNL     1      42.749 -16.469   2.506  1.00  0.00     0.145 A 
HETATM    5  N   UNL     1      42.169 -15.877   1.431  1.00  0.00    -0.365 N 
HETATM    6  C   UNL     1      41.572 -14.548   1.532  1.00  0.00     0.118 C 
HETATM    7  C   UNL     1      40.923 -14.381   2.919  1.00  0.00     0.066 C 
HETATM    8  C   UNL     1      41.924 -14.694   4.045  1.00  0.00     0.221 C 
HETATM    9  C   UNL     1      43.496 -17.613   2.668  1.00  0.00     0.115 A 
HETATM   10 CL   UNL     1      43.982 -18.686   1.447  1.00  0.00    -0.077 Cl
HETATM   11  H   UNL     1      42.421 -16.176   0.488  1.00  0.00     0.162 HD
ENDROOT
BRANCH   6  12
HETATM   12  C   UNL     1      40.542 -14.337   0.439  1.00  0.00    -0.035 A 
HETATM   13  C   UNL     1      40.852 -14.516  -0.917  1.00  0.00     0.012 A 
HETATM   14  C   UNL     1      39.869 -14.357  -1.897  1.00  0.00     0.037 A 
HETATM   15  C   UNL     1      38.558 -14.029  -1.548  1.00  0.00     0.068 A 
HETATM   16  C   UNL     1      38.239 -13.849  -0.204  1.00  0.00     0.037 A 
HETATM   17  C   UNL     1      39.222 -14.004   0.781  1.00  0.00     0.012 A 
BRANCH  15  18
HETATM   18  O   UNL     1      37.695 -13.916  -2.604  1.00  0.00    -0.356 OA
HETATM   19  C   UNL     1      37.526 -15.066  -3.422  1.00  0.00     0.210 C 
ENDBRANCH  15  18
ENDBRANCH   6  12
BRANCH   8  20
HETATM   20  C   UNL     1      42.922 -13.575   4.251  1.00  0.00     0.409 C 
HETATM   21  F   UNL     1      42.423 -12.359   3.944  1.00  0.00    -0.169 F 
HETATM   22  F   UNL     1      43.295 -13.524   5.557  1.00  0.00    -0.169 F 
HETATM   23  F   UNL     1      44.054 -13.749   3.536  1.00  0.00    -0.169 F 
ENDBRANCH   8  20
BRANCH   1  24
HETATM   24  C   UNL     1      44.510 -18.735   4.792  1.00  0.00     0.273 C 
HETATM   25  N   UNL     1      44.273 -20.009   4.318  1.00  0.00    -0.356 N 
HETATM   26  H   UNL     1      43.573 -20.079   3.582  1.00  0.00     0.162 HD
HETATM   27  O   UNL     1      45.267 -18.499   5.728  1.00  0.00    -0.266 OA
BRANCH  25  28
HETATM   28  C   UNL     1      44.824 -21.196   4.926  1.00  0.00     0.122 C 
BRANCH  28  29
HETATM   29  C   UNL     1      44.689 -22.408   4.010  1.00  0.00     0.015 C 
HETATM   30  C   UNL     1      44.323 -21.999   2.593  1.00  0.00     0.006 C 
ENDBRANCH  28  29
ENDBRANCH  25  28
ENDBRANCH   1  24
TORSDOF 6
ENDMDL
MODEL 6
REMARK VINA RESULT:      -7.6      4.181      8.956
REMARK  6 active torsions:
REMARK  status: ('A' for Active; 'I' for Inactive)
REMARK    1  A    between atoms: C_2  and  C_3 
REMARK    2  A    between atoms: C_3  and  N_4 
REMARK       I    between atoms: N_4  and  C_5 
REMARK    3  A    between atoms: C_5  and  C_6 
REMARK    4  A    between atoms: C_11  and  C_12 
REMARK    5  A    between atoms: C_15  and  O_16 
REMARK    6  A    between atoms: C_21  and  C_22 
ROOT
HETATM    1  C   UNL     1      40.612 -13.699  -0.901  1.00  0.00     0.170 A 
HETATM    2  N   UNL     1      40.687 -13.241   0.375  1.00  0.00    -0.163 NA
HETATM    3  N   UNL     1      41.007 -14.334   1.084  1.00  0.00    -0.238 N 
HETATM    4  C   UNL     1      41.198 -15.459   0.332  1.00  0.00     0.145 A 
HETATM    5  N   UNL     1      41.597 -16.624   0.905  1.00  0.00    -0.365 N 
HETATM    6  C   UNL     1      41.637 -16.776   2.356  1.00  0.00     0.118 C 
HETATM    7  C   UNL     1      42.058 -15.442   3.000  1.00  0.00     0.066 C 
HETATM    8  C   UNL     1      41.162 -14.285   2.527  1.00  0.00     0.221 C 
HETATM    9  C   UNL     1      40.928 -15.086  -0.965  1.00  0.00     0.115 A 
HETATM   10 CL   UNL     1      40.986 -16.082  -2.337  1.00  0.00    -0.077 Cl
HETATM   11  H   UNL     1      41.555 -17.494   0.372  1.00  0.00     0.162 HD
ENDROOT
BRANCH   6  12
HETATM   12  C   UNL     1      42.597 -17.881   2.755  1.00  0.00    -0.035 A 
HETATM   13  C   UNL     1      43.147 -17.957   4.042  1.00  0.00     0.012 A 
HETATM   14  C   UNL     1      43.993 -19.012   4.392  1.00  0.00     0.037 A 
HETATM   15  C   UNL     1      44.298 -20.018   3.474  1.00  0.00     0.068 A 
HETATM   16  C   UNL     1      43.756 -19.953   2.191  1.00  0.00     0.037 A 
HETATM   17  C   UNL     1      42.911 -18.895   1.836  1.00  0.00     0.012 A 
BRANCH  15  18
HETATM   18  O   UNL     1      45.127 -20.997   3.949  1.00  0.00    -0.356 OA
HETATM   19  C   UNL     1      44.797 -21.561   5.212  1.00  0.00     0.210 C 
ENDBRANCH  15  18
ENDBRANCH   6  12
BRANCH   8  20
HETATM   20  C   UNL     1      39.802 -14.306   3.190  1.00  0.00     0.409 C 
HETATM   21  F   UNL     1      38.883 -15.002   2.487  1.00  0.00    -0.169 F 
HETATM   22  F   UNL     1      39.891 -14.900   4.408  1.00  0.00    -0.169 F 
HETATM   23  F   UNL     1      39.307 -13.068   3.403  1.00  0.00    -0.169 F 
ENDBRANCH   8  20
BRANCH   1  24
HETATM   24  C   UNL     1      40.244 -12.795  -2.002  1.00  0.00     0.273 C 
HETATM   25  N   UNL     1      41.258 -12.627  -2.922  1.00  0.00    -0.356 N 
HETATM   26  H   UNL     1      42.135 -13.093  -2.697  1.00  0.00     0.162 HD
HETATM   27  O   UNL     1      39.156 -12.235  -2.095  1.00  0.00    -0.266 OA
BRANCH  25  28
HETATM   28  C   UNL     1      41.173 -11.716  -4.038  1.00  0.00     0.122 C 
BRANCH  28  29
HETATM   29  C   UNL     1      42.530 -11.097  -4.360  1.00  0.00     0.015 C 
HETATM   30  C   UNL     1      42.386  -9.875  -5.253  1.00  0.00     0.006 C 
ENDBRANCH  28  29
ENDBRANCH  25  28
ENDBRANCH   1  24
TORSDOF 6
ENDMDL
MODEL 7
REMARK VINA RESULT:      -7.4      2.649      3.279
REMARK  6 active torsions:
REMARK  status: ('A' for Active; 'I' for Inactive)
REMARK    1  A    between atoms: C_2  and  C_3 
REMARK    2  A    between atoms: C_3  and  N_4 
REMARK       I    between atoms: N_4  and  C_5 
REMARK    3  A    between atoms: C_5  and  C_6 
REMARK    4  A    between atoms: C_11  and  C_12 
REMARK    5  A    between atoms: C_15  and  O_16 
REMARK    6  A    between atoms: C_21  and  C_22 
ROOT
HETATM    1  C   UNL     1      43.385 -17.793   4.537  1.00  0.00     0.170 A 
HETATM    2  N   UNL     1      43.226 -17.284   3.288  1.00  0.00    -0.163 NA
HETATM    3  N   UNL     1      42.300 -16.326   3.454  1.00  0.00    -0.238 N 
HETATM    4  C   UNL     1      41.893 -16.152   4.747  1.00  0.00     0.145 A 
HETATM    5  N   UNL     1      41.015 -15.171   5.077  1.00  0.00    -0.365 N 
HETATM    6  C   UNL     1      40.317 -14.406   4.048  1.00  0.00     0.118 C 
HETATM    7  C   UNL     1      41.250 -14.199   2.840  1.00  0.00     0.066 C 
HETATM    8  C   UNL     1      41.815 -15.538   2.335  1.00  0.00     0.221 C 
HETATM    9  C   UNL     1      42.565 -17.106   5.477  1.00  0.00     0.115 A 
HETATM   10 CL   UNL     1      42.442 -17.374   7.148  1.00  0.00    -0.077 Cl
HETATM   11  H   UNL     1      40.578 -15.168   6.000  1.00  0.00     0.162 HD
ENDROOT
BRANCH   6  12
HETATM   12  C   UNL     1      39.855 -13.067   4.593  1.00  0.00    -0.035 A 
HETATM   13  C   UNL     1      40.116 -12.675   5.914  1.00  0.00     0.012 A 
HETATM   14  C   UNL     1      39.716 -11.417   6.372  1.00  0.00     0.037 A 
HETATM   15  C   UNL     1      39.060 -10.523   5.525  1.00  0.00     0.068 A 
HETATM   16  C   UNL     1      38.796 -10.902   4.210  1.00  0.00     0.037 A 
HETATM   17  C   UNL     1      39.192 -12.163   3.748  1.00  0.00     0.012 A 
BRANCH  15  18
HETATM   18  O   UNL     1      38.736  -9.323   6.098  1.00  0.00    -0.356 OA
HETATM   19  C   UNL     1      39.089  -9.147   7.464  1.00  0.00     0.210 C 
ENDBRANCH  15  18
ENDBRANCH   6  12
BRANCH   8  20
HETATM   20  C   UNL     1      40.792 -16.333   1.553  1.00  0.00     0.409 C 
HETATM   21  F   UNL     1      41.344 -17.100   0.589  1.00  0.00    -0.169 F 
HETATM   22  F   UNL     1      40.125 -17.175   2.386  1.00  0.00    -0.169 F 
HETATM   23  F   UNL     1      39.857 -15.550   0.972  1.00  0.00    -0.169 F 
ENDBRANCH   8  20
BRANCH   1  24
HETATM   24  C   UNL     1      44.311 -18.911   4.778  1.00  0.00     0.273 C 
HETATM   25  N   UNL     1      44.209 -19.907   3.829  1.00  0.00    -0.356 N 
HETATM   26  H   UNL     1      43.480 -19.774   3.131  1.00  0.00     0.162 HD
HETATM   27  O   UNL     1      45.088 -18.966   5.726  1.00  0.00    -0.266 OA
BRANCH  25  28
HETATM   28  C   UNL     1      44.943 -21.148   3.901  1.00  0.00     0.122 C 
BRANCH  28  29
HETATM   29  C   UNL     1      44.437 -22.158   2.876  1.00  0.00     0.015 C 
HETATM   30  C   UNL     1      43.719 -21.472   1.725  1.00  0.00     0.006 C 
ENDBRANCH  28  29
ENDBRANCH  25  28
ENDBRANCH   1  24
TORSDOF 6
ENDMDL
MODEL 8
REMARK VINA RESULT:      -7.2      3.384      4.462
REMARK  6 active torsions:
REMARK  status: ('A' for Active; 'I' for Inactive)
REMARK    1  A    between atoms: C_2  and  C_3 
REMARK    2  A    between atoms: C_3  and  N_4 
REMARK       I    between atoms: N_4  and  C_5 
REMARK    3  A    between atoms: C_5  and  C_6 
REMARK    4  A    between atoms: C_11  and  C_12 
REMARK    5  A    between atoms: C_15  and  O_16 
REMARK    6  A    between atoms: C_21  and  C_22 
ROOT
HETATM    1  C   UNL     1      43.253 -15.283   5.658  1.00  0.00     0.170 A 
HETATM    2  N   UNL     1      43.867 -16.232   4.905  1.00  0.00    -0.163 NA
HETATM    3  N   UNL     1      43.138 -16.260   3.778  1.00  0.00    -0.238 N 
HETATM    4  C   UNL     1      42.124 -15.345   3.739  1.00  0.00     0.145 A 
HETATM    5  N   UNL     1      41.348 -15.209   2.633  1.00  0.00    -0.365 N 
HETATM    6  C   UNL     1      41.430 -16.163   1.531  1.00  0.00     0.118 C 
HETATM    7  C   UNL     1      42.886 -16.637   1.370  1.00  0.00     0.066 C 
HETATM    8  C   UNL     1      43.448 -17.178   2.697  1.00  0.00     0.221 C 
HETATM    9  C   UNL     1      42.157 -14.705   4.957  1.00  0.00     0.115 A 
HETATM   10 CL   UNL     1      41.113 -13.475   5.482  1.00  0.00    -0.077 Cl
HETATM   11  H   UNL     1      40.486 -14.663   2.680  1.00  0.00     0.162 HD
ENDROOT
BRANCH   6  12
HETATM   12  C   UNL     1      40.932 -15.539   0.241  1.00  0.00    -0.035 A 
HETATM   13  C   UNL     1      40.103 -14.408   0.235  1.00  0.00     0.012 A 
HETATM   14  C   UNL     1      39.698 -13.831  -0.971  1.00  0.00     0.037 A 
HETATM   15  C   UNL     1      40.117 -14.359  -2.192  1.00  0.00     0.068 A 
HETATM   16  C   UNL     1      40.941 -15.484  -2.199  1.00  0.00     0.037 A 
HETATM   17  C   UNL     1      41.347 -16.066  -0.992  1.00  0.00     0.012 A 
BRANCH  15  18
HETATM   18  O   UNL     1      39.658 -13.691  -3.294  1.00  0.00    -0.356 OA
HETATM   19  C   UNL     1      39.044 -12.429  -3.070  1.00  0.00     0.210 C 
ENDBRANCH  15  18
ENDBRANCH   6  12
BRANCH   8  20
HETATM   20  C   UNL     1      42.916 -18.556   3.024  1.00  0.00     0.409 C 
HETATM   21  F   UNL     1      42.491 -19.231   1.935  1.00  0.00    -0.169 F 
HETATM   22  F   UNL     1      43.896 -19.308   3.589  1.00  0.00    -0.169 F 
HETATM   23  F   UNL     1      41.899 -18.524   3.912  1.00  0.00    -0.169 F 
ENDBRANCH   8  20
BRANCH   1  24
HETATM   24  C   UNL     1      43.740 -14.969   7.011  1.00  0.00     0.273 C 
HETATM   25  N   UNL     1      43.924 -13.617   7.215  1.00  0.00    -0.356 N 
HETATM   26  H   UNL     1      43.761 -13.025   6.404  1.00  0.00     0.162 HD
HETATM   27  O   UNL     1      43.971 -15.814   7.869  1.00  0.00    -0.266 OA
BRANCH  25  28
HETATM   28  C   UNL     1      44.483 -13.068   8.427  1.00  0.00     0.122 C 
BRANCH  28  29
HETATM   29  C   UNL     1      45.909 -12.570   8.210  1.00  0.00     0.015 C 
HETATM   30  C   UNL     1      46.221 -11.373   9.093  1.00  0.00     0.006 C 
ENDBRANCH  28  29
ENDBRANCH  25  28
ENDBRANCH   1  24
TORSDOF 6
ENDMDL
MODEL 9
REMARK VINA RESULT:      -7.1      3.305      3.997
REMARK  6 active torsions:
REMARK  status: ('A' for Active; 'I' for Inactive)
REMARK    1  A    between atoms: C_2  and  C_3 
REMARK    2  A    between atoms: C_3  and  N_4 
REMARK       I    between atoms: N_4  and  C_5 
REMARK    3  A    between atoms: C_5  and  C_6 
REMARK    4  A    between atoms: C_11  and  C_12 
REMARK    5  A    between atoms: C_15  and  O_16 
REMARK    6  A    between atoms: C_21  and  C_22 
ROOT
HETATM    1  C   UNL     1      42.859 -17.199   3.726  1.00  0.00     0.170 A 
HETATM    2  N   UNL     1      41.766 -16.597   4.262  1.00  0.00    -0.163 NA
HETATM    3  N   UNL     1      41.276 -15.871   3.245  1.00  0.00    -0.238 N 
HETATM    4  C   UNL     1      41.959 -16.013   2.070  1.00  0.00     0.145 A 
HETATM    5  N   UNL     1      41.536 -15.396   0.937  1.00  0.00    -0.365 N 
HETATM    6  C   UNL     1      40.469 -14.401   0.973  1.00  0.00     0.118 C 
HETATM    7  C   UNL     1      39.432 -14.799   2.040  1.00  0.00     0.066 C 
HETATM    8  C   UNL     1      40.098 -15.037   3.406  1.00  0.00     0.221 C 
HETATM    9  C   UNL     1      43.009 -16.856   2.353  1.00  0.00     0.115 A 
HETATM   10 CL   UNL     1      44.207 -17.379   1.271  1.00  0.00    -0.077 Cl
HETATM   11  H   UNL     1      42.149 -15.355   0.120  1.00  0.00     0.162 HD
ENDROOT
BRANCH   6  12
HETATM   12  C   UNL     1      39.806 -14.272  -0.386  1.00  0.00    -0.035 A 
HETATM   13  C   UNL     1      40.423 -14.732  -1.558  1.00  0.00     0.012 A 
HETATM   14  C   UNL     1      39.767 -14.640  -2.788  1.00  0.00     0.037 A 
HETATM   15  C   UNL     1      38.483 -14.100  -2.875  1.00  0.00     0.068 A 
HETATM   16  C   UNL     1      37.860 -13.640  -1.716  1.00  0.00     0.037 A 
HETATM   17  C   UNL     1      38.516 -13.728  -0.482  1.00  0.00     0.012 A 
BRANCH  15  18
HETATM   18  O   UNL     1      37.953 -14.081  -4.136  1.00  0.00    -0.356 OA
HETATM   19  C   UNL     1      36.604 -14.509  -4.273  1.00  0.00     0.210 C 
ENDBRANCH  15  18
ENDBRANCH   6  12
BRANCH   8  20
HETATM   20  C   UNL     1      40.476 -13.743   4.093  1.00  0.00     0.409 C 
HETATM   21  F   UNL     1      41.713 -13.313   3.766  1.00  0.00    -0.169 F 
HETATM   22  F   UNL     1      39.614 -12.758   3.728  1.00  0.00    -0.169 F 
HETATM   23  F   UNL     1      40.411 -13.828   5.439  1.00  0.00    -0.169 F 
ENDBRANCH   8  20
BRANCH   1  24
HETATM   24  C   UNL     1      43.710 -18.075   4.548  1.00  0.00     0.273 C 
HETATM   25  N   UNL     1      44.144 -17.467   5.708  1.00  0.00    -0.356 N 
HETATM   26  H   UNL     1      43.875 -16.491   5.818  1.00  0.00     0.162 HD
HETATM   27  O   UNL     1      44.016 -19.221   4.237  1.00  0.00    -0.266 OA
BRANCH  25  28
HETATM   28  C   UNL     1      45.065 -18.086   6.630  1.00  0.00     0.122 C 
BRANCH  28  29
HETATM   29  C   UNL     1      44.370 -18.501   7.923  1.00  0.00     0.015 C 
HETATM   30  C   UNL     1      43.407 -17.429   8.407  1.00  0.00     0.006 C 
ENDBRANCH  28  29
ENDBRANCH  25  28
ENDBRANCH   1  24
TORSDOF 6
ENDMDL
MODEL 10
REMARK VINA RESULT:      -7.0      4.123      4.904
REMARK  6 active torsions:
REMARK  status: ('A' for Active; 'I' for Inactive)
REMARK    1  A    between atoms: C_2  and  C_3 
REMARK    2  A    between atoms: C_3  and  N_4 
REMARK       I    between atoms: N_4  and  C_5 
REMARK    3  A    between atoms: C_5  and  C_6 
REMARK    4  A    between atoms: C_11  and  C_12 
REMARK    5  A    between atoms: C_15  and  O_16 
REMARK    6  A    between atoms: C_21  and  C_22 
ROOT
HETATM    1  C   UNL     1      43.218 -18.528   3.309  1.00  0.00     0.170 A 
HETATM    2  N   UNL     1      43.011 -18.613   4.649  1.00  0.00    -0.163 NA
HETATM    3  N   UNL     1      42.717 -17.352   5.003  1.00  0.00    -0.238 N 
HETATM    4  C   UNL     1      42.667 -16.470   3.960  1.00  0.00     0.145 A 
HETATM    5  N   UNL     1      42.311 -15.175   4.157  1.00  0.00    -0.365 N 
HETATM    6  C   UNL     1      42.169 -14.627   5.502  1.00  0.00     0.118 C 
HETATM    7  C   UNL     1      41.603 -15.710   6.440  1.00  0.00     0.066 C 
HETATM    8  C   UNL     1      42.447 -16.995   6.384  1.00  0.00     0.221 C 
HETATM    9  C   UNL     1      43.009 -17.199   2.843  1.00  0.00     0.115 A 
HETATM   10 CL   UNL     1      43.131 -16.618   1.254  1.00  0.00    -0.077 Cl
HETATM   11  H   UNL     1      42.457 -14.488   3.414  1.00  0.00     0.162 HD
ENDROOT
BRANCH   6  12
HETATM   12  C   UNL     1      41.264 -13.410   5.495  1.00  0.00    -0.035 A 
HETATM   13  C   UNL     1      39.942 -13.466   5.960  1.00  0.00     0.012 A 
HETATM   14  C   UNL     1      39.148 -12.316   5.982  1.00  0.00     0.037 A 
HETATM   15  C   UNL     1      39.656 -11.089   5.554  1.00  0.00     0.068 A 
HETATM   16  C   UNL     1      40.968 -11.022   5.090  1.00  0.00     0.037 A 
HETATM   17  C   UNL     1      41.766 -12.172   5.063  1.00  0.00     0.012 A 
BRANCH  15  18
HETATM   18  O   UNL     1      38.777 -10.044   5.639  1.00  0.00    -0.356 OA
HETATM   19  C   UNL     1      39.204  -8.904   6.375  1.00  0.00     0.210 C 
ENDBRANCH  15  18
ENDBRANCH   6  12
BRANCH   8  20
HETATM   20  C   UNL     1      43.750 -16.858   7.142  1.00  0.00     0.409 C 
HETATM   21  F   UNL     1      44.786 -16.503   6.352  1.00  0.00    -0.169 F 
HETATM   22  F   UNL     1      43.634 -15.891   8.089  1.00  0.00    -0.169 F 
HETATM   23  F   UNL     1      44.097 -17.990   7.792  1.00  0.00    -0.169 F 
ENDBRANCH   8  20
BRANCH   1  24
HETATM   24  C   UNL     1      43.604 -19.718   2.533  1.00  0.00     0.273 C 
HETATM   25  N   UNL     1      44.120 -20.728   3.320  1.00  0.00    -0.356 N 
HETATM   26  H   UNL     1      44.222 -20.504   4.307  1.00  0.00     0.162 HD
HETATM   27  O   UNL     1      43.493 -19.808   1.315  1.00  0.00    -0.266 OA
BRANCH  25  28
HETATM   28  C   UNL     1      44.656 -21.955   2.782  1.00  0.00     0.122 C 
BRANCH  28  29
HETATM   29  C   UNL     1      44.853 -23.004   3.871  1.00  0.00     0.015 C 
HETATM   30  C   UNL     1      45.096 -22.362   5.228  1.00  0.00     0.006 C 
ENDBRANCH  28  29
ENDBRANCH  25  28
ENDBRANCH   1  24
TORSDOF 6
ENDMDL
