MODEL 1
REMARK VINA RESULT:      -8.4      0.000      0.000
REMARK  5 active torsions:
REMARK  status: ('A' for Active; 'I' for Inactive)
REMARK    1  A    between atoms: O_2  and  C_3 
REMARK    2  A    between atoms: C_6  and  N_7 
REMARK       I    between atoms: N_7  and  C_8 
REMARK    3  A    between atoms: C_8  and  C_9 
REMARK    4  A    between atoms: C_9  and  N_10 
REMARK    5  A    between atoms: N_10  and  C_11 
ROOT
HETATM    1  C   UNL     1      43.193 -16.688   1.480  1.00  0.00     0.195 C 
ENDROOT
BRANCH   1   2
HETATM    2  C   UNL     1      41.911 -16.553   0.648  1.00  0.00     0.235 C 
HETATM    3  N   UNL     1      41.956 -15.507  -0.260  1.00  0.00    -0.326 N 
HETATM    4  H   UNL     1      42.794 -14.934  -0.209  1.00  0.00     0.169 HD
HETATM    5  O   UNL     1      40.966 -17.317   0.836  1.00  0.00    -0.272 OA
BRANCH   3   6
HETATM    6  C   UNL     1      40.979 -15.156  -1.212  1.00  0.00     0.034 A 
HETATM    7  C   UNL     1      40.944 -15.665  -2.512  1.00  0.00     0.032 A 
HETATM    8  C   UNL     1      39.949 -15.268  -3.416  1.00  0.00     0.039 A 
HETATM    9  C   UNL     1      38.974 -14.352  -3.030  1.00  0.00     0.068 A 
HETATM   10  C   UNL     1      39.009 -13.834  -1.734  1.00  0.00     0.039 A 
HETATM   11  C   UNL     1      40.001 -14.234  -0.830  1.00  0.00     0.032 A 
BRANCH   9  12
HETATM   12  O   UNL     1      37.953 -13.886  -3.813  1.00  0.00    -0.356 OA
HETATM   13  C   UNL     1      36.858 -14.770  -4.025  1.00  0.00     0.210 C 
ENDBRANCH   9  12
ENDBRANCH   3   6
ENDBRANCH   1   2
BRANCH   1  14
HETATM   14  N   UNL     1      43.736 -18.074   1.437  1.00  0.00    -0.283 NA
HETATM   15  H   UNL     1      43.065 -18.679   0.960  1.00  0.00     0.128 HD
BRANCH  14  16
HETATM   16  C   UNL     1      43.881 -18.574   2.775  1.00  0.00     0.019 A 
HETATM   17  C   UNL     1      44.144 -19.944   3.058  1.00  0.00    -0.005 A 
HETATM   18  C   UNL     1      44.448 -20.321   4.391  1.00  0.00    -0.024 A 
HETATM   19  C   UNL     1      44.110 -20.967   2.082  1.00  0.00     0.014 A 
HETATM   20  C   UNL     1      44.758 -21.658   4.692  1.00  0.00     0.012 A 
HETATM   21  C   UNL     1      44.441 -19.357   5.410  1.00  0.00     0.012 A 
HETATM   22  C   UNL     1      44.752 -22.636   3.700  1.00  0.00     0.001 A 
HETATM   23  C   UNL     1      44.416 -22.294   2.397  1.00  0.00     0.001 A 
HETATM   24  C   UNL     1      44.139 -18.027   5.132  1.00  0.00     0.003 A 
HETATM   25  C   UNL     1      43.868 -17.637   3.825  1.00  0.00     0.024 A 
ENDBRANCH  14  16
ENDBRANCH   1  14
TORSDOF 5
ENDMDL
MODEL 2
REMARK VINA RESULT:      -8.0      1.551      1.834
REMARK  5 active torsions:
REMARK  status: ('A' for Active; 'I' for Inactive)
REMARK    1  A    between atoms: O_2  and  C_3 
REMARK    2  A    between atoms: C_6  and  N_7 
REMARK       I    between atoms: N_7  and  C_8 
REMARK    3  A    between atoms: C_8  and  C_9 
REMARK    4  A    between atoms: C_9  and  N_10 
REMARK    5  A    between atoms: N_10  and  C_11 
ROOT
HETATM    1  C   UNL     1      41.513 -17.504   1.622  1.00  0.00     0.195 C 
ENDROOT
BRANCH   1   2
HETATM    2  C   UNL     1      41.009 -16.290   0.830  1.00  0.00     0.235 C 
HETATM    3  N   UNL     1      41.614 -16.157  -0.409  1.00  0.00    -0.326 N 
HETATM    4  H   UNL     1      42.349 -16.833  -0.600  1.00  0.00     0.169 HD
HETATM    5  O   UNL     1      40.167 -15.538   1.317  1.00  0.00    -0.272 OA
BRANCH   3   6
HETATM    6  C   UNL     1      41.333 -15.197  -1.402  1.00  0.00     0.034 A 
HETATM    7  C   UNL     1      40.669 -15.487  -2.596  1.00  0.00     0.032 A 
HETATM    8  C   UNL     1      40.428 -14.487  -3.548  1.00  0.00     0.039 A 
HETATM    9  C   UNL     1      40.850 -13.181  -3.318  1.00  0.00     0.068 A 
HETATM   10  C   UNL     1      41.522 -12.887  -2.130  1.00  0.00     0.039 A 
HETATM   11  C   UNL     1      41.760 -13.886  -1.176  1.00  0.00     0.032 A 
BRANCH   9  12
HETATM   12  O   UNL     1      40.676 -12.119  -4.163  1.00  0.00    -0.356 OA
HETATM   13  C   UNL     1      41.746 -11.183  -4.240  1.00  0.00     0.210 C 
ENDBRANCH   9  12
ENDBRANCH   3   6
ENDBRANCH   1   2
BRANCH   1  14
HETATM   14  N   UNL     1      43.001 -17.580   1.630  1.00  0.00    -0.283 NA
HETATM   15  H   UNL     1      43.308 -18.155   0.843  1.00  0.00     0.128 HD
BRANCH  14  16
HETATM   16  C   UNL     1      43.441 -18.233   2.830  1.00  0.00     0.019 A 
HETATM   17  C   UNL     1      43.789 -19.613   2.869  1.00  0.00    -0.005 A 
HETATM   18  C   UNL     1      44.380 -20.136   4.047  1.00  0.00    -0.024 A 
HETATM   19  C   UNL     1      43.570 -20.508   1.796  1.00  0.00     0.014 A 
HETATM   20  C   UNL     1      44.778 -21.482   4.098  1.00  0.00     0.012 A 
HETATM   21  C   UNL     1      44.570 -19.307   5.163  1.00  0.00     0.012 A 
HETATM   22  C   UNL     1      44.582 -22.330   3.009  1.00  0.00     0.001 A 
HETATM   23  C   UNL     1      43.967 -21.846   1.862  1.00  0.00     0.001 A 
HETATM   24  C   UNL     1      44.186 -17.970   5.132  1.00  0.00     0.003 A 
HETATM   25  C   UNL     1      43.632 -17.435   3.973  1.00  0.00     0.024 A 
ENDBRANCH  14  16
ENDBRANCH   1  14
TORSDOF 5
ENDMDL
MODEL 3
REMARK VINA RESULT:      -8.0      2.580      3.200
REMARK  5 active torsions:
REMARK  status: ('A' for Active; 'I' for Inactive)
REMARK    1  A    between atoms: O_2  and  C_3 
REMARK    2  A    between atoms: C_6  and  N_7 
REMARK       I    between atoms: N_7  and  C_8 
REMARK    3  A    between atoms: C_8  and  C_9 
REMARK    4  A    between atoms: C_9  and  N_10 
REMARK    5  A    between atoms: N_10  and  C_11 
ROOT
HETATM    1  C   UNL     1      41.293 -17.506   1.339  1.00  0.00     0.195 C 
ENDROOT
BRANCH   1   2
HETATM    2  C   UNL     1      40.835 -16.078   1.017  1.00  0.00     0.235 C 
HETATM    3  N   UNL     1      39.678 -15.711   1.685  1.00  0.00    -0.326 N 
HETATM    4  H   UNL     1      39.254 -16.450   2.241  1.00  0.00     0.169 HD
HETATM    5  O   UNL     1      41.467 -15.389   0.218  1.00  0.00    -0.272 OA
BRANCH   3   6
HETATM    6  C   UNL     1      39.036 -14.458   1.664  1.00  0.00     0.034 A 
HETATM    7  C   UNL     1      39.388 -13.391   2.494  1.00  0.00     0.032 A 
HETATM    8  C   UNL     1      38.702 -12.170   2.429  1.00  0.00     0.039 A 
HETATM    9  C   UNL     1      37.652 -12.000   1.532  1.00  0.00     0.068 A 
HETATM   10  C   UNL     1      37.291 -13.066   0.705  1.00  0.00     0.039 A 
HETATM   11  C   UNL     1      37.978 -14.285   0.767  1.00  0.00     0.032 A 
BRANCH   9  12
HETATM   12  O   UNL     1      36.907 -10.864   1.371  1.00  0.00    -0.356 OA
HETATM   13  C   UNL     1      35.646 -11.014   0.728  1.00  0.00     0.210 C 
ENDBRANCH   9  12
ENDBRANCH   3   6
ENDBRANCH   1   2
BRANCH   1  14
HETATM   14  N   UNL     1      42.778 -17.629   1.315  1.00  0.00    -0.283 NA
HETATM   15  H   UNL     1      43.044 -18.292   0.585  1.00  0.00     0.128 HD
BRANCH  14  16
HETATM   16  C   UNL     1      43.235 -18.167   2.564  1.00  0.00     0.019 A 
HETATM   17  C   UNL     1      43.655 -19.519   2.709  1.00  0.00    -0.005 A 
HETATM   18  C   UNL     1      44.257 -19.921   3.929  1.00  0.00    -0.024 A 
HETATM   19  C   UNL     1      43.500 -20.501   1.703  1.00  0.00     0.014 A 
HETATM   20  C   UNL     1      44.726 -21.237   4.084  1.00  0.00     0.012 A 
HETATM   21  C   UNL     1      44.386 -19.003   4.982  1.00  0.00     0.012 A 
HETATM   22  C   UNL     1      44.590 -22.171   3.059  1.00  0.00     0.001 A 
HETATM   23  C   UNL     1      43.967 -21.807   1.873  1.00  0.00     0.001 A 
HETATM   24  C   UNL     1      43.931 -17.695   4.848  1.00  0.00     0.003 A 
HETATM   25  C   UNL     1      43.366 -17.278   3.647  1.00  0.00     0.024 A 
ENDBRANCH  14  16
ENDBRANCH   1  14
TORSDOF 5
ENDMDL
MODEL 4
REMARK VINA RESULT:      -7.9      1.843      2.469
REMARK  5 active torsions:
REMARK  status: ('A' for Active; 'I' for Inactive)
REMARK    1  A    between atoms: O_2  and  C_3 
REMARK    2  A    between atoms: C_6  and  N_7 
REMARK       I    between atoms: N_7  and  C_8 
REMARK    3  A    between atoms: C_8  and  C_9 
REMARK    4  A    between atoms: C_9  and  N_10 
REMARK    5  A    between atoms: N_10  and  C_11 
ROOT
HETATM    1  C   UNL     1      43.091 -14.935   3.717  1.00  0.00     0.195 C 
ENDROOT
BRANCH   1   2
HETATM    2  C   UNL     1      42.537 -14.310   2.430  1.00  0.00     0.235 C 
HETATM    3  N   UNL     1      41.716 -15.168   1.716  1.00  0.00    -0.326 N 
HETATM    4  H   UNL     1      41.643 -16.107   2.099  1.00  0.00     0.169 HD
HETATM    5  O   UNL     1      42.849 -13.164   2.112  1.00  0.00    -0.272 OA
BRANCH   3   6
HETATM    6  C   UNL     1      41.000 -14.886   0.536  1.00  0.00     0.034 A 
HETATM    7  C   UNL     1      39.838 -14.111   0.498  1.00  0.00     0.032 A 
HETATM    8  C   UNL     1      39.167 -13.874  -0.709  1.00  0.00     0.039 A 
HETATM    9  C   UNL     1      39.650 -14.412  -1.899  1.00  0.00     0.068 A 
HETATM   10  C   UNL     1      40.807 -15.193  -1.866  1.00  0.00     0.039 A 
HETATM   11  C   UNL     1      41.480 -15.427  -0.660  1.00  0.00     0.032 A 
BRANCH   9  12
HETATM   12  O   UNL     1      39.092 -14.255  -3.137  1.00  0.00    -0.356 OA
HETATM   13  C   UNL     1      37.836 -14.888  -3.356  1.00  0.00     0.210 C 
ENDBRANCH   9  12
ENDBRANCH   3   6
ENDBRANCH   1   2
BRANCH   1  14
HETATM   14  N   UNL     1      42.258 -16.081   4.178  1.00  0.00    -0.283 NA
HETATM   15  H   UNL     1      41.670 -15.773   4.954  1.00  0.00     0.128 HD
BRANCH  14  16
HETATM   16  C   UNL     1      43.110 -17.122   4.677  1.00  0.00     0.019 A 
HETATM   17  C   UNL     1      43.417 -18.290   3.923  1.00  0.00    -0.005 A 
HETATM   18  C   UNL     1      44.404 -19.182   4.415  1.00  0.00    -0.024 A 
HETATM   19  C   UNL     1      42.786 -18.624   2.702  1.00  0.00     0.014 A 
HETATM   20  C   UNL     1      44.763 -20.317   3.669  1.00  0.00     0.012 A 
HETATM   21  C   UNL     1      45.023 -18.929   5.648  1.00  0.00     0.012 A 
HETATM   22  C   UNL     1      44.147 -20.599   2.451  1.00  0.00     0.001 A 
HETATM   23  C   UNL     1      43.150 -19.759   1.973  1.00  0.00     0.001 A 
HETATM   24  C   UNL     1      44.684 -17.809   6.401  1.00  0.00     0.003 A 
HETATM   25  C   UNL     1      43.740 -16.910   5.917  1.00  0.00     0.024 A 
ENDBRANCH  14  16
ENDBRANCH   1  14
TORSDOF 5
ENDMDL
MODEL 5
REMARK VINA RESULT:      -7.6      3.909      4.972
REMARK  5 active torsions:
REMARK  status: ('A' for Active; 'I' for Inactive)
REMARK    1  A    between atoms: O_2  and  C_3 
REMARK    2  A    between atoms: C_6  and  N_7 
REMARK       I    between atoms: N_7  and  C_8 
REMARK    3  A    between atoms: C_8  and  C_9 
REMARK    4  A    between atoms: C_9  and  N_10 
REMARK    5  A    between atoms: N_10  and  C_11 
ROOT
HETATM    1  C   UNL     1      41.178 -17.402   2.052  1.00  0.00     0.195 C 
ENDROOT
BRANCH   1   2
HETATM    2  C   UNL     1      40.549 -16.013   2.227  1.00  0.00     0.235 C 
HETATM    3  N   UNL     1      40.452 -15.620   3.552  1.00  0.00    -0.326 N 
HETATM    4  H   UNL     1      40.744 -16.321   4.228  1.00  0.00     0.169 HD
HETATM    5  O   UNL     1      40.171 -15.375   1.246  1.00  0.00    -0.272 OA
BRANCH   3   6
HETATM    6  C   UNL     1      39.988 -14.386   4.049  1.00  0.00     0.034 A 
HETATM    7  C   UNL     1      39.823 -14.109   5.408  1.00  0.00     0.032 A 
HETATM    8  C   UNL     1      39.349 -12.862   5.838  1.00  0.00     0.039 A 
HETATM    9  C   UNL     1      39.031 -11.874   4.912  1.00  0.00     0.068 A 
HETATM   10  C   UNL     1      39.186 -12.147   3.551  1.00  0.00     0.039 A 
HETATM   11  C   UNL     1      39.664 -13.392   3.122  1.00  0.00     0.032 A 
BRANCH   9  12
HETATM   12  O   UNL     1      38.562 -10.621   5.200  1.00  0.00    -0.356 OA
HETATM   13  C   UNL     1      39.343  -9.839   6.097  1.00  0.00     0.210 C 
ENDBRANCH   9  12
ENDBRANCH   3   6
ENDBRANCH   1   2
BRANCH   1  14
HETATM   14  N   UNL     1      42.664 -17.330   1.978  1.00  0.00    -0.283 NA
HETATM   15  H   UNL     1      42.975 -17.778   1.115  1.00  0.00     0.128 HD
BRANCH  14  16
HETATM   16  C   UNL     1      43.235 -18.067   3.069  1.00  0.00     0.019 A 
HETATM   17  C   UNL     1      43.621 -19.432   2.953  1.00  0.00    -0.005 A 
HETATM   18  C   UNL     1      44.337 -20.033   4.020  1.00  0.00    -0.024 A 
HETATM   19  C   UNL     1      43.323 -20.240   1.831  1.00  0.00     0.014 A 
HETATM   20  C   UNL     1      44.773 -21.364   3.914  1.00  0.00     0.012 A 
HETATM   21  C   UNL     1      44.612 -19.296   5.182  1.00  0.00     0.012 A 
HETATM   22  C   UNL     1      44.495 -22.122   2.779  1.00  0.00     0.001 A 
HETATM   23  C   UNL     1      43.759 -21.564   1.741  1.00  0.00     0.001 A 
HETATM   24  C   UNL     1      44.191 -17.975   5.305  1.00  0.00     0.003 A 
HETATM   25  C   UNL     1      43.514 -17.363   4.255  1.00  0.00     0.024 A 
ENDBRANCH  14  16
ENDBRANCH   1  14
TORSDOF 5
ENDMDL
MODEL 6
REMARK VINA RESULT:      -7.4      2.130      3.405
REMARK  5 active torsions:
REMARK  status: ('A' for Active; 'I' for Inactive)
REMARK    1  A    between atoms: O_2  and  C_3 
REMARK    2  A    between atoms: C_6  and  N_7 
REMARK       I    between atoms: N_7  and  C_8 
REMARK    3  A    between atoms: C_8  and  C_9 
REMARK    4  A    between atoms: C_9  and  N_10 
REMARK    5  A    between atoms: N_10  and  C_11 
ROOT
HETATM    1  C   UNL     1      40.903 -16.923   1.669  1.00  0.00     0.195 C 
ENDROOT
BRANCH   1   2
HETATM    2  C   UNL     1      40.661 -15.671   0.816  1.00  0.00     0.235 C 
HETATM    3  N   UNL     1      41.547 -15.550  -0.242  1.00  0.00    -0.326 N 
HETATM    4  H   UNL     1      42.273 -16.262  -0.273  1.00  0.00     0.169 HD
HETATM    5  O   UNL     1      39.765 -14.883   1.112  1.00  0.00    -0.272 OA
BRANCH   3   6
HETATM    6  C   UNL     1      41.556 -14.561  -1.245  1.00  0.00     0.034 A 
HETATM    7  C   UNL     1      42.096 -13.284  -1.071  1.00  0.00     0.032 A 
HETATM    8  C   UNL     1      42.067 -12.341  -2.107  1.00  0.00     0.039 A 
HETATM    9  C   UNL     1      41.493 -12.663  -3.334  1.00  0.00     0.068 A 
HETATM   10  C   UNL     1      40.946 -13.935  -3.511  1.00  0.00     0.039 A 
HETATM   11  C   UNL     1      40.978 -14.879  -2.476  1.00  0.00     0.032 A 
BRANCH   9  12
HETATM   12  O   UNL     1      41.403 -11.837  -4.421  1.00  0.00    -0.356 OA
HETATM   13  C   UNL     1      42.404 -10.834  -4.545  1.00  0.00     0.210 C 
ENDBRANCH   9  12
ENDBRANCH   3   6
ENDBRANCH   1   2
BRANCH   1  14
HETATM   14  N   UNL     1      41.784 -16.634   2.836  1.00  0.00    -0.283 NA
HETATM   15  H   UNL     1      42.308 -15.778   2.652  1.00  0.00     0.128 HD
BRANCH  14  16
HETATM   16  C   UNL     1      42.740 -17.694   2.989  1.00  0.00     0.019 A 
HETATM   17  C   UNL     1      43.532 -17.849   4.161  1.00  0.00    -0.005 A 
HETATM   18  C   UNL     1      44.321 -19.019   4.304  1.00  0.00    -0.024 A 
HETATM   19  C   UNL     1      43.589 -16.893   5.202  1.00  0.00     0.014 A 
HETATM   20  C   UNL     1      45.076 -19.223   5.471  1.00  0.00     0.012 A 
HETATM   21  C   UNL     1      44.346 -19.976   3.278  1.00  0.00     0.012 A 
HETATM   22  C   UNL     1      45.082 -18.277   6.495  1.00  0.00     0.001 A 
HETATM   23  C   UNL     1      44.348 -17.106   6.356  1.00  0.00     0.001 A 
HETATM   24  C   UNL     1      43.603 -19.794   2.115  1.00  0.00     0.003 A 
HETATM   25  C   UNL     1      42.802 -18.667   1.974  1.00  0.00     0.024 A 
ENDBRANCH  14  16
ENDBRANCH   1  14
TORSDOF 5
ENDMDL
MODEL 7
REMARK VINA RESULT:      -7.4      3.734      5.462
REMARK  5 active torsions:
REMARK  status: ('A' for Active; 'I' for Inactive)
REMARK    1  A    between atoms: O_2  and  C_3 
REMARK    2  A    between atoms: C_6  and  N_7 
REMARK       I    between atoms: N_7  and  C_8 
REMARK    3  A    between atoms: C_8  and  C_9 
REMARK    4  A    between atoms: C_9  and  N_10 
REMARK    5  A    between atoms: N_10  and  C_11 
ROOT
HETATM    1  C   UNL     1      42.095 -17.738   1.857  1.00  0.00     0.195 C 
ENDROOT
BRANCH   1   2
HETATM    2  C   UNL     1      41.027 -16.775   2.393  1.00  0.00     0.235 C 
HETATM    3  N   UNL     1      41.529 -15.847   3.292  1.00  0.00    -0.326 N 
HETATM    4  H   UNL     1      42.511 -15.969   3.526  1.00  0.00     0.169 HD
HETATM    5  O   UNL     1      39.856 -16.885   2.034  1.00  0.00    -0.272 OA
BRANCH   3   6
HETATM    6  C   UNL     1      40.834 -14.790   3.911  1.00  0.00     0.034 A 
HETATM    7  C   UNL     1      40.313 -13.693   3.220  1.00  0.00     0.032 A 
HETATM    8  C   UNL     1      39.638 -12.668   3.897  1.00  0.00     0.039 A 
HETATM    9  C   UNL     1      39.476 -12.726   5.278  1.00  0.00     0.068 A 
HETATM   10  C   UNL     1      40.002 -13.816   5.975  1.00  0.00     0.039 A 
HETATM   11  C   UNL     1      40.673 -14.842   5.298  1.00  0.00     0.032 A 
BRANCH   9  12
HETATM   12  O   UNL     1      38.840 -11.796   6.053  1.00  0.00    -0.356 OA
HETATM   13  C   UNL     1      39.619 -11.169   7.066  1.00  0.00     0.210 C 
ENDBRANCH   9  12
ENDBRANCH   3   6
ENDBRANCH   1   2
BRANCH   1  14
HETATM   14  N   UNL     1      43.433 -17.465   2.452  1.00  0.00    -0.283 NA
HETATM   15  H   UNL     1      44.092 -17.249   1.702  1.00  0.00     0.128 HD
BRANCH  14  16
HETATM   16  C   UNL     1      43.914 -18.644   3.113  1.00  0.00     0.019 A 
HETATM   17  C   UNL     1      43.893 -18.793   4.529  1.00  0.00    -0.005 A 
HETATM   18  C   UNL     1      44.220 -20.054   5.089  1.00  0.00    -0.024 A 
HETATM   19  C   UNL     1      43.572 -17.745   5.423  1.00  0.00     0.014 A 
HETATM   20  C   UNL     1      44.161 -20.244   6.480  1.00  0.00     0.012 A 
HETATM   21  C   UNL     1      44.600 -21.115   4.253  1.00  0.00     0.012 A 
HETATM   22  C   UNL     1      43.806 -19.200   7.332  1.00  0.00     0.001 A 
HETATM   23  C   UNL     1      43.522 -17.946   6.805  1.00  0.00     0.001 A 
HETATM   24  C   UNL     1      44.661 -20.948   2.873  1.00  0.00     0.003 A 
HETATM   25  C   UNL     1      44.315 -19.726   2.307  1.00  0.00     0.024 A 
ENDBRANCH  14  16
ENDBRANCH   1  14
TORSDOF 5
ENDMDL
MODEL 8
REMARK VINA RESULT:      -7.3      4.284      7.578
REMARK  5 active torsions:
REMARK  status: ('A' for Active; 'I' for Inactive)
REMARK    1  A    between atoms: O_2  and  C_3 
REMARK    2  A    between atoms: C_6  and  N_7 
REMARK       I    between atoms: N_7  and  C_8 
REMARK    3  A    between atoms: C_8  and  C_9 
REMARK    4  A    between atoms: C_9  and  N_10 
REMARK    5  A    between atoms: N_10  and  C_11 
ROOT
HETATM    1  C   UNL     1      40.188 -15.044   3.302  1.00  0.00     0.195 C 
ENDROOT
BRANCH   1   2
HETATM    2  C   UNL     1      40.823 -14.842   4.684  1.00  0.00     0.235 C 
HETATM    3  N   UNL     1      42.156 -14.468   4.625  1.00  0.00    -0.326 N 
HETATM    4  H   UNL     1      42.550 -14.443   3.688  1.00  0.00     0.169 HD
HETATM    5  O   UNL     1      40.163 -15.032   5.704  1.00  0.00    -0.272 OA
BRANCH   3   6
HETATM    6  C   UNL     1      43.004 -14.142   5.701  1.00  0.00     0.034 A 
HETATM    7  C   UNL     1      44.017 -14.981   6.173  1.00  0.00     0.032 A 
HETATM    8  C   UNL     1      44.823 -14.602   7.255  1.00  0.00     0.039 A 
HETATM    9  C   UNL     1      44.625 -13.375   7.882  1.00  0.00     0.068 A 
HETATM   10  C   UNL     1      43.610 -12.536   7.419  1.00  0.00     0.039 A 
HETATM   11  C   UNL     1      42.806 -12.913   6.336  1.00  0.00     0.032 A 
BRANCH   9  12
HETATM   12  O   UNL     1      45.341 -12.889   8.941  1.00  0.00    -0.356 OA
HETATM   13  C   UNL     1      45.099 -11.535   9.307  1.00  0.00     0.210 C 
ENDBRANCH   9  12
ENDBRANCH   3   6
ENDBRANCH   1   2
BRANCH   1  14
HETATM   14  N   UNL     1      40.082 -16.488   2.949  1.00  0.00    -0.283 NA
HETATM   15  H   UNL     1      39.805 -17.013   3.780  1.00  0.00     0.128 HD
BRANCH  14  16
HETATM   16  C   UNL     1      41.369 -16.978   2.546  1.00  0.00     0.019 A 
HETATM   17  C   UNL     1      42.194 -17.761   3.403  1.00  0.00    -0.005 A 
HETATM   18  C   UNL     1      43.367 -18.353   2.868  1.00  0.00    -0.024 A 
HETATM   19  C   UNL     1      41.918 -17.981   4.772  1.00  0.00     0.014 A 
HETATM   20  C   UNL     1      44.175 -19.170   3.677  1.00  0.00     0.012 A 
HETATM   21  C   UNL     1      43.720 -18.124   1.530  1.00  0.00     0.012 A 
HETATM   22  C   UNL     1      43.855 -19.396   5.014  1.00  0.00     0.001 A 
HETATM   23  C   UNL     1      42.733 -18.792   5.566  1.00  0.00     0.001 A 
HETATM   24  C   UNL     1      42.931 -17.320   0.712  1.00  0.00     0.003 A 
HETATM   25  C   UNL     1      41.762 -16.758   1.213  1.00  0.00     0.024 A 
ENDBRANCH  14  16
ENDBRANCH   1  14
TORSDOF 5
ENDMDL
MODEL 9
REMARK VINA RESULT:      -7.2      5.612      7.558
REMARK  5 active torsions:
REMARK  status: ('A' for Active; 'I' for Inactive)
REMARK    1  A    between atoms: O_2  and  C_3 
REMARK    2  A    between atoms: C_6  and  N_7 
REMARK       I    between atoms: N_7  and  C_8 
REMARK    3  A    between atoms: C_8  and  C_9 
REMARK    4  A    between atoms: C_9  and  N_10 
REMARK    5  A    between atoms: N_10  and  C_11 
ROOT
HETATM    1  C   UNL     1      40.633 -15.269   3.659  1.00  0.00     0.195 C 
ENDROOT
BRANCH   1   2
HETATM    2  C   UNL     1      40.790 -14.640   5.049  1.00  0.00     0.235 C 
HETATM    3  N   UNL     1      40.508 -13.284   5.071  1.00  0.00    -0.326 N 
HETATM    4  H   UNL     1      40.302 -12.877   4.162  1.00  0.00     0.169 HD
HETATM    5  O   UNL     1      41.156 -15.326   6.003  1.00  0.00    -0.272 OA
BRANCH   3   6
HETATM    6  C   UNL     1      40.492 -12.429   6.191  1.00  0.00     0.034 A 
HETATM    7  C   UNL     1      39.389 -12.275   7.034  1.00  0.00     0.032 A 
HETATM    8  C   UNL     1      39.434 -11.400   8.128  1.00  0.00     0.039 A 
HETATM    9  C   UNL     1      40.586 -10.665   8.393  1.00  0.00     0.068 A 
HETATM   10  C   UNL     1      41.689 -10.809   7.549  1.00  0.00     0.039 A 
HETATM   11  C   UNL     1      41.645 -11.686   6.457  1.00  0.00     0.032 A 
BRANCH   9  12
HETATM   12  O   UNL     1      40.758  -9.783   9.424  1.00  0.00    -0.356 OA
HETATM   13  C   UNL     1      41.787 -10.086  10.359  1.00  0.00     0.210 C 
ENDBRANCH   9  12
ENDBRANCH   3   6
ENDBRANCH   1   2
BRANCH   1  14
HETATM   14  N   UNL     1      40.581 -16.757   3.728  1.00  0.00    -0.283 NA
HETATM   15  H   UNL     1      40.558 -17.043   4.708  1.00  0.00     0.128 HD
BRANCH  14  16
HETATM   16  C   UNL     1      41.776 -17.305   3.154  1.00  0.00     0.019 A 
HETATM   17  C   UNL     1      42.663 -18.145   3.885  1.00  0.00    -0.005 A 
HETATM   18  C   UNL     1      43.723 -18.786   3.193  1.00  0.00    -0.024 A 
HETATM   19  C   UNL     1      42.558 -18.376   5.276  1.00  0.00     0.014 A 
HETATM   20  C   UNL     1      44.585 -19.658   3.879  1.00  0.00     0.012 A 
HETATM   21  C   UNL     1      43.910 -18.550   1.823  1.00  0.00     0.012 A 
HETATM   22  C   UNL     1      44.432 -19.893   5.244  1.00  0.00     0.001 A 
HETATM   23  C   UNL     1      43.425 -19.243   5.946  1.00  0.00     0.001 A 
HETATM   24  C   UNL     1      43.065 -17.692   1.126  1.00  0.00     0.003 A 
HETATM   25  C   UNL     1      42.003 -17.080   1.783  1.00  0.00     0.024 A 
ENDBRANCH  14  16
ENDBRANCH   1  14
TORSDOF 5
ENDMDL
MODEL 10
REMARK VINA RESULT:      -7.2      2.852      4.430
REMARK  5 active torsions:
REMARK  status: ('A' for Active; 'I' for Inactive)
REMARK    1  A    between atoms: O_2  and  C_3 
REMARK    2  A    between atoms: C_6  and  N_7 
REMARK       I    between atoms: N_7  and  C_8 
REMARK    3  A    between atoms: C_8  and  C_9 
REMARK    4  A    between atoms: C_9  and  N_10 
REMARK    5  A    between atoms: N_10  and  C_11 
ROOT
HETATM    1  C   UNL     1      41.598 -16.982   0.537  1.00  0.00     0.195 C 
ENDROOT
BRANCH   1   2
HETATM    2  C   UNL     1      40.929 -15.621   0.303  1.00  0.00     0.235 C 
HETATM    3  N   UNL     1      39.839 -15.398   1.128  1.00  0.00    -0.326 N 
HETATM    4  H   UNL     1      39.589 -16.182   1.726  1.00  0.00     0.169 HD
HETATM    5  O   UNL     1      41.357 -14.861  -0.564  1.00  0.00    -0.272 OA
BRANCH   3   6
HETATM    6  C   UNL     1      39.052 -14.233   1.214  1.00  0.00     0.034 A 
HETATM    7  C   UNL     1      37.876 -14.036   0.487  1.00  0.00     0.032 A 
HETATM    8  C   UNL     1      37.141 -12.848   0.611  1.00  0.00     0.039 A 
HETATM    9  C   UNL     1      37.576 -11.839   1.465  1.00  0.00     0.068 A 
HETATM   10  C   UNL     1      38.756 -12.028   2.188  1.00  0.00     0.039 A 
HETATM   11  C   UNL     1      39.488 -13.216   2.067  1.00  0.00     0.032 A 
BRANCH   9  12
HETATM   12  O   UNL     1      36.953 -10.640   1.676  1.00  0.00    -0.356 OA
HETATM   13  C   UNL     1      37.356  -9.905   2.827  1.00  0.00     0.210 C 
ENDBRANCH   9  12
ENDBRANCH   3   6
ENDBRANCH   1   2
BRANCH   1  14
HETATM   14  N   UNL     1      43.070 -16.850   0.720  1.00  0.00    -0.283 NA
HETATM   15  H   UNL     1      43.544 -17.285  -0.073  1.00  0.00     0.128 HD
BRANCH  14  16
HETATM   16  C   UNL     1      43.473 -17.564   1.898  1.00  0.00     0.019 A 
HETATM   17  C   UNL     1      43.489 -16.966   3.190  1.00  0.00    -0.005 A 
HETATM   18  C   UNL     1      43.728 -17.787   4.321  1.00  0.00    -0.024 A 
HETATM   19  C   UNL     1      43.288 -15.584   3.417  1.00  0.00     0.014 A 
HETATM   20  C   UNL     1      43.702 -17.233   5.612  1.00  0.00     0.012 A 
HETATM   21  C   UNL     1      43.989 -19.155   4.151  1.00  0.00     0.012 A 
HETATM   22  C   UNL     1      43.465 -15.874   5.805  1.00  0.00     0.001 A 
HETATM   23  C   UNL     1      43.270 -15.046   4.707  1.00  0.00     0.001 A 
HETATM   24  C   UNL     1      44.016 -19.723   2.881  1.00  0.00     0.003 A 
HETATM   25  C   UNL     1      43.754 -18.937   1.764  1.00  0.00     0.024 A 
ENDBRANCH  14  16
ENDBRANCH   1  14
TORSDOF 5
ENDMDL
