MODEL 1
REMARK VINA RESULT:      -7.4      0.000      0.000
REMARK  6 active torsions:
REMARK  status: ('A' for Active; 'I' for Inactive)
REMARK    1  A    between atoms: N_2  and  C_3 
REMARK    2  A    between atoms: N_2  and  C_19 
REMARK    3  A    between atoms: C_4  and  N_5 
REMARK       I    between atoms: N_5  and  C_6 
REMARK    4  A    between atoms: C_6  and  C_7 
REMARK    5  A    between atoms: C_7  and  C_8 
REMARK    6  A    between atoms: C_19  and  C_20 
ROOT
HETATM    1  C   UNL     1      43.683 -19.322   2.798  1.00  0.00     0.037 A 
HETATM    2  C   UNL     1      44.412 -19.817   3.911  1.00  0.00     0.056 A 
HETATM    3  C   UNL     1      44.777 -21.163   3.973  1.00  0.00     0.031 A 
HETATM    4  C   UNL     1      44.434 -22.031   2.936  1.00  0.00     0.002 A 
HETATM    5  C   UNL     1      43.721 -21.561   1.838  1.00  0.00     0.002 A 
HETATM    6  C   UNL     1      43.344 -20.218   1.770  1.00  0.00     0.026 A 
ENDROOT
BRANCH   2   7
HETATM    7  N   UNL     1      44.776 -18.872   4.892  1.00  0.00    -0.325 N 
HETATM    8  C   UNL     1      44.313 -18.755   6.185  1.00  0.00     0.227 C 
HETATM    9  O   UNL     1      43.413 -19.427   6.689  1.00  0.00    -0.273 OA
HETATM   10  H   UNL     1      45.406 -18.160   4.529  1.00  0.00     0.169 HD
BRANCH   8  11
HETATM   11  C   UNL     1      45.004 -17.637   6.967  1.00  0.00     0.159 C 
BRANCH  11  12
HETATM   12  C   UNL     1      44.474 -16.285   6.594  1.00  0.00     0.017 A 
HETATM   13  N   UNL     1      44.253 -15.925   5.283  1.00  0.00    -0.369 N 
HETATM   14  H   UNL     1      44.376 -16.548   4.490  1.00  0.00     0.165 HD
HETATM   15  C   UNL     1      43.788 -14.638   5.230  1.00  0.00     0.088 A 
HETATM   16  C   UNL     1      43.704 -14.163   6.519  1.00  0.00     0.019 A 
HETATM   17  C   UNL     1      44.137 -15.200   7.380  1.00  0.00     0.027 A 
ENDBRANCH  11  12
ENDBRANCH   8  11
ENDBRANCH   2   7
BRANCH   1  18
HETATM   18  N   UNL     1      43.283 -17.953   2.783  1.00  0.00    -0.281 NA
HETATM   19  C   UNL     1      44.043 -17.120   1.846  1.00  0.00     0.117 C 
BRANCH  18  20
HETATM   20  C   UNL     1      41.812 -17.821   2.661  1.00  0.00     0.133 C 
BRANCH  20  21
HETATM   21  C   UNL     1      41.261 -16.952   3.774  1.00  0.00    -0.045 A 
HETATM   22  C   UNL     1      40.800 -15.652   3.515  1.00  0.00     0.008 A 
HETATM   23  C   UNL     1      40.298 -14.855   4.546  1.00  0.00     0.001 A 
HETATM   24  C   UNL     1      40.244 -15.350   5.846  1.00  0.00     0.000 A 
HETATM   25  C   UNL     1      40.695 -16.640   6.118  1.00  0.00     0.001 A 
HETATM   26  C   UNL     1      41.202 -17.437   5.089  1.00  0.00     0.008 A 
ENDBRANCH  20  21
ENDBRANCH  18  20
ENDBRANCH   1  18
TORSDOF 6
ENDMDL
MODEL 2
REMARK VINA RESULT:      -7.3      1.863      5.308
REMARK  6 active torsions:
REMARK  status: ('A' for Active; 'I' for Inactive)
REMARK    1  A    between atoms: N_2  and  C_3 
REMARK    2  A    between atoms: N_2  and  C_19 
REMARK    3  A    between atoms: C_4  and  N_5 
REMARK       I    between atoms: N_5  and  C_6 
REMARK    4  A    between atoms: C_6  and  C_7 
REMARK    5  A    between atoms: C_7  and  C_8 
REMARK    6  A    between atoms: C_19  and  C_20 
ROOT
HETATM    1  C   UNL     1      41.225 -16.091   3.277  1.00  0.00     0.037 A 
HETATM    2  C   UNL     1      41.364 -14.887   4.018  1.00  0.00     0.056 A 
HETATM    3  C   UNL     1      40.541 -13.792   3.747  1.00  0.00     0.031 A 
HETATM    4  C   UNL     1      39.569 -13.876   2.750  1.00  0.00     0.002 A 
HETATM    5  C   UNL     1      39.419 -15.049   2.017  1.00  0.00     0.002 A 
HETATM    6  C   UNL     1      40.243 -16.147   2.274  1.00  0.00     0.026 A 
ENDROOT
BRANCH   2   7
HETATM    7  N   UNL     1      42.326 -14.895   5.050  1.00  0.00    -0.325 N 
HETATM    8  C   UNL     1      43.550 -14.261   5.087  1.00  0.00     0.227 C 
HETATM    9  O   UNL     1      44.060 -13.631   4.160  1.00  0.00    -0.273 OA
HETATM   10  H   UNL     1      42.075 -15.522   5.810  1.00  0.00     0.169 HD
BRANCH   8  11
HETATM   11  C   UNL     1      44.281 -14.454   6.416  1.00  0.00     0.159 C 
BRANCH  11  12
HETATM   12  C   UNL     1      44.168 -15.863   6.915  1.00  0.00     0.017 A 
HETATM   13  N   UNL     1      43.371 -16.194   7.989  1.00  0.00    -0.369 N 
HETATM   14  H   UNL     1      42.770 -15.538   8.478  1.00  0.00     0.165 HD
HETATM   15  C   UNL     1      43.469 -17.537   8.240  1.00  0.00     0.088 A 
HETATM   16  C   UNL     1      44.336 -18.079   7.319  1.00  0.00     0.019 A 
HETATM   17  C   UNL     1      44.778 -17.025   6.483  1.00  0.00     0.027 A 
ENDBRANCH  11  12
ENDBRANCH   8  11
ENDBRANCH   2   7
BRANCH   1  18
HETATM   18  N   UNL     1      42.110 -17.177   3.544  1.00  0.00    -0.281 NA
HETATM   19  C   UNL     1      41.615 -18.115   4.556  1.00  0.00     0.117 C 
BRANCH  18  20
HETATM   20  C   UNL     1      42.570 -17.819   2.291  1.00  0.00     0.133 C 
BRANCH  20  21
HETATM   21  C   UNL     1      43.313 -19.105   2.593  1.00  0.00    -0.045 A 
HETATM   22  C   UNL     1      43.117 -20.254   1.812  1.00  0.00     0.008 A 
HETATM   23  C   UNL     1      43.802 -21.437   2.099  1.00  0.00     0.001 A 
HETATM   24  C   UNL     1      44.695 -21.484   3.165  1.00  0.00     0.000 A 
HETATM   25  C   UNL     1      44.904 -20.350   3.947  1.00  0.00     0.001 A 
HETATM   26  C   UNL     1      44.216 -19.167   3.665  1.00  0.00     0.008 A 
ENDBRANCH  20  21
ENDBRANCH  18  20
ENDBRANCH   1  18
TORSDOF 6
ENDMDL
MODEL 3
REMARK VINA RESULT:      -7.3      1.581      2.278
REMARK  6 active torsions:
REMARK  status: ('A' for Active; 'I' for Inactive)
REMARK    1  A    between atoms: N_2  and  C_3 
REMARK    2  A    between atoms: N_2  and  C_19 
REMARK    3  A    between atoms: C_4  and  N_5 
REMARK       I    between atoms: N_5  and  C_6 
REMARK    4  A    between atoms: C_6  and  C_7 
REMARK    5  A    between atoms: C_7  and  C_8 
REMARK    6  A    between atoms: C_19  and  C_20 
ROOT
HETATM    1  C   UNL     1      43.743 -19.448   2.626  1.00  0.00     0.037 A 
HETATM    2  C   UNL     1      44.234 -19.579   3.952  1.00  0.00     0.056 A 
HETATM    3  C   UNL     1      44.657 -20.821   4.428  1.00  0.00     0.031 A 
HETATM    4  C   UNL     1      44.607 -21.943   3.601  1.00  0.00     0.002 A 
HETATM    5  C   UNL     1      44.130 -21.831   2.299  1.00  0.00     0.002 A 
HETATM    6  C   UNL     1      43.696 -20.594   1.816  1.00  0.00     0.026 A 
ENDROOT
BRANCH   2   7
HETATM    7  N   UNL     1      44.313 -18.392   4.710  1.00  0.00    -0.325 N 
HETATM    8  C   UNL     1      43.320 -17.771   5.436  1.00  0.00     0.227 C 
HETATM    9  O   UNL     1      42.137 -18.113   5.476  1.00  0.00    -0.273 OA
HETATM   10  H   UNL     1      45.215 -17.932   4.619  1.00  0.00     0.169 HD
BRANCH   8  11
HETATM   11  C   UNL     1      43.814 -16.532   6.184  1.00  0.00     0.159 C 
BRANCH  11  12
HETATM   12  C   UNL     1      43.350 -15.264   5.533  1.00  0.00     0.017 A 
HETATM   13  N   UNL     1      42.823 -14.221   6.262  1.00  0.00    -0.369 N 
HETATM   14  H   UNL     1      42.760 -14.206   7.275  1.00  0.00     0.165 HD
HETATM   15  C   UNL     1      42.467 -13.202   5.418  1.00  0.00     0.088 A 
HETATM   16  C   UNL     1      42.769 -13.590   4.133  1.00  0.00     0.019 A 
HETATM   17  C   UNL     1      43.325 -14.890   4.203  1.00  0.00     0.027 A 
ENDBRANCH  11  12
ENDBRANCH   8  11
ENDBRANCH   2   7
BRANCH   1  18
HETATM   18  N   UNL     1      43.275 -18.176   2.181  1.00  0.00    -0.281 NA
HETATM   19  C   UNL     1      44.282 -17.386   1.466  1.00  0.00     0.117 C 
BRANCH  18  20
HETATM   20  C   UNL     1      41.978 -18.295   1.473  1.00  0.00     0.133 C 
BRANCH  20  21
HETATM   21  C   UNL     1      41.266 -16.958   1.439  1.00  0.00    -0.045 A 
HETATM   22  C   UNL     1      41.323 -16.138   0.302  1.00  0.00     0.008 A 
HETATM   23  C   UNL     1      40.668 -14.905   0.278  1.00  0.00     0.001 A 
HETATM   24  C   UNL     1      39.943 -14.480   1.388  1.00  0.00     0.000 A 
HETATM   25  C   UNL     1      39.873 -15.284   2.523  1.00  0.00     0.001 A 
HETATM   26  C   UNL     1      40.532 -16.516   2.551  1.00  0.00     0.008 A 
ENDBRANCH  20  21
ENDBRANCH  18  20
ENDBRANCH   1  18
TORSDOF 6
ENDMDL
MODEL 4
REMARK VINA RESULT:      -7.1      1.733      5.461
REMARK  6 active torsions:
REMARK  status: ('A' for Active; 'I' for Inactive)
REMARK    1  A    between atoms: N_2  and  C_3 
REMARK    2  A    between atoms: N_2  and  C_19 
REMARK    3  A    between atoms: C_4  and  N_5 
REMARK       I    between atoms: N_5  and  C_6 
REMARK    4  A    between atoms: C_6  and  C_7 
REMARK    5  A    between atoms: C_7  and  C_8 
REMARK    6  A    between atoms: C_19  and  C_20 
ROOT
HETATM    1  C   UNL     1      41.742 -15.178   3.442  1.00  0.00     0.037 A 
HETATM    2  C   UNL     1      41.656 -16.321   2.604  1.00  0.00     0.056 A 
HETATM    3  C   UNL     1      40.498 -16.567   1.863  1.00  0.00     0.031 A 
HETATM    4  C   UNL     1      39.418 -15.686   1.936  1.00  0.00     0.002 A 
HETATM    5  C   UNL     1      39.488 -14.562   2.752  1.00  0.00     0.002 A 
HETATM    6  C   UNL     1      40.639 -14.311   3.503  1.00  0.00     0.026 A 
ENDROOT
BRANCH   2   7
HETATM    7  N   UNL     1      42.806 -17.134   2.533  1.00  0.00    -0.325 N 
HETATM    8  C   UNL     1      43.081 -18.294   3.224  1.00  0.00     0.227 C 
HETATM    9  O   UNL     1      42.380 -18.785   4.110  1.00  0.00    -0.273 OA
HETATM   10  H   UNL     1      43.529 -16.732   1.940  1.00  0.00     0.169 HD
BRANCH   8  11
HETATM   11  C   UNL     1      44.412 -18.928   2.820  1.00  0.00     0.159 C 
BRANCH  11  12
HETATM   12  C   UNL     1      44.587 -20.290   3.422  1.00  0.00     0.017 A 
HETATM   13  N   UNL     1      44.312 -21.440   2.715  1.00  0.00    -0.369 N 
HETATM   14  H   UNL     1      44.029 -21.458   1.740  1.00  0.00     0.165 HD
HETATM   15  C   UNL     1      44.541 -22.534   3.506  1.00  0.00     0.088 A 
HETATM   16  C   UNL     1      44.970 -22.087   4.735  1.00  0.00     0.019 A 
HETATM   17  C   UNL     1      45.000 -20.673   4.683  1.00  0.00     0.027 A 
ENDBRANCH  11  12
ENDBRANCH   8  11
ENDBRANCH   2   7
BRANCH   1  18
HETATM   18  N   UNL     1      42.919 -14.977   4.222  1.00  0.00    -0.281 NA
HETATM   19  C   UNL     1      43.738 -13.843   3.784  1.00  0.00     0.117 C 
BRANCH  18  20
HETATM   20  C   UNL     1      42.613 -14.983   5.673  1.00  0.00     0.133 C 
BRANCH  20  21
HETATM   21  C   UNL     1      43.214 -16.205   6.338  1.00  0.00    -0.045 A 
HETATM   22  C   UNL     1      42.446 -17.017   7.187  1.00  0.00     0.008 A 
HETATM   23  C   UNL     1      43.007 -18.139   7.800  1.00  0.00     0.001 A 
HETATM   24  C   UNL     1      44.339 -18.468   7.567  1.00  0.00     0.000 A 
HETATM   25  C   UNL     1      45.113 -17.674   6.723  1.00  0.00     0.001 A 
HETATM   26  C   UNL     1      44.556 -16.548   6.113  1.00  0.00     0.008 A 
ENDBRANCH  20  21
ENDBRANCH  18  20
ENDBRANCH   1  18
TORSDOF 6
ENDMDL
MODEL 5
REMARK VINA RESULT:      -7.0      3.014      5.626
REMARK  6 active torsions:
REMARK  status: ('A' for Active; 'I' for Inactive)
REMARK    1  A    between atoms: N_2  and  C_3 
REMARK    2  A    between atoms: N_2  and  C_19 
REMARK    3  A    between atoms: C_4  and  N_5 
REMARK       I    between atoms: N_5  and  C_6 
REMARK    4  A    between atoms: C_6  and  C_7 
REMARK    5  A    between atoms: C_7  and  C_8 
REMARK    6  A    between atoms: C_19  and  C_20 
ROOT
HETATM    1  C   UNL     1      41.553 -14.679   0.862  1.00  0.00     0.037 A 
HETATM    2  C   UNL     1      41.863 -13.464   1.527  1.00  0.00     0.056 A 
HETATM    3  C   UNL     1      42.144 -12.310   0.793  1.00  0.00     0.031 A 
HETATM    4  C   UNL     1      42.113 -12.340  -0.601  1.00  0.00     0.002 A 
HETATM    5  C   UNL     1      41.809 -13.523  -1.267  1.00  0.00     0.002 A 
HETATM    6  C   UNL     1      41.536 -14.685  -0.543  1.00  0.00     0.026 A 
ENDROOT
BRANCH   2   7
HETATM    7  N   UNL     1      41.817 -13.492   2.936  1.00  0.00    -0.325 N 
HETATM    8  C   UNL     1      42.866 -13.543   3.829  1.00  0.00     0.227 C 
HETATM    9  O   UNL     1      44.055 -13.661   3.533  1.00  0.00    -0.273 OA
HETATM   10  H   UNL     1      40.866 -13.559   3.292  1.00  0.00     0.169 HD
BRANCH   8  11
HETATM   11  C   UNL     1      42.411 -13.489   5.287  1.00  0.00     0.159 C 
BRANCH  11  12
HETATM   12  C   UNL     1      41.948 -14.828   5.777  1.00  0.00     0.017 A 
HETATM   13  N   UNL     1      42.726 -15.613   6.599  1.00  0.00    -0.369 N 
HETATM   14  H   UNL     1      43.627 -15.330   6.974  1.00  0.00     0.165 HD
HETATM   15  C   UNL     1      42.071 -16.783   6.877  1.00  0.00     0.088 A 
HETATM   16  C   UNL     1      40.857 -16.754   6.230  1.00  0.00     0.019 A 
HETATM   17  C   UNL     1      40.778 -15.522   5.535  1.00  0.00     0.027 A 
ENDBRANCH  11  12
ENDBRANCH   8  11
ENDBRANCH   2   7
BRANCH   1  18
HETATM   18  N   UNL     1      41.316 -15.854   1.635  1.00  0.00    -0.281 NA
HETATM   19  C   UNL     1      39.916 -16.035   2.032  1.00  0.00     0.117 C 
BRANCH  18  20
HETATM   20  C   UNL     1      41.930 -17.048   1.007  1.00  0.00     0.133 C 
BRANCH  20  21
HETATM   21  C   UNL     1      42.749 -17.820   2.021  1.00  0.00    -0.045 A 
HETATM   22  C   UNL     1      43.209 -17.208   3.197  1.00  0.00     0.008 A 
HETATM   23  C   UNL     1      43.967 -17.924   4.125  1.00  0.00     0.001 A 
HETATM   24  C   UNL     1      44.268 -19.264   3.893  1.00  0.00     0.000 A 
HETATM   25  C   UNL     1      43.815 -19.887   2.733  1.00  0.00     0.001 A 
HETATM   26  C   UNL     1      43.061 -19.171   1.800  1.00  0.00     0.008 A 
ENDBRANCH  20  21
ENDBRANCH  18  20
ENDBRANCH   1  18
TORSDOF 6
ENDMDL
MODEL 6
REMARK VINA RESULT:      -6.9      2.388      4.390
REMARK  6 active torsions:
REMARK  status: ('A' for Active; 'I' for Inactive)
REMARK    1  A    between atoms: N_2  and  C_3 
REMARK    2  A    between atoms: N_2  and  C_19 
REMARK    3  A    between atoms: C_4  and  N_5 
REMARK       I    between atoms: N_5  and  C_6 
REMARK    4  A    between atoms: C_6  and  C_7 
REMARK    5  A    between atoms: C_7  and  C_8 
REMARK    6  A    between atoms: C_19  and  C_20 
ROOT
HETATM    1  C   UNL     1      43.283 -18.799   3.957  1.00  0.00     0.037 A 
HETATM    2  C   UNL     1      43.227 -19.154   2.583  1.00  0.00     0.056 A 
HETATM    3  C   UNL     1      43.945 -20.253   2.108  1.00  0.00     0.031 A 
HETATM    4  C   UNL     1      44.719 -21.016   2.983  1.00  0.00     0.002 A 
HETATM    5  C   UNL     1      44.783 -20.682   4.332  1.00  0.00     0.002 A 
HETATM    6  C   UNL     1      44.074 -19.580   4.815  1.00  0.00     0.026 A 
ENDROOT
BRANCH   2   7
HETATM    7  N   UNL     1      42.378 -18.375   1.769  1.00  0.00    -0.325 N 
HETATM    8  C   UNL     1      42.693 -17.266   1.015  1.00  0.00     0.227 C 
HETATM    9  O   UNL     1      43.788 -16.701   0.991  1.00  0.00    -0.273 OA
HETATM   10  H   UNL     1      41.404 -18.660   1.840  1.00  0.00     0.169 HD
BRANCH   8  11
HETATM   11  C   UNL     1      41.507 -16.735   0.209  1.00  0.00     0.159 C 
BRANCH  11  12
HETATM   12  C   UNL     1      40.706 -15.736   0.988  1.00  0.00     0.017 A 
HETATM   13  N   UNL     1      40.529 -14.442   0.549  1.00  0.00    -0.369 N 
HETATM   14  H   UNL     1      40.871 -14.088  -0.339  1.00  0.00     0.165 HD
HETATM   15  C   UNL     1      39.776 -13.746   1.457  1.00  0.00     0.088 A 
HETATM   16  C   UNL     1      39.461 -14.597   2.491  1.00  0.00     0.019 A 
HETATM   17  C   UNL     1      40.047 -15.853   2.197  1.00  0.00     0.027 A 
ENDBRANCH  11  12
ENDBRANCH   8  11
ENDBRANCH   2   7
BRANCH   1  18
HETATM   18  N   UNL     1      42.575 -17.645   4.405  1.00  0.00    -0.281 NA
HETATM   19  C   UNL     1      41.386 -17.948   5.207  1.00  0.00     0.117 C 
BRANCH  18  20
HETATM   20  C   UNL     1      43.491 -16.657   5.023  1.00  0.00     0.133 C 
BRANCH  20  21
HETATM   21  C   UNL     1      43.004 -15.245   4.763  1.00  0.00    -0.045 A 
HETATM   22  C   UNL     1      43.294 -14.593   3.554  1.00  0.00     0.008 A 
HETATM   23  C   UNL     1      42.847 -13.291   3.322  1.00  0.00     0.001 A 
HETATM   24  C   UNL     1      42.099 -12.627   4.291  1.00  0.00     0.000 A 
HETATM   25  C   UNL     1      41.800 -13.263   5.494  1.00  0.00     0.001 A 
HETATM   26  C   UNL     1      42.251 -14.564   5.731  1.00  0.00     0.008 A 
ENDBRANCH  20  21
ENDBRANCH  18  20
ENDBRANCH   1  18
TORSDOF 6
ENDMDL
MODEL 7
REMARK VINA RESULT:      -6.9      2.556      5.240
REMARK  6 active torsions:
REMARK  status: ('A' for Active; 'I' for Inactive)
REMARK    1  A    between atoms: N_2  and  C_3 
REMARK    2  A    between atoms: N_2  and  C_19 
REMARK    3  A    between atoms: C_4  and  N_5 
REMARK       I    between atoms: N_5  and  C_6 
REMARK    4  A    between atoms: C_6  and  C_7 
REMARK    5  A    between atoms: C_7  and  C_8 
REMARK    6  A    between atoms: C_19  and  C_20 
ROOT
HETATM    1  C   UNL     1      41.801 -15.508   1.144  1.00  0.00     0.037 A 
HETATM    2  C   UNL     1      41.906 -14.522   2.161  1.00  0.00     0.056 A 
HETATM    3  C   UNL     1      41.900 -13.165   1.832  1.00  0.00     0.031 A 
HETATM    4  C   UNL     1      41.782 -12.768   0.500  1.00  0.00     0.002 A 
HETATM    5  C   UNL     1      41.676 -13.721  -0.507  1.00  0.00     0.002 A 
HETATM    6  C   UNL     1      41.690 -15.081  -0.189  1.00  0.00     0.026 A 
ENDROOT
BRANCH   2   7
HETATM    7  N   UNL     1      41.962 -14.995   3.489  1.00  0.00    -0.325 N 
HETATM    8  C   UNL     1      40.953 -15.040   4.426  1.00  0.00     0.227 C 
HETATM    9  O   UNL     1      39.819 -14.581   4.284  1.00  0.00    -0.273 OA
HETATM   10  H   UNL     1      42.904 -15.256   3.769  1.00  0.00     0.169 HD
BRANCH   8  11
HETATM   11  C   UNL     1      41.388 -15.690   5.740  1.00  0.00     0.159 C 
BRANCH  11  12
HETATM   12  C   UNL     1      42.686 -15.130   6.237  1.00  0.00     0.017 A 
HETATM   13  N   UNL     1      42.842 -13.790   6.517  1.00  0.00    -0.369 N 
HETATM   14  H   UNL     1      42.095 -13.104   6.463  1.00  0.00     0.165 HD
HETATM   15  C   UNL     1      44.124 -13.551   6.934  1.00  0.00     0.088 A 
HETATM   16  C   UNL     1      44.803 -14.748   6.926  1.00  0.00     0.019 A 
HETATM   17  C   UNL     1      43.898 -15.744   6.487  1.00  0.00     0.027 A 
ENDBRANCH  11  12
ENDBRANCH   8  11
ENDBRANCH   2   7
BRANCH   1  18
HETATM   18  N   UNL     1      41.856 -16.886   1.505  1.00  0.00    -0.281 NA
HETATM   19  C   UNL     1      40.675 -17.656   1.104  1.00  0.00     0.117 C 
BRANCH  18  20
HETATM   20  C   UNL     1      43.146 -17.498   1.106  1.00  0.00     0.133 C 
BRANCH  20  21
HETATM   21  C   UNL     1      43.637 -18.452   2.176  1.00  0.00    -0.045 A 
HETATM   22  C   UNL     1      43.861 -18.011   3.490  1.00  0.00     0.008 A 
HETATM   23  C   UNL     1      44.318 -18.894   4.470  1.00  0.00     0.001 A 
HETATM   24  C   UNL     1      44.548 -20.230   4.152  1.00  0.00     0.000 A 
HETATM   25  C   UNL     1      44.326 -20.684   2.854  1.00  0.00     0.001 A 
HETATM   26  C   UNL     1      43.874 -19.800   1.870  1.00  0.00     0.008 A 
ENDBRANCH  20  21
ENDBRANCH  18  20
ENDBRANCH   1  18
TORSDOF 6
ENDMDL
MODEL 8
REMARK VINA RESULT:      -6.8      2.482      6.365
REMARK  6 active torsions:
REMARK  status: ('A' for Active; 'I' for Inactive)
REMARK    1  A    between atoms: N_2  and  C_3 
REMARK    2  A    between atoms: N_2  and  C_19 
REMARK    3  A    between atoms: C_4  and  N_5 
REMARK       I    between atoms: N_5  and  C_6 
REMARK    4  A    between atoms: C_6  and  C_7 
REMARK    5  A    between atoms: C_7  and  C_8 
REMARK    6  A    between atoms: C_19  and  C_20 
ROOT
HETATM    1  C   UNL     1      41.854 -13.860   5.140  1.00  0.00     0.037 A 
HETATM    2  C   UNL     1      40.576 -14.353   4.765  1.00  0.00     0.056 A 
HETATM    3  C   UNL     1      39.418 -13.665   5.134  1.00  0.00     0.031 A 
HETATM    4  C   UNL     1      39.509 -12.483   5.868  1.00  0.00     0.002 A 
HETATM    5  C   UNL     1      40.753 -11.986   6.241  1.00  0.00     0.002 A 
HETATM    6  C   UNL     1      41.917 -12.671   5.885  1.00  0.00     0.026 A 
ENDROOT
BRANCH   2   7
HETATM    7  N   UNL     1      40.563 -15.520   3.973  1.00  0.00    -0.325 N 
HETATM    8  C   UNL     1      40.599 -15.625   2.599  1.00  0.00     0.227 C 
HETATM    9  O   UNL     1      40.563 -14.684   1.806  1.00  0.00    -0.273 OA
HETATM   10  H   UNL     1      40.433 -16.363   4.527  1.00  0.00     0.169 HD
BRANCH   8  11
HETATM   11  C   UNL     1      40.639 -17.074   2.113  1.00  0.00     0.159 C 
BRANCH  11  12
HETATM   12  C   UNL     1      42.044 -17.550   1.893  1.00  0.00     0.017 A 
HETATM   13  N   UNL     1      43.052 -16.694   1.509  1.00  0.00    -0.369 N 
HETATM   14  H   UNL     1      42.940 -15.691   1.401  1.00  0.00     0.165 HD
HETATM   15  C   UNL     1      44.221 -17.394   1.364  1.00  0.00     0.088 A 
HETATM   16  C   UNL     1      43.966 -18.713   1.660  1.00  0.00     0.019 A 
HETATM   17  C   UNL     1      42.594 -18.814   1.993  1.00  0.00     0.027 A 
ENDBRANCH  11  12
ENDBRANCH   8  11
ENDBRANCH   2   7
BRANCH   1  18
HETATM   18  N   UNL     1      43.017 -14.607   4.789  1.00  0.00    -0.281 NA
HETATM   19  C   UNL     1      43.791 -14.024   3.689  1.00  0.00     0.117 C 
BRANCH  18  20
HETATM   20  C   UNL     1      43.821 -14.948   5.987  1.00  0.00     0.133 C 
BRANCH  20  21
HETATM   21  C   UNL     1      43.769 -16.438   6.256  1.00  0.00    -0.045 A 
HETATM   22  C   UNL     1      43.640 -17.359   5.204  1.00  0.00     0.008 A 
HETATM   23  C   UNL     1      43.589 -18.730   5.459  1.00  0.00     0.001 A 
HETATM   24  C   UNL     1      43.673 -19.200   6.767  1.00  0.00     0.000 A 
HETATM   25  C   UNL     1      43.805 -18.299   7.821  1.00  0.00     0.001 A 
HETATM   26  C   UNL     1      43.852 -16.926   7.569  1.00  0.00     0.008 A 
ENDBRANCH  20  21
ENDBRANCH  18  20
ENDBRANCH   1  18
TORSDOF 6
ENDMDL
MODEL 9
REMARK VINA RESULT:      -6.8      1.569      5.507
REMARK  6 active torsions:
REMARK  status: ('A' for Active; 'I' for Inactive)
REMARK    1  A    between atoms: N_2  and  C_3 
REMARK    2  A    between atoms: N_2  and  C_19 
REMARK    3  A    between atoms: C_4  and  N_5 
REMARK       I    between atoms: N_5  and  C_6 
REMARK    4  A    between atoms: C_6  and  C_7 
REMARK    5  A    between atoms: C_7  and  C_8 
REMARK    6  A    between atoms: C_19  and  C_20 
ROOT
HETATM    1  C   UNL     1      42.565 -15.210   5.916  1.00  0.00     0.037 A 
HETATM    2  C   UNL     1      43.627 -15.883   6.575  1.00  0.00     0.056 A 
HETATM    3  C   UNL     1      44.653 -15.158   7.185  1.00  0.00     0.031 A 
HETATM    4  C   UNL     1      44.637 -13.763   7.158  1.00  0.00     0.002 A 
HETATM    5  C   UNL     1      43.602 -13.089   6.518  1.00  0.00     0.002 A 
HETATM    6  C   UNL     1      42.576 -13.805   5.897  1.00  0.00     0.026 A 
ENDROOT
BRANCH   2   7
HETATM    7  N   UNL     1      43.546 -17.291   6.615  1.00  0.00    -0.325 N 
HETATM    8  C   UNL     1      44.574 -18.209   6.620  1.00  0.00     0.227 C 
HETATM    9  O   UNL     1      45.772 -17.948   6.502  1.00  0.00    -0.273 OA
HETATM   10  H   UNL     1      42.588 -17.626   6.554  1.00  0.00     0.169 HD
BRANCH   8  11
HETATM   11  C   UNL     1      44.083 -19.652   6.739  1.00  0.00     0.159 C 
BRANCH  11  12
HETATM   12  C   UNL     1      44.330 -20.432   5.483  1.00  0.00     0.017 A 
HETATM   13  N   UNL     1      44.597 -21.783   5.504  1.00  0.00    -0.369 N 
HETATM   14  H   UNL     1      44.593 -22.354   6.344  1.00  0.00     0.165 HD
HETATM   15  C   UNL     1      44.799 -22.233   4.226  1.00  0.00     0.088 A 
HETATM   16  C   UNL     1      44.660 -21.164   3.372  1.00  0.00     0.019 A 
HETATM   17  C   UNL     1      44.365 -20.027   4.162  1.00  0.00     0.027 A 
ENDBRANCH  11  12
ENDBRANCH   8  11
ENDBRANCH   2   7
BRANCH   1  18
HETATM   18  N   UNL     1      41.556 -15.976   5.263  1.00  0.00    -0.281 NA
HETATM   19  C   UNL     1      40.310 -16.097   6.026  1.00  0.00     0.117 C 
BRANCH  18  20
HETATM   20  C   UNL     1      41.370 -15.540   3.858  1.00  0.00     0.133 C 
BRANCH  20  21
HETATM   21  C   UNL     1      42.158 -16.428   2.917  1.00  0.00    -0.045 A 
HETATM   22  C   UNL     1      43.485 -16.122   2.575  1.00  0.00     0.008 A 
HETATM   23  C   UNL     1      44.204 -16.942   1.703  1.00  0.00     0.001 A 
HETATM   24  C   UNL     1      43.609 -18.081   1.168  1.00  0.00     0.000 A 
HETATM   25  C   UNL     1      42.294 -18.400   1.500  1.00  0.00     0.001 A 
HETATM   26  C   UNL     1      41.571 -17.578   2.368  1.00  0.00     0.008 A 
ENDBRANCH  20  21
ENDBRANCH  18  20
ENDBRANCH   1  18
TORSDOF 6
ENDMDL
MODEL 10
REMARK VINA RESULT:      -6.5      3.190      5.478
REMARK  6 active torsions:
REMARK  status: ('A' for Active; 'I' for Inactive)
REMARK    1  A    between atoms: N_2  and  C_3 
REMARK    2  A    between atoms: N_2  and  C_19 
REMARK    3  A    between atoms: C_4  and  N_5 
REMARK       I    between atoms: N_5  and  C_6 
REMARK    4  A    between atoms: C_6  and  C_7 
REMARK    5  A    between atoms: C_7  and  C_8 
REMARK    6  A    between atoms: C_19  and  C_20 
ROOT
HETATM    1  C   UNL     1      42.601 -17.569   4.178  1.00  0.00     0.037 A 
HETATM    2  C   UNL     1      41.897 -17.529   2.946  1.00  0.00     0.056 A 
HETATM    3  C   UNL     1      42.311 -18.317   1.870  1.00  0.00     0.031 A 
HETATM    4  C   UNL     1      43.417 -19.157   2.002  1.00  0.00     0.002 A 
HETATM    5  C   UNL     1      44.116 -19.209   3.203  1.00  0.00     0.002 A 
HETATM    6  C   UNL     1      43.715 -18.418   4.282  1.00  0.00     0.026 A 
ENDROOT
BRANCH   2   7
HETATM    7  N   UNL     1      40.754 -16.703   2.904  1.00  0.00    -0.325 N 
HETATM    8  C   UNL     1      40.568 -15.529   2.205  1.00  0.00     0.227 C 
HETATM    9  O   UNL     1      41.427 -14.942   1.546  1.00  0.00    -0.273 OA
HETATM   10  H   UNL     1      40.028 -17.012   3.546  1.00  0.00     0.169 HD
BRANCH   8  11
HETATM   11  C   UNL     1      39.159 -14.959   2.362  1.00  0.00     0.159 C 
BRANCH  11  12
HETATM   12  C   UNL     1      38.686 -14.286   1.109  1.00  0.00     0.017 A 
HETATM   13  N   UNL     1      39.201 -14.605  -0.128  1.00  0.00    -0.369 N 
HETATM   14  H   UNL     1      39.883 -15.339  -0.292  1.00  0.00     0.165 HD
HETATM   15  C   UNL     1      38.607 -13.830  -1.089  1.00  0.00     0.088 A 
HETATM   16  C   UNL     1      37.698 -13.005  -0.468  1.00  0.00     0.019 A 
HETATM   17  C   UNL     1      37.747 -13.291   0.918  1.00  0.00     0.027 A 
ENDBRANCH  11  12
ENDBRANCH   8  11
ENDBRANCH   2   7
BRANCH   1  18
HETATM   18  N   UNL     1      42.184 -16.719   5.244  1.00  0.00    -0.281 NA
HETATM   19  C   UNL     1      42.083 -17.394   6.542  1.00  0.00     0.117 C 
BRANCH  18  20
HETATM   20  C   UNL     1      42.968 -15.461   5.271  1.00  0.00     0.133 C 
BRANCH  20  21
HETATM   21  C   UNL     1      42.054 -14.261   5.125  1.00  0.00    -0.045 A 
HETATM   22  C   UNL     1      42.463 -13.124   4.412  1.00  0.00     0.008 A 
HETATM   23  C   UNL     1      41.618 -12.020   4.285  1.00  0.00     0.001 A 
HETATM   24  C   UNL     1      40.352 -12.041   4.863  1.00  0.00     0.000 A 
HETATM   25  C   UNL     1      39.930 -13.164   5.571  1.00  0.00     0.001 A 
HETATM   26  C   UNL     1      40.776 -14.268   5.704  1.00  0.00     0.008 A 
ENDBRANCH  20  21
ENDBRANCH  18  20
ENDBRANCH   1  18
TORSDOF 6
ENDMDL
