MODEL 1
REMARK VINA RESULT:      -7.4      0.000      0.000
REMARK  5 active torsions:
REMARK  status: ('A' for Active; 'I' for Inactive)
REMARK    1  A    between atoms: C_2  and  O_3 
REMARK    2  A    between atoms: O_3  and  C_4 
REMARK    3  A    between atoms: C_9  and  C_10 
REMARK    4  A    between atoms: C_10  and  N_11 
REMARK       I    between atoms: N_11  and  C_12 
REMARK       I    between atoms: C_12  and  N_13 
REMARK    5  A    between atoms: N_13  and  C_14 
ROOT
HETATM    1  N   UNL     1      41.876 -17.063   5.867  1.00  0.00    -0.338 N 
HETATM    2  C   UNL     1      43.133 -16.591   6.057  1.00  0.00     0.320 C 
HETATM    3  N   UNL     1      44.174 -17.387   5.692  1.00  0.00    -0.309 N 
HETATM    4  O   UNL     1      43.369 -15.504   6.581  1.00  0.00    -0.247 OA
HETATM    5  H   UNL     1      41.766 -18.066   5.917  1.00  0.00     0.164 HD
HETATM    6  H   UNL     1      45.046 -17.015   6.052  1.00  0.00     0.170 HD
ENDROOT
BRANCH   1   7
HETATM    7  C   UNL     1      40.699 -16.260   6.136  1.00  0.00     0.167 C 
BRANCH   7   8
HETATM    8  C   UNL     1      40.527 -15.090   5.205  1.00  0.00     0.013 A 
HETATM    9  C   UNL     1      40.583 -15.266   3.821  1.00  0.00     0.172 A 
HETATM   10  N   UNL     1      40.475 -14.259   2.922  1.00  0.00    -0.237 NA
HETATM   11  C   UNL     1      40.335 -13.012   3.416  1.00  0.00     0.119 A 
HETATM   12  C   UNL     1      40.301 -12.720   4.767  1.00  0.00     0.020 A 
HETATM   13  C   UNL     1      40.406 -13.774   5.671  1.00  0.00     0.014 A 
BRANCH   9  14
HETATM   14  O   UNL     1      40.763 -16.554   3.355  1.00  0.00    -0.334 OA
BRANCH  14  15
HETATM   15  C   UNL     1      40.144 -16.802   2.092  1.00  0.00     0.173 C 
HETATM   16  C   UNL     1      41.192 -17.408   1.175  1.00  0.00     0.034 C 
ENDBRANCH  14  15
ENDBRANCH   9  14
ENDBRANCH   7   8
ENDBRANCH   1   7
BRANCH   3  17
HETATM   17  C   UNL     1      44.282 -18.496   4.831  1.00  0.00     0.037 A 
HETATM   18  C   UNL     1      44.570 -19.798   5.241  1.00  0.00     0.049 A 
HETATM   19  C   UNL     1      44.629 -20.844   4.308  1.00  0.00     0.019 A 
HETATM   20 BR   UNL     1      45.071 -22.572   4.966  1.00  0.00    -0.051 Br
HETATM   21  C   UNL     1      44.365 -20.615   2.950  1.00  0.00    -0.044 A 
HETATM   22  C   UNL     1      44.419 -21.703   1.915  1.00  0.00     0.049 C 
HETATM   23  C   UNL     1      44.064 -19.308   2.547  1.00  0.00     0.010 A 
HETATM   24  C   UNL     1      44.017 -18.265   3.477  1.00  0.00     0.030 A 
ENDBRANCH   3  17
TORSDOF 5
ENDMDL
MODEL 2
REMARK VINA RESULT:      -7.2      2.026      3.494
REMARK  5 active torsions:
REMARK  status: ('A' for Active; 'I' for Inactive)
REMARK    1  A    between atoms: C_2  and  O_3 
REMARK    2  A    between atoms: O_3  and  C_4 
REMARK    3  A    between atoms: C_9  and  C_10 
REMARK    4  A    between atoms: C_10  and  N_11 
REMARK       I    between atoms: N_11  and  C_12 
REMARK       I    between atoms: C_12  and  N_13 
REMARK    5  A    between atoms: N_13  and  C_14 
ROOT
HETATM    1  N   UNL     1      41.063 -16.895   2.140  1.00  0.00    -0.338 N 
HETATM    2  C   UNL     1      41.871 -17.002   1.056  1.00  0.00     0.320 C 
HETATM    3  N   UNL     1      43.076 -17.611   1.218  1.00  0.00    -0.309 N 
HETATM    4  O   UNL     1      41.581 -16.536  -0.044  1.00  0.00    -0.247 OA
HETATM    5  H   UNL     1      41.527 -16.832   3.036  1.00  0.00     0.164 HD
HETATM    6  H   UNL     1      43.659 -17.463   0.401  1.00  0.00     0.170 HD
ENDROOT
BRANCH   1   7
HETATM    7  C   UNL     1      39.723 -16.347   2.057  1.00  0.00     0.167 C 
BRANCH   7   8
HETATM    8  C   UNL     1      39.632 -14.889   2.422  1.00  0.00     0.013 A 
HETATM    9  C   UNL     1      40.216 -14.410   3.596  1.00  0.00     0.172 A 
HETATM   10  N   UNL     1      40.145 -13.122   4.010  1.00  0.00    -0.237 NA
HETATM   11  C   UNL     1      39.437 -12.272   3.239  1.00  0.00     0.119 A 
HETATM   12  C   UNL     1      38.792 -12.645   2.076  1.00  0.00     0.020 A 
HETATM   13  C   UNL     1      38.887 -13.973   1.668  1.00  0.00     0.014 A 
BRANCH   9  14
HETATM   14  O   UNL     1      40.903 -15.321   4.376  1.00  0.00    -0.334 OA
BRANCH  14  15
HETATM   15  C   UNL     1      40.473 -15.352   5.738  1.00  0.00     0.173 C 
HETATM   16  C   UNL     1      40.789 -16.730   6.291  1.00  0.00     0.034 C 
ENDBRANCH  14  15
ENDBRANCH   9  14
ENDBRANCH   7   8
ENDBRANCH   1   7
BRANCH   3  17
HETATM   17  C   UNL     1      43.589 -18.485   2.195  1.00  0.00     0.037 A 
HETATM   18  C   UNL     1      43.914 -18.118   3.501  1.00  0.00     0.049 A 
HETATM   19  C   UNL     1      44.395 -19.071   4.412  1.00  0.00     0.019 A 
HETATM   20 BR   UNL     1      44.848 -18.457   6.154  1.00  0.00    -0.051 Br
HETATM   21  C   UNL     1      44.526 -20.418   4.045  1.00  0.00    -0.044 A 
HETATM   22  C   UNL     1      45.038 -21.471   4.986  1.00  0.00     0.049 C 
HETATM   23  C   UNL     1      44.186 -20.782   2.736  1.00  0.00     0.010 A 
HETATM   24  C   UNL     1      43.718 -19.829   1.827  1.00  0.00     0.030 A 
ENDBRANCH   3  17
TORSDOF 5
ENDMDL
MODEL 3
REMARK VINA RESULT:      -7.2      4.593      7.496
REMARK  5 active torsions:
REMARK  status: ('A' for Active; 'I' for Inactive)
REMARK    1  A    between atoms: C_2  and  O_3 
REMARK    2  A    between atoms: O_3  and  C_4 
REMARK    3  A    between atoms: C_9  and  C_10 
REMARK    4  A    between atoms: C_10  and  N_11 
REMARK       I    between atoms: N_11  and  C_12 
REMARK       I    between atoms: C_12  and  N_13 
REMARK    5  A    between atoms: N_13  and  C_14 
ROOT
HETATM    1  N   UNL     1      42.804 -16.555   0.568  1.00  0.00    -0.338 N 
HETATM    2  C   UNL     1      41.473 -16.754   0.399  1.00  0.00     0.320 C 
HETATM    3  N   UNL     1      40.766 -15.797  -0.259  1.00  0.00    -0.309 N 
HETATM    4  O   UNL     1      40.879 -17.731   0.850  1.00  0.00    -0.247 OA
HETATM    5  H   UNL     1      43.106 -15.593   0.632  1.00  0.00     0.164 HD
HETATM    6  H   UNL     1      39.770 -15.961  -0.157  1.00  0.00     0.170 HD
ENDROOT
BRANCH   1   7
HETATM    7  C   UNL     1      43.665 -17.553   1.174  1.00  0.00     0.167 C 
BRANCH   7   8
HETATM    8  C   UNL     1      43.561 -17.625   2.674  1.00  0.00     0.013 A 
HETATM    9  C   UNL     1      43.407 -18.853   3.320  1.00  0.00     0.172 A 
HETATM   10  N   UNL     1      43.269 -18.995   4.660  1.00  0.00    -0.237 NA
HETATM   11  C   UNL     1      43.253 -17.863   5.395  1.00  0.00     0.119 A 
HETATM   12  C   UNL     1      43.365 -16.596   4.856  1.00  0.00     0.020 A 
HETATM   13  C   UNL     1      43.513 -16.477   3.477  1.00  0.00     0.014 A 
BRANCH   9  14
HETATM   14  O   UNL     1      43.393 -19.985   2.529  1.00  0.00    -0.334 OA
BRANCH  14  15
HETATM   15  C   UNL     1      44.521 -20.839   2.725  1.00  0.00     0.173 C 
HETATM   16  C   UNL     1      44.380 -22.017   1.778  1.00  0.00     0.034 C 
ENDBRANCH  14  15
ENDBRANCH   9  14
ENDBRANCH   7   8
ENDBRANCH   1   7
BRANCH   3  17
HETATM   17  C   UNL     1      41.135 -14.755  -1.131  1.00  0.00     0.037 A 
HETATM   18  C   UNL     1      41.707 -13.547  -0.733  1.00  0.00     0.049 A 
HETATM   19  C   UNL     1      42.067 -12.579  -1.682  1.00  0.00     0.019 A 
HETATM   20 BR   UNL     1      42.799 -10.950  -1.030  1.00  0.00    -0.051 Br
HETATM   21  C   UNL     1      41.897 -12.816  -3.054  1.00  0.00    -0.044 A 
HETATM   22  C   UNL     1      42.266 -11.808  -4.106  1.00  0.00     0.049 C 
HETATM   23  C   UNL     1      41.334 -14.036  -3.449  1.00  0.00     0.010 A 
HETATM   24  C   UNL     1      40.966 -14.994  -2.500  1.00  0.00     0.030 A 
ENDBRANCH   3  17
TORSDOF 5
ENDMDL
MODEL 4
REMARK VINA RESULT:      -7.0      2.614      7.043
REMARK  5 active torsions:
REMARK  status: ('A' for Active; 'I' for Inactive)
REMARK    1  A    between atoms: C_2  and  O_3 
REMARK    2  A    between atoms: O_3  and  C_4 
REMARK    3  A    between atoms: C_9  and  C_10 
REMARK    4  A    between atoms: C_10  and  N_11 
REMARK       I    between atoms: N_11  and  C_12 
REMARK       I    between atoms: C_12  and  N_13 
REMARK    5  A    between atoms: N_13  and  C_14 
ROOT
HETATM    1  N   UNL     1      42.573 -17.507   2.500  1.00  0.00    -0.338 N 
HETATM    2  C   UNL     1      41.286 -17.310   2.123  1.00  0.00     0.320 C 
HETATM    3  N   UNL     1      40.533 -16.445   2.855  1.00  0.00    -0.309 N 
HETATM    4  O   UNL     1      40.763 -17.907   1.184  1.00  0.00    -0.247 OA
HETATM    5  H   UNL     1      42.769 -17.402   3.486  1.00  0.00     0.164 HD
HETATM    6  H   UNL     1      39.555 -16.524   2.600  1.00  0.00     0.170 HD
ENDROOT
BRANCH   1   7
HETATM    7  C   UNL     1      43.486 -18.337   1.736  1.00  0.00     0.167 C 
BRANCH   7   8
HETATM    8  C   UNL     1      43.832 -19.642   2.401  1.00  0.00     0.013 A 
HETATM    9  C   UNL     1      44.319 -19.669   3.710  1.00  0.00     0.172 A 
HETATM   10  N   UNL     1      44.687 -20.798   4.360  1.00  0.00    -0.237 NA
HETATM   11  C   UNL     1      44.596 -21.956   3.674  1.00  0.00     0.119 A 
HETATM   12  C   UNL     1      44.158 -22.040   2.366  1.00  0.00     0.020 A 
HETATM   13  C   UNL     1      43.779 -20.866   1.721  1.00  0.00     0.014 A 
BRANCH   9  14
HETATM   14  O   UNL     1      44.431 -18.459   4.366  1.00  0.00    -0.334 OA
BRANCH  14  15
HETATM   15  C   UNL     1      44.074 -18.518   5.748  1.00  0.00     0.173 C 
HETATM   16  C   UNL     1      45.214 -17.910   6.547  1.00  0.00     0.034 C 
ENDBRANCH  14  15
ENDBRANCH   9  14
ENDBRANCH   7   8
ENDBRANCH   1   7
BRANCH   3  17
HETATM   17  C   UNL     1      40.857 -15.410   3.754  1.00  0.00     0.037 A 
HETATM   18  C   UNL     1      42.025 -15.352   4.514  1.00  0.00     0.049 A 
HETATM   19  C   UNL     1      42.271 -14.263   5.364  1.00  0.00     0.019 A 
HETATM   20 BR   UNL     1      43.872 -14.302   6.388  1.00  0.00    -0.051 Br
HETATM   21  C   UNL     1      41.369 -13.191   5.443  1.00  0.00    -0.044 A 
HETATM   22  C   UNL     1      41.589 -12.006   6.340  1.00  0.00     0.049 C 
HETATM   23  C   UNL     1      40.204 -13.250   4.667  1.00  0.00     0.010 A 
HETATM   24  C   UNL     1      39.957 -14.342   3.829  1.00  0.00     0.030 A 
ENDBRANCH   3  17
TORSDOF 5
ENDMDL
MODEL 5
REMARK VINA RESULT:      -6.8      2.332      3.472
REMARK  5 active torsions:
REMARK  status: ('A' for Active; 'I' for Inactive)
REMARK    1  A    between atoms: C_2  and  O_3 
REMARK    2  A    between atoms: O_3  and  C_4 
REMARK    3  A    between atoms: C_9  and  C_10 
REMARK    4  A    between atoms: C_10  and  N_11 
REMARK       I    between atoms: N_11  and  C_12 
REMARK       I    between atoms: C_12  and  N_13 
REMARK    5  A    between atoms: N_13  and  C_14 
ROOT
HETATM    1  N   UNL     1      41.390 -16.557   3.206  1.00  0.00    -0.338 N 
HETATM    2  C   UNL     1      42.496 -16.088   3.836  1.00  0.00     0.320 C 
HETATM    3  N   UNL     1      43.473 -16.979   4.156  1.00  0.00    -0.309 N 
HETATM    4  O   UNL     1      42.631 -14.912   4.166  1.00  0.00    -0.247 OA
HETATM    5  H   UNL     1      41.133 -17.512   3.412  1.00  0.00     0.164 HD
HETATM    6  H   UNL     1      44.148 -16.554   4.781  1.00  0.00     0.170 HD
ENDROOT
BRANCH   1   7
HETATM    7  C   UNL     1      40.333 -15.680   2.741  1.00  0.00     0.167 C 
BRANCH   7   8
HETATM    8  C   UNL     1      40.417 -15.341   1.276  1.00  0.00     0.013 A 
HETATM    9  C   UNL     1      39.544 -14.410   0.708  1.00  0.00     0.172 A 
HETATM   10  N   UNL     1      39.534 -14.082  -0.606  1.00  0.00    -0.237 NA
HETATM   11  C   UNL     1      40.410 -14.726  -1.403  1.00  0.00     0.119 A 
HETATM   12  C   UNL     1      41.296 -15.687  -0.953  1.00  0.00     0.020 A 
HETATM   13  C   UNL     1      41.292 -16.002   0.404  1.00  0.00     0.014 A 
BRANCH   9  14
HETATM   14  O   UNL     1      38.638 -13.798   1.552  1.00  0.00    -0.334 OA
BRANCH  14  15
HETATM   15  C   UNL     1      37.461 -13.331   0.892  1.00  0.00     0.173 C 
HETATM   16  C   UNL     1      37.335 -11.843   1.169  1.00  0.00     0.034 C 
ENDBRANCH  14  15
ENDBRANCH   9  14
ENDBRANCH   7   8
ENDBRANCH   1   7
BRANCH   3  17
HETATM   17  C   UNL     1      43.786 -18.271   3.692  1.00  0.00     0.037 A 
HETATM   18  C   UNL     1      44.122 -19.351   4.508  1.00  0.00     0.049 A 
HETATM   19  C   UNL     1      44.392 -20.610   3.952  1.00  0.00     0.019 A 
HETATM   20 BR   UNL     1      44.881 -22.004   5.149  1.00  0.00    -0.051 Br
HETATM   21  C   UNL     1      44.296 -20.824   2.569  1.00  0.00    -0.044 A 
HETATM   22  C   UNL     1      44.578 -22.154   1.929  1.00  0.00     0.049 C 
HETATM   23  C   UNL     1      43.946 -19.738   1.756  1.00  0.00     0.010 A 
HETATM   24  C   UNL     1      43.688 -18.482   2.312  1.00  0.00     0.030 A 
ENDBRANCH   3  17
TORSDOF 5
ENDMDL
MODEL 6
REMARK VINA RESULT:      -6.8      2.972      7.298
REMARK  5 active torsions:
REMARK  status: ('A' for Active; 'I' for Inactive)
REMARK    1  A    between atoms: C_2  and  O_3 
REMARK    2  A    between atoms: O_3  and  C_4 
REMARK    3  A    between atoms: C_9  and  C_10 
REMARK    4  A    between atoms: C_10  and  N_11 
REMARK       I    between atoms: N_11  and  C_12 
REMARK       I    between atoms: C_12  and  N_13 
REMARK    5  A    between atoms: N_13  and  C_14 
ROOT
HETATM    1  N   UNL     1      41.988 -16.595   1.967  1.00  0.00    -0.338 N 
HETATM    2  C   UNL     1      40.780 -17.075   1.580  1.00  0.00     0.320 C 
HETATM    3  N   UNL     1      39.671 -16.380   1.951  1.00  0.00    -0.309 N 
HETATM    4  O   UNL     1      40.645 -18.124   0.954  1.00  0.00    -0.247 OA
HETATM    5  H   UNL     1      42.004 -16.075   2.832  1.00  0.00     0.164 HD
HETATM    6  H   UNL     1      38.836 -16.927   1.773  1.00  0.00     0.170 HD
ENDROOT
BRANCH   1   7
HETATM    7  C   UNL     1      43.235 -17.208   1.548  1.00  0.00     0.167 C 
BRANCH   7   8
HETATM    8  C   UNL     1      43.691 -18.338   2.433  1.00  0.00     0.013 A 
HETATM    9  C   UNL     1      43.882 -18.139   3.802  1.00  0.00     0.172 A 
HETATM   10  N   UNL     1      44.326 -19.094   4.654  1.00  0.00    -0.237 NA
HETATM   11  C   UNL     1      44.622 -20.297   4.121  1.00  0.00     0.119 A 
HETATM   12  C   UNL     1      44.501 -20.593   2.777  1.00  0.00     0.020 A 
HETATM   13  C   UNL     1      44.036 -19.596   1.923  1.00  0.00     0.014 A 
BRANCH   9  14
HETATM   14  O   UNL     1      43.601 -16.882   4.303  1.00  0.00    -0.334 OA
BRANCH  14  15
HETATM   15  C   UNL     1      43.020 -16.899   5.607  1.00  0.00     0.173 C 
HETATM   16  C   UNL     1      41.546 -17.229   5.454  1.00  0.00     0.034 C 
ENDBRANCH  14  15
ENDBRANCH   9  14
ENDBRANCH   7   8
ENDBRANCH   1   7
BRANCH   3  17
HETATM   17  C   UNL     1      39.465 -15.055   2.380  1.00  0.00     0.037 A 
HETATM   18  C   UNL     1      39.875 -14.543   3.610  1.00  0.00     0.049 A 
HETATM   19  C   UNL     1      39.647 -13.197   3.936  1.00  0.00     0.019 A 
HETATM   20 BR   UNL     1      40.208 -12.611   5.656  1.00  0.00    -0.051 Br
HETATM   21  C   UNL     1      39.035 -12.327   3.022  1.00  0.00    -0.044 A 
HETATM   22  C   UNL     1      38.768 -10.881   3.329  1.00  0.00     0.049 C 
HETATM   23  C   UNL     1      38.637 -12.845   1.783  1.00  0.00     0.010 A 
HETATM   24  C   UNL     1      38.855 -14.188   1.465  1.00  0.00     0.030 A 
ENDBRANCH   3  17
TORSDOF 5
ENDMDL
MODEL 7
REMARK VINA RESULT:      -6.7      5.341      7.126
REMARK  5 active torsions:
REMARK  status: ('A' for Active; 'I' for Inactive)
REMARK    1  A    between atoms: C_2  and  O_3 
REMARK    2  A    between atoms: O_3  and  C_4 
REMARK    3  A    between atoms: C_9  and  C_10 
REMARK    4  A    between atoms: C_10  and  N_11 
REMARK       I    between atoms: N_11  and  C_12 
REMARK       I    between atoms: C_12  and  N_13 
REMARK    5  A    between atoms: N_13  and  C_14 
ROOT
HETATM    1  N   UNL     1      44.821 -12.678   8.951  1.00  0.00    -0.338 N 
HETATM    2  C   UNL     1      45.659 -12.918   7.912  1.00  0.00     0.320 C 
HETATM    3  N   UNL     1      45.336 -13.922   7.054  1.00  0.00    -0.309 N 
HETATM    4  O   UNL     1      46.708 -12.301   7.741  1.00  0.00    -0.247 OA
HETATM    5  H   UNL     1      44.307 -13.474   9.301  1.00  0.00     0.164 HD
HETATM    6  H   UNL     1      46.118 -14.129   6.442  1.00  0.00     0.170 HD
ENDROOT
BRANCH   1   7
HETATM    7  C   UNL     1      45.023 -11.574   9.870  1.00  0.00     0.167 C 
BRANCH   7   8
HETATM    8  C   UNL     1      43.781 -11.155  10.610  1.00  0.00     0.013 A 
HETATM    9  C   UNL     1      42.747 -10.488   9.948  1.00  0.00     0.172 A 
HETATM   10  N   UNL     1      41.618 -10.048  10.552  1.00  0.00    -0.237 NA
HETATM   11  C   UNL     1      41.518 -10.251  11.882  1.00  0.00     0.119 A 
HETATM   12  C   UNL     1      42.494 -10.870  12.640  1.00  0.00     0.020 A 
HETATM   13  C   UNL     1      43.642 -11.320  11.994  1.00  0.00     0.014 A 
BRANCH   9  14
HETATM   14  O   UNL     1      42.904 -10.268   8.593  1.00  0.00    -0.334 OA
BRANCH  14  15
HETATM   15  C   UNL     1      41.687  -9.946   7.918  1.00  0.00     0.173 C 
HETATM   16  C   UNL     1      41.338 -11.114   7.012  1.00  0.00     0.034 C 
ENDBRANCH  14  15
ENDBRANCH   9  14
ENDBRANCH   7   8
ENDBRANCH   1   7
BRANCH   3  17
HETATM   17  C   UNL     1      44.134 -14.599   6.772  1.00  0.00     0.037 A 
HETATM   18  C   UNL     1      43.123 -14.115   5.942  1.00  0.00     0.049 A 
HETATM   19  C   UNL     1      41.971 -14.878   5.701  1.00  0.00     0.019 A 
HETATM   20 BR   UNL     1      40.635 -14.108   4.588  1.00  0.00    -0.051 Br
HETATM   21  C   UNL     1      41.822 -16.158   6.256  1.00  0.00    -0.044 A 
HETATM   22  C   UNL     1      40.605 -17.009   6.028  1.00  0.00     0.049 C 
HETATM   23  C   UNL     1      42.847 -16.643   7.079  1.00  0.00     0.010 A 
HETATM   24  C   UNL     1      43.989 -15.876   7.327  1.00  0.00     0.030 A 
ENDBRANCH   3  17
TORSDOF 5
ENDMDL
MODEL 8
REMARK VINA RESULT:      -6.7      5.747      7.682
REMARK  5 active torsions:
REMARK  status: ('A' for Active; 'I' for Inactive)
REMARK    1  A    between atoms: C_2  and  O_3 
REMARK    2  A    between atoms: O_3  and  C_4 
REMARK    3  A    between atoms: C_9  and  C_10 
REMARK    4  A    between atoms: C_10  and  N_11 
REMARK       I    between atoms: N_11  and  C_12 
REMARK       I    between atoms: C_12  and  N_13 
REMARK    5  A    between atoms: N_13  and  C_14 
ROOT
HETATM    1  N   UNL     1      44.222 -12.805   9.264  1.00  0.00    -0.338 N 
HETATM    2  C   UNL     1      45.234 -12.773   8.361  1.00  0.00     0.320 C 
HETATM    3  N   UNL     1      45.212 -13.681   7.349  1.00  0.00    -0.309 N 
HETATM    4  O   UNL     1      46.182 -11.995   8.444  1.00  0.00    -0.247 OA
HETATM    5  H   UNL     1      43.799 -13.707   9.426  1.00  0.00     0.164 HD
HETATM    6  H   UNL     1      46.100 -13.686   6.859  1.00  0.00     0.170 HD
ENDROOT
BRANCH   1   7
HETATM    7  C   UNL     1      44.102 -11.825  10.326  1.00  0.00     0.167 C 
BRANCH   7   8
HETATM    8  C   UNL     1      42.849 -10.993  10.255  1.00  0.00     0.013 A 
HETATM    9  C   UNL     1      42.058 -10.796  11.389  1.00  0.00     0.172 A 
HETATM   10  N   UNL     1      40.900 -10.094  11.395  1.00  0.00    -0.237 NA
HETATM   11  C   UNL     1      40.489  -9.584  10.216  1.00  0.00     0.119 A 
HETATM   12  C   UNL     1      41.177  -9.745   9.028  1.00  0.00     0.020 A 
HETATM   13  C   UNL     1      42.368 -10.465   9.050  1.00  0.00     0.014 A 
BRANCH   9  14
HETATM   14  O   UNL     1      42.495 -11.365  12.570  1.00  0.00    -0.334 OA
BRANCH  14  15
HETATM   15  C   UNL     1      42.288 -10.540  13.717  1.00  0.00     0.173 C 
HETATM   16  C   UNL     1      43.366  -9.471  13.720  1.00  0.00     0.034 C 
ENDBRANCH  14  15
ENDBRANCH   9  14
ENDBRANCH   7   8
ENDBRANCH   1   7
BRANCH   3  17
HETATM   17  C   UNL     1      44.192 -14.474   6.789  1.00  0.00     0.037 A 
HETATM   18  C   UNL     1      43.156 -13.993   5.990  1.00  0.00     0.049 A 
HETATM   19  C   UNL     1      42.200 -14.869   5.455  1.00  0.00     0.019 A 
HETATM   20 BR   UNL     1      40.805 -14.105   4.413  1.00  0.00    -0.051 Br
HETATM   21  C   UNL     1      42.282 -16.252   5.679  1.00  0.00    -0.044 A 
HETATM   22  C   UNL     1      41.281 -17.227   5.129  1.00  0.00     0.049 C 
HETATM   23  C   UNL     1      43.333 -16.730   6.473  1.00  0.00     0.010 A 
HETATM   24  C   UNL     1      44.278 -15.853   7.014  1.00  0.00     0.030 A 
ENDBRANCH   3  17
TORSDOF 5
ENDMDL
MODEL 9
REMARK VINA RESULT:      -6.7      2.613      3.514
REMARK  5 active torsions:
REMARK  status: ('A' for Active; 'I' for Inactive)
REMARK    1  A    between atoms: C_2  and  O_3 
REMARK    2  A    between atoms: O_3  and  C_4 
REMARK    3  A    between atoms: C_9  and  C_10 
REMARK    4  A    between atoms: C_10  and  N_11 
REMARK       I    between atoms: N_11  and  C_12 
REMARK       I    between atoms: C_12  and  N_13 
REMARK    5  A    between atoms: N_13  and  C_14 
ROOT
HETATM    1  N   UNL     1      41.112 -16.897   2.094  1.00  0.00    -0.338 N 
HETATM    2  C   UNL     1      41.945 -17.007   1.030  1.00  0.00     0.320 C 
HETATM    3  N   UNL     1      43.140 -17.629   1.219  1.00  0.00    -0.309 N 
HETATM    4  O   UNL     1      41.687 -16.534  -0.075  1.00  0.00    -0.247 OA
HETATM    5  H   UNL     1      41.553 -16.843   3.001  1.00  0.00     0.164 HD
HETATM    6  H   UNL     1      43.744 -17.483   0.418  1.00  0.00     0.170 HD
ENDROOT
BRANCH   1   7
HETATM    7  C   UNL     1      39.779 -16.335   1.980  1.00  0.00     0.167 C 
BRANCH   7   8
HETATM    8  C   UNL     1      39.639 -14.962   2.582  1.00  0.00     0.013 A 
HETATM    9  C   UNL     1      39.047 -13.924   1.859  1.00  0.00     0.172 A 
HETATM   10  N   UNL     1      38.919 -12.656   2.317  1.00  0.00    -0.237 NA
HETATM   11  C   UNL     1      39.427 -12.394   3.539  1.00  0.00     0.119 A 
HETATM   12  C   UNL     1      40.061 -13.337   4.325  1.00  0.00     0.020 A 
HETATM   13  C   UNL     1      40.173 -14.636   3.835  1.00  0.00     0.014 A 
BRANCH   9  14
HETATM   14  O   UNL     1      38.571 -14.224   0.597  1.00  0.00    -0.334 OA
BRANCH  14  15
HETATM   15  C   UNL     1      39.339 -13.648  -0.460  1.00  0.00     0.173 C 
HETATM   16  C   UNL     1      38.644 -13.978  -1.770  1.00  0.00     0.034 C 
ENDBRANCH  14  15
ENDBRANCH   9  14
ENDBRANCH   7   8
ENDBRANCH   1   7
BRANCH   3  17
HETATM   17  C   UNL     1      43.620 -18.512   2.204  1.00  0.00     0.037 A 
HETATM   18  C   UNL     1      43.941 -18.149   3.512  1.00  0.00     0.049 A 
HETATM   19  C   UNL     1      44.387 -19.110   4.431  1.00  0.00     0.019 A 
HETATM   20 BR   UNL     1      44.839 -18.502   6.175  1.00  0.00    -0.051 Br
HETATM   21  C   UNL     1      44.487 -20.462   4.071  1.00  0.00    -0.044 A 
HETATM   22  C   UNL     1      44.961 -21.525   5.021  1.00  0.00     0.049 C 
HETATM   23  C   UNL     1      44.150 -20.822   2.760  1.00  0.00     0.010 A 
HETATM   24  C   UNL     1      43.716 -19.861   1.843  1.00  0.00     0.030 A 
ENDBRANCH   3  17
TORSDOF 5
ENDMDL
MODEL 10
REMARK VINA RESULT:      -6.7      3.692      4.948
REMARK  5 active torsions:
REMARK  status: ('A' for Active; 'I' for Inactive)
REMARK    1  A    between atoms: C_2  and  O_3 
REMARK    2  A    between atoms: O_3  and  C_4 
REMARK    3  A    between atoms: C_9  and  C_10 
REMARK    4  A    between atoms: C_10  and  N_11 
REMARK       I    between atoms: N_11  and  C_12 
REMARK       I    between atoms: C_12  and  N_13 
REMARK    5  A    between atoms: N_13  and  C_14 
ROOT
HETATM    1  N   UNL     1      41.823 -14.869   1.808  1.00  0.00    -0.338 N 
HETATM    2  C   UNL     1      42.866 -14.490   2.586  1.00  0.00     0.320 C 
HETATM    3  N   UNL     1      43.573 -15.463   3.221  1.00  0.00    -0.309 N 
HETATM    4  O   UNL     1      43.170 -13.314   2.774  1.00  0.00    -0.247 OA
HETATM    5  H   UNL     1      41.348 -15.717   2.082  1.00  0.00     0.164 HD
HETATM    6  H   UNL     1      44.194 -15.056   3.911  1.00  0.00     0.170 HD
ENDROOT
BRANCH   1   7
HETATM    7  C   UNL     1      41.063 -13.920   1.016  1.00  0.00     0.167 C 
BRANCH   7   8
HETATM    8  C   UNL     1      41.349 -13.984  -0.461  1.00  0.00     0.013 A 
HETATM    9  C   UNL     1      42.129 -13.005  -1.080  1.00  0.00     0.172 A 
HETATM   10  N   UNL     1      42.398 -12.974  -2.406  1.00  0.00    -0.237 NA
HETATM   11  C   UNL     1      41.846 -13.943  -3.164  1.00  0.00     0.119 A 
HETATM   12  C   UNL     1      41.033 -14.942  -2.662  1.00  0.00     0.020 A 
HETATM   13  C   UNL     1      40.777 -14.956  -1.293  1.00  0.00     0.014 A 
BRANCH   9  14
HETATM   14  O   UNL     1      42.647 -12.009  -0.274  1.00  0.00    -0.334 OA
BRANCH  14  15
HETATM   15  C   UNL     1      42.297 -10.689  -0.693  1.00  0.00     0.173 C 
HETATM   16  C   UNL     1      43.584  -9.950  -1.016  1.00  0.00     0.034 C 
ENDBRANCH  14  15
ENDBRANCH   9  14
ENDBRANCH   7   8
ENDBRANCH   1   7
BRANCH   3  17
HETATM   17  C   UNL     1      43.702 -16.850   3.013  1.00  0.00     0.037 A 
HETATM   18  C   UNL     1      43.954 -17.786   4.016  1.00  0.00     0.049 A 
HETATM   19  C   UNL     1      44.039 -19.153   3.713  1.00  0.00     0.019 A 
HETATM   20 BR   UNL     1      44.428 -20.340   5.146  1.00  0.00    -0.051 Br
HETATM   21  C   UNL     1      43.837 -19.616   2.404  1.00  0.00    -0.044 A 
HETATM   22  C   UNL     1      43.921 -21.069   2.032  1.00  0.00     0.049 C 
HETATM   23  C   UNL     1      43.572 -18.672   1.404  1.00  0.00     0.010 A 
HETATM   24  C   UNL     1      43.499 -17.309   1.707  1.00  0.00     0.030 A 
ENDBRANCH   3  17
TORSDOF 5
ENDMDL
