MODEL 1
REMARK VINA RESULT:      -8.9      0.000      0.000
REMARK  7 active torsions:
REMARK  status: ('A' for Active; 'I' for Inactive)
REMARK    1  A    between atoms: O_2  and  C_3 
REMARK    2  A    between atoms: C_3  and  C_4 
REMARK    3  A    between atoms: C_4  and  N_5 
REMARK    4  A    between atoms: C_4  and  C_21 
REMARK    5  A    between atoms: N_5  and  C_6 
REMARK    6  A    between atoms: C_21  and  C_22 
REMARK    7  A    between atoms: C_25  and  O_26 
ROOT
HETATM    1  N   UNL     1      43.441 -16.448   2.963  1.00  0.00    -0.277 NA
HETATM    2  H   UNL     1      43.485 -15.705   2.256  1.00  0.00     0.128 HD
ENDROOT
BRANCH   1   3
HETATM    3  C   UNL     1      42.600 -17.569   2.453  1.00  0.00     0.164 C 
BRANCH   3   4
HETATM    4  C   UNL     1      41.444 -17.042   1.580  1.00  0.00     0.276 C 
HETATM    5  O   UNL     1      40.276 -17.005   1.940  1.00  0.00    -0.263 OA
BRANCH   4   6
HETATM    6  O   UNL     1      41.904 -16.612   0.366  1.00  0.00    -0.325 OA
HETATM    7  C   UNL     1      41.317 -15.389  -0.087  1.00  0.00     0.213 C 
ENDBRANCH   4   6
ENDBRANCH   3   4
BRANCH   3   8
HETATM    8  C   UNL     1      43.423 -18.482   1.523  1.00  0.00     0.068 C 
BRANCH   8   9
HETATM    9  C   UNL     1      43.862 -19.799   2.118  1.00  0.00    -0.056 A 
HETATM   10  C   UNL     1      44.588 -19.846   3.317  1.00  0.00     0.010 A 
HETATM   11  C   UNL     1      44.938 -21.072   3.888  1.00  0.00     0.037 A 
HETATM   12  C   UNL     1      44.560 -22.253   3.259  1.00  0.00     0.065 A 
HETATM   13  C   UNL     1      43.840 -22.228   2.073  1.00  0.00     0.037 A 
HETATM   14  C   UNL     1      43.484 -21.004   1.507  1.00  0.00     0.010 A 
BRANCH  12  15
HETATM   15  O   UNL     1      44.871 -23.472   3.784  1.00  0.00    -0.361 OA
HETATM   16  H   UNL     1      44.080 -24.036   3.755  1.00  0.00     0.217 HD
ENDBRANCH  12  15
ENDBRANCH   8   9
ENDBRANCH   3   8
ENDBRANCH   1   3
BRANCH   1  17
HETATM   17  C   UNL     1      43.329 -15.898   4.254  1.00  0.00     0.034 A 
HETATM   18  C   UNL     1      42.740 -14.598   4.323  1.00  0.00     0.013 A 
HETATM   19  C   UNL     1      42.424 -14.047   5.579  1.00  0.00     0.044 A 
HETATM   20  C   UNL     1      42.454 -13.802   3.191  1.00  0.00     0.015 A 
HETATM   21  C   UNL     1      41.839 -12.774   5.695  1.00  0.00     0.030 A 
HETATM   22  N   UNL     1      42.670 -14.759   6.685  1.00  0.00    -0.355 N 
HETATM   23  C   UNL     1      41.569 -12.019   4.557  1.00  0.00     0.002 A 
HETATM   24  C   UNL     1      41.882 -12.531   3.306  1.00  0.00     0.001 A 
HETATM   25  H   UNL     1      42.422 -14.341   7.578  1.00  0.00     0.166 HD
HETATM   26  C   UNL     1      43.199 -15.990   6.693  1.00  0.00     0.044 A 
HETATM   27  C   UNL     1      43.552 -16.618   5.474  1.00  0.00     0.013 A 
HETATM   28  C   UNL     1      43.362 -16.632   7.938  1.00  0.00     0.030 A 
HETATM   29  C   UNL     1      44.076 -17.930   5.602  1.00  0.00     0.015 A 
HETATM   30  C   UNL     1      44.245 -18.563   6.839  1.00  0.00     0.001 A 
HETATM   31  C   UNL     1      43.885 -17.917   8.009  1.00  0.00     0.002 A 
ENDBRANCH   1  17
TORSDOF 7
ENDMDL
MODEL 2
REMARK VINA RESULT:      -8.7      1.924      5.912
REMARK  7 active torsions:
REMARK  status: ('A' for Active; 'I' for Inactive)
REMARK    1  A    between atoms: O_2  and  C_3 
REMARK    2  A    between atoms: C_3  and  C_4 
REMARK    3  A    between atoms: C_4  and  N_5 
REMARK    4  A    between atoms: C_4  and  C_21 
REMARK    5  A    between atoms: N_5  and  C_6 
REMARK    6  A    between atoms: C_21  and  C_22 
REMARK    7  A    between atoms: C_25  and  O_26 
ROOT
HETATM    1  N   UNL     1      42.471 -17.197   3.483  1.00  0.00    -0.277 NA
HETATM    2  H   UNL     1      41.512 -17.526   3.327  1.00  0.00     0.128 HD
ENDROOT
BRANCH   1   3
HETATM    3  C   UNL     1      42.932 -16.428   2.292  1.00  0.00     0.164 C 
BRANCH   3   4
HETATM    4  C   UNL     1      41.941 -16.577   1.119  1.00  0.00     0.276 C 
HETATM    5  O   UNL     1      41.128 -17.484   1.021  1.00  0.00    -0.263 OA
BRANCH   4   6
HETATM    6  O   UNL     1      42.089 -15.555   0.222  1.00  0.00    -0.325 OA
HETATM    7  C   UNL     1      40.870 -15.131  -0.393  1.00  0.00     0.213 C 
ENDBRANCH   4   6
ENDBRANCH   3   4
BRANCH   3   8
HETATM    8  C   UNL     1      42.964 -14.919   2.602  1.00  0.00     0.068 C 
BRANCH   8   9
HETATM    9  C   UNL     1      42.057 -14.459   3.719  1.00  0.00    -0.056 A 
HETATM   10  C   UNL     1      40.702 -14.820   3.745  1.00  0.00     0.010 A 
HETATM   11  C   UNL     1      39.886 -14.438   4.813  1.00  0.00     0.037 A 
HETATM   12  C   UNL     1      40.427 -13.695   5.857  1.00  0.00     0.065 A 
HETATM   13  C   UNL     1      41.766 -13.330   5.850  1.00  0.00     0.037 A 
HETATM   14  C   UNL     1      42.583 -13.718   4.788  1.00  0.00     0.010 A 
BRANCH  12  15
HETATM   15  O   UNL     1      39.672 -13.308   6.924  1.00  0.00    -0.361 OA
HETATM   16  H   UNL     1      39.351 -12.404   6.769  1.00  0.00     0.217 HD
ENDBRANCH  12  15
ENDBRANCH   8   9
ENDBRANCH   3   8
ENDBRANCH   1   3
BRANCH   1  17
HETATM   17  C   UNL     1      43.235 -18.185   4.131  1.00  0.00     0.034 A 
HETATM   18  C   UNL     1      43.397 -18.015   5.541  1.00  0.00     0.013 A 
HETATM   19  C   UNL     1      43.989 -19.044   6.299  1.00  0.00     0.044 A 
HETATM   20  C   UNL     1      43.003 -16.855   6.245  1.00  0.00     0.015 A 
HETATM   21  C   UNL     1      44.165 -18.922   7.688  1.00  0.00     0.030 A 
HETATM   22  N   UNL     1      44.377 -20.167   5.684  1.00  0.00    -0.355 N 
HETATM   23  C   UNL     1      43.762 -17.765   8.349  1.00  0.00     0.002 A 
HETATM   24  C   UNL     1      43.187 -16.730   7.626  1.00  0.00     0.001 A 
HETATM   25  H   UNL     1      44.793 -20.897   6.257  1.00  0.00     0.166 HD
HETATM   26  C   UNL     1      44.237 -20.402   4.372  1.00  0.00     0.044 A 
HETATM   27  C   UNL     1      43.656 -19.419   3.534  1.00  0.00     0.013 A 
HETATM   28  C   UNL     1      44.658 -21.652   3.875  1.00  0.00     0.030 A 
HETATM   29  C   UNL     1      43.531 -19.788   2.170  1.00  0.00     0.015 A 
HETATM   30  C   UNL     1      43.958 -21.027   1.677  1.00  0.00     0.001 A 
HETATM   31  C   UNL     1      44.518 -21.963   2.528  1.00  0.00     0.002 A 
ENDBRANCH   1  17
TORSDOF 7
ENDMDL
MODEL 3
REMARK VINA RESULT:      -8.5      2.729      5.487
REMARK  7 active torsions:
REMARK  status: ('A' for Active; 'I' for Inactive)
REMARK    1  A    between atoms: O_2  and  C_3 
REMARK    2  A    between atoms: C_3  and  C_4 
REMARK    3  A    between atoms: C_4  and  N_5 
REMARK    4  A    between atoms: C_4  and  C_21 
REMARK    5  A    between atoms: N_5  and  C_6 
REMARK    6  A    between atoms: C_21  and  C_22 
REMARK    7  A    between atoms: C_25  and  O_26 
ROOT
HETATM    1  N   UNL     1      40.035 -15.536   3.574  1.00  0.00    -0.277 NA
HETATM    2  H   UNL     1      39.080 -15.212   3.381  1.00  0.00     0.128 HD
ENDROOT
BRANCH   1   3
HETATM    3  C   UNL     1      40.658 -14.658   4.605  1.00  0.00     0.164 C 
BRANCH   3   4
HETATM    4  C   UNL     1      39.837 -13.368   4.804  1.00  0.00     0.276 C 
HETATM    5  O   UNL     1      39.081 -13.176   5.746  1.00  0.00    -0.263 OA
BRANCH   4   6
HETATM    6  O   UNL     1      40.080 -12.473   3.798  1.00  0.00    -0.325 OA
HETATM    7  C   UNL     1      41.465 -12.191   3.584  1.00  0.00     0.213 C 
ENDBRANCH   4   6
ENDBRANCH   3   4
BRANCH   3   8
HETATM    8  C   UNL     1      40.655 -15.353   5.980  1.00  0.00     0.068 C 
BRANCH   8   9
HETATM    9  C   UNL     1      41.930 -16.074   6.353  1.00  0.00    -0.056 A 
HETATM   10  C   UNL     1      41.897 -17.369   6.891  1.00  0.00     0.010 A 
HETATM   11  C   UNL     1      43.084 -18.048   7.178  1.00  0.00     0.037 A 
HETATM   12  C   UNL     1      44.304 -17.432   6.924  1.00  0.00     0.065 A 
HETATM   13  C   UNL     1      44.357 -16.152   6.391  1.00  0.00     0.037 A 
HETATM   14  C   UNL     1      43.173 -15.477   6.097  1.00  0.00     0.010 A 
BRANCH  12  15
HETATM   15  O   UNL     1      45.487 -18.060   7.179  1.00  0.00    -0.361 OA
HETATM   16  H   UNL     1      45.303 -18.918   7.597  1.00  0.00     0.217 HD
ENDBRANCH  12  15
ENDBRANCH   8   9
ENDBRANCH   3   8
ENDBRANCH   1   3
BRANCH   1  17
HETATM   17  C   UNL     1      40.672 -15.937   2.385  1.00  0.00     0.034 A 
HETATM   18  C   UNL     1      40.296 -15.217   1.209  1.00  0.00     0.013 A 
HETATM   19  C   UNL     1      41.008 -15.425   0.012  1.00  0.00     0.044 A 
HETATM   20  C   UNL     1      39.226 -14.295   1.159  1.00  0.00     0.015 A 
HETATM   21  C   UNL     1      40.676 -14.736  -1.167  1.00  0.00     0.030 A 
HETATM   22  N   UNL     1      42.034 -16.284   0.004  1.00  0.00    -0.355 N 
HETATM   23  C   UNL     1      39.617 -13.833  -1.179  1.00  0.00     0.002 A 
HETATM   24  C   UNL     1      38.889 -13.617  -0.017  1.00  0.00     0.001 A 
HETATM   25  H   UNL     1      42.537 -16.406  -0.871  1.00  0.00     0.166 HD
HETATM   26  C   UNL     1      42.454 -16.975   1.072  1.00  0.00     0.044 A 
HETATM   27  C   UNL     1      41.791 -16.830   2.316  1.00  0.00     0.013 A 
HETATM   28  C   UNL     1      43.577 -17.814   0.918  1.00  0.00     0.030 A 
HETATM   29  C   UNL     1      42.340 -17.588   3.382  1.00  0.00     0.015 A 
HETATM   30  C   UNL     1      43.451 -18.427   3.225  1.00  0.00     0.001 A 
HETATM   31  C   UNL     1      44.073 -18.539   1.994  1.00  0.00     0.002 A 
ENDBRANCH   1  17
TORSDOF 7
ENDMDL
MODEL 4
REMARK VINA RESULT:      -8.4      2.043      6.280
REMARK  7 active torsions:
REMARK  status: ('A' for Active; 'I' for Inactive)
REMARK    1  A    between atoms: O_2  and  C_3 
REMARK    2  A    between atoms: C_3  and  C_4 
REMARK    3  A    between atoms: C_4  and  N_5 
REMARK    4  A    between atoms: C_4  and  C_21 
REMARK    5  A    between atoms: N_5  and  C_6 
REMARK    6  A    between atoms: C_21  and  C_22 
REMARK    7  A    between atoms: C_25  and  O_26 
ROOT
HETATM    1  N   UNL     1      43.599 -16.990   3.008  1.00  0.00    -0.277 NA
HETATM    2  H   UNL     1      44.325 -16.284   3.175  1.00  0.00     0.128 HD
ENDROOT
BRANCH   1   3
HETATM    3  C   UNL     1      42.343 -16.317   2.569  1.00  0.00     0.164 C 
BRANCH   3   4
HETATM    4  C   UNL     1      41.758 -16.997   1.314  1.00  0.00     0.276 C 
HETATM    5  O   UNL     1      41.016 -17.967   1.345  1.00  0.00    -0.263 OA
BRANCH   4   6
HETATM    6  O   UNL     1      42.171 -16.360   0.176  1.00  0.00    -0.325 OA
HETATM    7  C   UNL     1      41.307 -15.305  -0.253  1.00  0.00     0.213 C 
ENDBRANCH   4   6
ENDBRANCH   3   4
BRANCH   3   8
HETATM    8  C   UNL     1      41.251 -16.454   3.648  1.00  0.00     0.068 C 
BRANCH   8   9
HETATM    9  C   UNL     1      40.641 -15.160   4.132  1.00  0.00    -0.056 A 
HETATM   10  C   UNL     1      40.244 -14.164   3.228  1.00  0.00     0.010 A 
HETATM   11  C   UNL     1      39.628 -12.996   3.684  1.00  0.00     0.037 A 
HETATM   12  C   UNL     1      39.407 -12.825   5.047  1.00  0.00     0.065 A 
HETATM   13  C   UNL     1      39.792 -13.800   5.957  1.00  0.00     0.037 A 
HETATM   14  C   UNL     1      40.399 -14.969   5.501  1.00  0.00     0.010 A 
BRANCH  12  15
HETATM   15  O   UNL     1      38.801 -11.706   5.536  1.00  0.00    -0.361 OA
HETATM   16  H   UNL     1      38.193 -11.966   6.248  1.00  0.00     0.217 HD
ENDBRANCH  12  15
ENDBRANCH   8   9
ENDBRANCH   3   8
ENDBRANCH   1   3
BRANCH   1  17
HETATM   17  C   UNL     1      43.655 -18.000   3.986  1.00  0.00     0.034 A 
HETATM   18  C   UNL     1      43.915 -19.319   3.499  1.00  0.00     0.013 A 
HETATM   19  C   UNL     1      44.167 -20.358   4.415  1.00  0.00     0.044 A 
HETATM   20  C   UNL     1      43.927 -19.664   2.129  1.00  0.00     0.015 A 
HETATM   21  C   UNL     1      44.431 -21.668   3.982  1.00  0.00     0.030 A 
HETATM   22  N   UNL     1      44.172 -20.086   5.725  1.00  0.00    -0.355 N 
HETATM   23  C   UNL     1      44.438 -21.972   2.623  1.00  0.00     0.002 A 
HETATM   24  C   UNL     1      44.180 -20.970   1.698  1.00  0.00     0.001 A 
HETATM   25  H   UNL     1      44.367 -20.853   6.363  1.00  0.00     0.166 HD
HETATM   26  C   UNL     1      43.958 -18.872   6.250  1.00  0.00     0.044 A 
HETATM   27  C   UNL     1      43.692 -17.770   5.400  1.00  0.00     0.013 A 
HETATM   28  C   UNL     1      44.035 -18.733   7.651  1.00  0.00     0.030 A 
HETATM   29  C   UNL     1      43.510 -16.529   6.063  1.00  0.00     0.015 A 
HETATM   30  C   UNL     1      43.579 -16.395   7.456  1.00  0.00     0.001 A 
HETATM   31  C   UNL     1      43.845 -17.495   8.251  1.00  0.00     0.002 A 
ENDBRANCH   1  17
TORSDOF 7
ENDMDL
MODEL 5
REMARK VINA RESULT:      -8.3      2.427      4.799
REMARK  7 active torsions:
REMARK  status: ('A' for Active; 'I' for Inactive)
REMARK    1  A    between atoms: O_2  and  C_3 
REMARK    2  A    between atoms: C_3  and  C_4 
REMARK    3  A    between atoms: C_4  and  N_5 
REMARK    4  A    between atoms: C_4  and  C_21 
REMARK    5  A    between atoms: N_5  and  C_6 
REMARK    6  A    between atoms: C_21  and  C_22 
REMARK    7  A    between atoms: C_25  and  O_26 
ROOT
HETATM    1  N   UNL     1      41.426 -16.292   4.065  1.00  0.00    -0.277 NA
HETATM    2  H   UNL     1      41.024 -16.317   5.009  1.00  0.00     0.128 HD
ENDROOT
BRANCH   1   3
HETATM    3  C   UNL     1      42.909 -16.402   4.154  1.00  0.00     0.164 C 
BRANCH   3   4
HETATM    4  C   UNL     1      43.503 -15.245   4.984  1.00  0.00     0.276 C 
HETATM    5  O   UNL     1      43.766 -14.141   4.530  1.00  0.00    -0.263 OA
BRANCH   4   6
HETATM    6  O   UNL     1      43.677 -15.619   6.288  1.00  0.00    -0.325 OA
HETATM    7  C   UNL     1      44.442 -14.696   7.068  1.00  0.00     0.213 C 
ENDBRANCH   4   6
ENDBRANCH   3   4
BRANCH   3   8
HETATM    8  C   UNL     1      43.312 -17.685   4.907  1.00  0.00     0.068 C 
BRANCH   8   9
HETATM    9  C   UNL     1      43.660 -18.872   4.039  1.00  0.00    -0.056 A 
HETATM   10  C   UNL     1      44.432 -19.931   4.538  1.00  0.00     0.010 A 
HETATM   11  C   UNL     1      44.699 -21.050   3.746  1.00  0.00     0.037 A 
HETATM   12  C   UNL     1      44.191 -21.111   2.453  1.00  0.00     0.065 A 
HETATM   13  C   UNL     1      43.423 -20.074   1.941  1.00  0.00     0.037 A 
HETATM   14  C   UNL     1      43.150 -18.960   2.735  1.00  0.00     0.010 A 
BRANCH  12  15
HETATM   15  O   UNL     1      44.417 -22.187   1.647  1.00  0.00    -0.361 OA
HETATM   16  H   UNL     1      44.774 -21.873   0.799  1.00  0.00     0.217 HD
ENDBRANCH  12  15
ENDBRANCH   8   9
ENDBRANCH   3   8
ENDBRANCH   1   3
BRANCH   1  17
HETATM   17  C   UNL     1      40.748 -15.355   3.263  1.00  0.00     0.034 A 
HETATM   18  C   UNL     1      40.168 -14.249   3.959  1.00  0.00     0.013 A 
HETATM   19  C   UNL     1      39.630 -13.174   3.226  1.00  0.00     0.044 A 
HETATM   20  C   UNL     1      40.089 -14.160   5.367  1.00  0.00     0.015 A 
HETATM   21  C   UNL     1      39.055 -12.064   3.868  1.00  0.00     0.030 A 
HETATM   22  N   UNL     1      39.683 -13.205   1.890  1.00  0.00    -0.355 N 
HETATM   23  C   UNL     1      38.995 -12.009   5.258  1.00  0.00     0.002 A 
HETATM   24  C   UNL     1      39.507 -13.060   6.006  1.00  0.00     0.001 A 
HETATM   25  H   UNL     1      39.295 -12.411   1.386  1.00  0.00     0.166 HD
HETATM   26  C   UNL     1      40.228 -14.197   1.173  1.00  0.00     0.044 A 
HETATM   27  C   UNL     1      40.789 -15.320   1.830  1.00  0.00     0.013 A 
HETATM   28  C   UNL     1      40.246 -14.069  -0.231  1.00  0.00     0.030 A 
HETATM   29  C   UNL     1      41.364 -16.294   0.974  1.00  0.00     0.015 A 
HETATM   30  C   UNL     1      41.373 -16.168  -0.421  1.00  0.00     0.001 A 
HETATM   31  C   UNL     1      40.818 -15.054  -1.026  1.00  0.00     0.002 A 
ENDBRANCH   1  17
TORSDOF 7
ENDMDL
MODEL 6
REMARK VINA RESULT:      -8.2      2.484      6.686
REMARK  7 active torsions:
REMARK  status: ('A' for Active; 'I' for Inactive)
REMARK    1  A    between atoms: O_2  and  C_3 
REMARK    2  A    between atoms: C_3  and  C_4 
REMARK    3  A    between atoms: C_4  and  N_5 
REMARK    4  A    between atoms: C_4  and  C_21 
REMARK    5  A    between atoms: N_5  and  C_6 
REMARK    6  A    between atoms: C_21  and  C_22 
REMARK    7  A    between atoms: C_25  and  O_26 
ROOT
HETATM    1  N   UNL     1      42.091 -17.510   1.945  1.00  0.00    -0.277 NA
HETATM    2  H   UNL     1      42.593 -17.760   1.085  1.00  0.00     0.128 HD
ENDROOT
BRANCH   1   3
HETATM    3  C   UNL     1      41.539 -16.131   1.813  1.00  0.00     0.164 C 
BRANCH   3   4
HETATM    4  C   UNL     1      41.687 -15.610   0.369  1.00  0.00     0.276 C 
HETATM    5  O   UNL     1      41.331 -16.230  -0.622  1.00  0.00    -0.263 OA
BRANCH   4   6
HETATM    6  O   UNL     1      42.253 -14.365   0.354  1.00  0.00    -0.325 OA
HETATM    7  C   UNL     1      41.583 -13.424  -0.488  1.00  0.00     0.213 C 
ENDBRANCH   4   6
ENDBRANCH   3   4
BRANCH   3   8
HETATM    8  C   UNL     1      40.023 -16.127   2.089  1.00  0.00     0.068 C 
BRANCH   8   9
HETATM    9  C   UNL     1      39.359 -14.770   2.082  1.00  0.00    -0.056 A 
HETATM   10  C   UNL     1      39.790 -13.749   2.940  1.00  0.00     0.010 A 
HETATM   11  C   UNL     1      39.207 -12.480   2.884  1.00  0.00     0.037 A 
HETATM   12  C   UNL     1      38.192 -12.233   1.966  1.00  0.00     0.065 A 
HETATM   13  C   UNL     1      37.753 -13.230   1.106  1.00  0.00     0.037 A 
HETATM   14  C   UNL     1      38.340 -14.494   1.157  1.00  0.00     0.010 A 
BRANCH  12  15
HETATM   15  O   UNL     1      37.601 -11.008   1.868  1.00  0.00    -0.361 OA
HETATM   16  H   UNL     1      36.874 -11.062   1.226  1.00  0.00     0.217 HD
ENDBRANCH  12  15
ENDBRANCH   8   9
ENDBRANCH   3   8
ENDBRANCH   1   3
BRANCH   1  17
HETATM   17  C   UNL     1      42.779 -17.983   3.077  1.00  0.00     0.034 A 
HETATM   18  C   UNL     1      43.358 -19.283   2.951  1.00  0.00     0.013 A 
HETATM   19  C   UNL     1      44.215 -19.761   3.961  1.00  0.00     0.044 A 
HETATM   20  C   UNL     1      43.119 -20.149   1.859  1.00  0.00     0.015 A 
HETATM   21  C   UNL     1      44.810 -21.032   3.876  1.00  0.00     0.030 A 
HETATM   22  N   UNL     1      44.480 -18.981   5.015  1.00  0.00    -0.355 N 
HETATM   23  C   UNL     1      44.553 -21.857   2.785  1.00  0.00     0.002 A 
HETATM   24  C   UNL     1      43.703 -21.417   1.780  1.00  0.00     0.001 A 
HETATM   25  H   UNL     1      45.109 -19.348   5.724  1.00  0.00     0.166 HD
HETATM   26  C   UNL     1      43.990 -17.746   5.188  1.00  0.00     0.044 A 
HETATM   27  C   UNL     1      43.116 -17.188   4.222  1.00  0.00     0.013 A 
HETATM   28  C   UNL     1      44.392 -17.029   6.333  1.00  0.00     0.030 A 
HETATM   29  C   UNL     1      42.683 -15.865   4.495  1.00  0.00     0.015 A 
HETATM   30  C   UNL     1      43.078 -15.157   5.637  1.00  0.00     0.001 A 
HETATM   31  C   UNL     1      43.936 -15.736   6.556  1.00  0.00     0.002 A 
ENDBRANCH   1  17
TORSDOF 7
ENDMDL
MODEL 7
REMARK VINA RESULT:      -8.1      1.525      2.239
REMARK  7 active torsions:
REMARK  status: ('A' for Active; 'I' for Inactive)
REMARK    1  A    between atoms: O_2  and  C_3 
REMARK    2  A    between atoms: C_3  and  C_4 
REMARK    3  A    between atoms: C_4  and  N_5 
REMARK    4  A    between atoms: C_4  and  C_21 
REMARK    5  A    between atoms: N_5  and  C_6 
REMARK    6  A    between atoms: C_21  and  C_22 
REMARK    7  A    between atoms: C_25  and  O_26 
ROOT
HETATM    1  N   UNL     1      41.285 -16.842   3.612  1.00  0.00    -0.277 NA
HETATM    2  H   UNL     1      41.032 -17.441   4.406  1.00  0.00     0.128 HD
ENDROOT
BRANCH   1   3
HETATM    3  C   UNL     1      42.053 -17.638   2.614  1.00  0.00     0.164 C 
BRANCH   3   4
HETATM    4  C   UNL     1      42.287 -16.831   1.321  1.00  0.00     0.276 C 
HETATM    5  O   UNL     1      43.315 -16.218   1.073  1.00  0.00    -0.263 OA
BRANCH   4   6
HETATM    6  O   UNL     1      41.200 -16.907   0.493  1.00  0.00    -0.325 OA
HETATM    7  C   UNL     1      41.208 -15.960  -0.577  1.00  0.00     0.213 C 
ENDBRANCH   4   6
ENDBRANCH   3   4
BRANCH   3   8
HETATM    8  C   UNL     1      43.462 -17.960   3.148  1.00  0.00     0.068 C 
BRANCH   8   9
HETATM    9  C   UNL     1      43.816 -19.427   3.226  1.00  0.00    -0.056 A 
HETATM   10  C   UNL     1      43.591 -20.284   2.139  1.00  0.00     0.010 A 
HETATM   11  C   UNL     1      43.975 -21.626   2.202  1.00  0.00     0.037 A 
HETATM   12  C   UNL     1      44.586 -22.110   3.353  1.00  0.00     0.065 A 
HETATM   13  C   UNL     1      44.818 -21.277   4.439  1.00  0.00     0.037 A 
HETATM   14  C   UNL     1      44.442 -19.936   4.373  1.00  0.00     0.010 A 
BRANCH  12  15
HETATM   15  O   UNL     1      44.986 -23.409   3.456  1.00  0.00    -0.361 OA
HETATM   16  H   UNL     1      45.715 -23.462   4.097  1.00  0.00     0.217 HD
ENDBRANCH  12  15
ENDBRANCH   8   9
ENDBRANCH   3   8
ENDBRANCH   1   3
BRANCH   1  17
HETATM   17  C   UNL     1      41.657 -15.560   4.058  1.00  0.00     0.034 A 
HETATM   18  C   UNL     1      40.843 -14.482   3.591  1.00  0.00     0.013 A 
HETATM   19  C   UNL     1      41.028 -13.192   4.125  1.00  0.00     0.044 A 
HETATM   20  C   UNL     1      39.846 -14.620   2.599  1.00  0.00     0.015 A 
HETATM   21  C   UNL     1      40.248 -12.104   3.700  1.00  0.00     0.030 A 
HETATM   22  N   UNL     1      41.956 -13.005   5.071  1.00  0.00    -0.355 N 
HETATM   23  C   UNL     1      39.273 -12.278   2.722  1.00  0.00     0.002 A 
HETATM   24  C   UNL     1      39.077 -13.535   2.168  1.00  0.00     0.001 A 
HETATM   25  H   UNL     1      42.061 -12.066   5.446  1.00  0.00     0.166 HD
HETATM   26  C   UNL     1      42.738 -13.972   5.570  1.00  0.00     0.044 A 
HETATM   27  C   UNL     1      42.622 -15.298   5.085  1.00  0.00     0.013 A 
HETATM   28  C   UNL     1      43.644 -13.628   6.594  1.00  0.00     0.030 A 
HETATM   29  C   UNL     1      43.479 -16.243   5.706  1.00  0.00     0.015 A 
HETATM   30  C   UNL     1      44.384 -15.898   6.718  1.00  0.00     0.001 A 
HETATM   31  C   UNL     1      44.465 -14.591   7.166  1.00  0.00     0.002 A 
ENDBRANCH   1  17
TORSDOF 7
ENDMDL
MODEL 8
REMARK VINA RESULT:      -8.1      2.532      6.948
REMARK  7 active torsions:
REMARK  status: ('A' for Active; 'I' for Inactive)
REMARK    1  A    between atoms: O_2  and  C_3 
REMARK    2  A    between atoms: C_3  and  C_4 
REMARK    3  A    between atoms: C_4  and  N_5 
REMARK    4  A    between atoms: C_4  and  C_21 
REMARK    5  A    between atoms: N_5  and  C_6 
REMARK    6  A    between atoms: C_21  and  C_22 
REMARK    7  A    between atoms: C_25  and  O_26 
ROOT
HETATM    1  N   UNL     1      43.650 -15.665   4.489  1.00  0.00    -0.277 NA
HETATM    2  H   UNL     1      44.608 -15.881   4.789  1.00  0.00     0.128 HD
ENDROOT
BRANCH   1   3
HETATM    3  C   UNL     1      42.834 -15.277   5.674  1.00  0.00     0.164 C 
BRANCH   3   4
HETATM    4  C   UNL     1      43.428 -15.861   6.972  1.00  0.00     0.276 C 
HETATM    5  O   UNL     1      44.263 -15.292   7.659  1.00  0.00    -0.263 OA
BRANCH   4   6
HETATM    6  O   UNL     1      42.884 -17.085   7.250  1.00  0.00    -0.325 OA
HETATM    7  C   UNL     1      43.692 -17.910   8.093  1.00  0.00     0.213 C 
ENDBRANCH   4   6
ENDBRANCH   3   4
BRANCH   3   8
HETATM    8  C   UNL     1      42.861 -13.748   5.872  1.00  0.00     0.068 C 
BRANCH   8   9
HETATM    9  C   UNL     1      41.576 -13.022   5.548  1.00  0.00    -0.056 A 
HETATM   10  C   UNL     1      41.583 -11.844   4.788  1.00  0.00     0.010 A 
HETATM   11  C   UNL     1      40.384 -11.213   4.446  1.00  0.00     0.037 A 
HETATM   12  C   UNL     1      39.177 -11.763   4.864  1.00  0.00     0.065 A 
HETATM   13  C   UNL     1      39.150 -12.929   5.616  1.00  0.00     0.037 A 
HETATM   14  C   UNL     1      40.346 -13.563   5.950  1.00  0.00     0.010 A 
BRANCH  12  15
HETATM   15  O   UNL     1      37.983 -11.187   4.546  1.00  0.00    -0.361 OA
HETATM   16  H   UNL     1      37.478 -11.041   5.363  1.00  0.00     0.217 HD
ENDBRANCH  12  15
ENDBRANCH   8   9
ENDBRANCH   3   8
ENDBRANCH   1   3
BRANCH   1  17
HETATM   17  C   UNL     1      43.226 -16.568   3.497  1.00  0.00     0.034 A 
HETATM   18  C   UNL     1      42.554 -15.987   2.377  1.00  0.00     0.013 A 
HETATM   19  C   UNL     1      42.256 -16.786   1.257  1.00  0.00     0.044 A 
HETATM   20  C   UNL     1      42.150 -14.634   2.317  1.00  0.00     0.015 A 
HETATM   21  C   UNL     1      41.600 -16.256   0.132  1.00  0.00     0.030 A 
HETATM   22  N   UNL     1      42.620 -18.073   1.258  1.00  0.00    -0.355 N 
HETATM   23  C   UNL     1      41.219 -14.918   0.107  1.00  0.00     0.002 A 
HETATM   24  C   UNL     1      41.488 -14.109   1.203  1.00  0.00     0.001 A 
HETATM   25  H   UNL     1      42.401 -18.625   0.433  1.00  0.00     0.166 HD
HETATM   26  C   UNL     1      43.270 -18.678   2.262  1.00  0.00     0.044 A 
HETATM   27  C   UNL     1      43.605 -17.949   3.430  1.00  0.00     0.013 A 
HETATM   28  C   UNL     1      43.623 -20.034   2.101  1.00  0.00     0.030 A 
HETATM   29  C   UNL     1      44.317 -18.683   4.413  1.00  0.00     0.015 A 
HETATM   30  C   UNL     1      44.660 -20.031   4.255  1.00  0.00     0.001 A 
HETATM   31  C   UNL     1      44.317 -20.708   3.098  1.00  0.00     0.002 A 
ENDBRANCH   1  17
TORSDOF 7
ENDMDL
MODEL 9
REMARK VINA RESULT:      -8.0      1.841      4.335
REMARK  7 active torsions:
REMARK  status: ('A' for Active; 'I' for Inactive)
REMARK    1  A    between atoms: O_2  and  C_3 
REMARK    2  A    between atoms: C_3  and  C_4 
REMARK    3  A    between atoms: C_4  and  N_5 
REMARK    4  A    between atoms: C_4  and  C_21 
REMARK    5  A    between atoms: N_5  and  C_6 
REMARK    6  A    between atoms: C_21  and  C_22 
REMARK    7  A    between atoms: C_25  and  O_26 
ROOT
HETATM    1  N   UNL     1      43.502 -15.676   2.884  1.00  0.00    -0.277 NA
HETATM    2  H   UNL     1      44.153 -15.633   2.091  1.00  0.00     0.128 HD
ENDROOT
BRANCH   1   3
HETATM    3  C   UNL     1      43.396 -17.084   3.362  1.00  0.00     0.164 C 
BRANCH   3   4
HETATM    4  C   UNL     1      41.978 -17.385   3.890  1.00  0.00     0.276 C 
HETATM    5  O   UNL     1      40.996 -17.523   3.175  1.00  0.00    -0.263 OA
BRANCH   4   6
HETATM    6  O   UNL     1      41.977 -17.488   5.254  1.00  0.00    -0.325 OA
HETATM    7  C   UNL     1      40.894 -16.808   5.895  1.00  0.00     0.213 C 
ENDBRANCH   4   6
ENDBRANCH   3   4
BRANCH   3   8
HETATM    8  C   UNL     1      43.608 -18.069   2.195  1.00  0.00     0.068 C 
BRANCH   8   9
HETATM    9  C   UNL     1      43.892 -19.500   2.588  1.00  0.00    -0.056 A 
HETATM   10  C   UNL     1      43.600 -20.560   1.718  1.00  0.00     0.010 A 
HETATM   11  C   UNL     1      43.921 -21.875   2.068  1.00  0.00     0.037 A 
HETATM   12  C   UNL     1      44.535 -22.127   3.290  1.00  0.00     0.065 A 
HETATM   13  C   UNL     1      44.833 -21.091   4.164  1.00  0.00     0.037 A 
HETATM   14  C   UNL     1      44.520 -19.779   3.811  1.00  0.00     0.010 A 
BRANCH  12  15
HETATM   15  O   UNL     1      44.875 -23.392   3.669  1.00  0.00    -0.361 OA
HETATM   16  H   UNL     1      44.076 -23.945   3.666  1.00  0.00     0.217 HD
ENDBRANCH  12  15
ENDBRANCH   8   9
ENDBRANCH   3   8
ENDBRANCH   1   3
BRANCH   1  17
HETATM   17  C   UNL     1      42.401 -14.828   2.667  1.00  0.00     0.034 A 
HETATM   18  C   UNL     1      42.145 -13.870   3.696  1.00  0.00     0.013 A 
HETATM   19  C   UNL     1      41.181 -12.866   3.484  1.00  0.00     0.044 A 
HETATM   20  C   UNL     1      42.803 -13.864   4.946  1.00  0.00     0.015 A 
HETATM   21  C   UNL     1      40.900 -11.901   4.466  1.00  0.00     0.030 A 
HETATM   22  N   UNL     1      40.531 -12.822   2.315  1.00  0.00    -0.355 N 
HETATM   23  C   UNL     1      41.570 -11.924   5.686  1.00  0.00     0.002 A 
HETATM   24  C   UNL     1      42.516 -12.910   5.928  1.00  0.00     0.001 A 
HETATM   25  H   UNL     1      39.847 -12.081   2.186  1.00  0.00     0.166 HD
HETATM   26  C   UNL     1      40.734 -13.674   1.300  1.00  0.00     0.044 A 
HETATM   27  C   UNL     1      41.683 -14.717   1.430  1.00  0.00     0.013 A 
HETATM   28  C   UNL     1      40.000 -13.476   0.113  1.00  0.00     0.030 A 
HETATM   29  C   UNL     1      41.835 -15.538   0.284  1.00  0.00     0.015 A 
HETATM   30  C   UNL     1      41.099 -15.345  -0.892  1.00  0.00     0.001 A 
HETATM   31  C   UNL     1      40.183 -14.312  -0.981  1.00  0.00     0.002 A 
ENDBRANCH   1  17
TORSDOF 7
ENDMDL
MODEL 10
REMARK VINA RESULT:      -8.0      2.425      4.948
REMARK  7 active torsions:
REMARK  status: ('A' for Active; 'I' for Inactive)
REMARK    1  A    between atoms: O_2  and  C_3 
REMARK    2  A    between atoms: C_3  and  C_4 
REMARK    3  A    between atoms: C_4  and  N_5 
REMARK    4  A    between atoms: C_4  and  C_21 
REMARK    5  A    between atoms: N_5  and  C_6 
REMARK    6  A    between atoms: C_21  and  C_22 
REMARK    7  A    between atoms: C_25  and  O_26 
ROOT
HETATM    1  N   UNL     1      41.423 -16.130   3.776  1.00  0.00    -0.277 NA
HETATM    2  H   UNL     1      40.884 -16.331   4.626  1.00  0.00     0.128 HD
ENDROOT
BRANCH   1   3
HETATM    3  C   UNL     1      42.872 -16.355   4.043  1.00  0.00     0.164 C 
BRANCH   3   4
HETATM    4  C   UNL     1      43.447 -15.249   4.950  1.00  0.00     0.276 C 
HETATM    5  O   UNL     1      43.829 -14.160   4.545  1.00  0.00    -0.263 OA
BRANCH   4   6
HETATM    6  O   UNL     1      43.457 -15.646   6.259  1.00  0.00    -0.325 OA
HETATM    7  C   UNL     1      44.305 -14.866   7.105  1.00  0.00     0.213 C 
ENDBRANCH   4   6
ENDBRANCH   3   4
BRANCH   3   8
HETATM    8  C   UNL     1      43.080 -17.666   4.826  1.00  0.00     0.068 C 
BRANCH   8   9
HETATM    9  C   UNL     1      43.535 -18.853   4.009  1.00  0.00    -0.056 A 
HETATM   10  C   UNL     1      44.369 -19.835   4.562  1.00  0.00     0.010 A 
HETATM   11  C   UNL     1      44.737 -20.958   3.815  1.00  0.00     0.037 A 
HETATM   12  C   UNL     1      44.267 -21.098   2.514  1.00  0.00     0.065 A 
HETATM   13  C   UNL     1      43.439 -20.138   1.949  1.00  0.00     0.037 A 
HETATM   14  C   UNL     1      43.066 -19.021   2.697  1.00  0.00     0.010 A 
BRANCH  12  15
HETATM   15  O   UNL     1      44.591 -22.181   1.751  1.00  0.00    -0.361 OA
HETATM   16  H   UNL     1      43.772 -22.589   1.424  1.00  0.00     0.217 HD
ENDBRANCH  12  15
ENDBRANCH   8   9
ENDBRANCH   3   8
ENDBRANCH   1   3
BRANCH   1  17
HETATM   17  C   UNL     1      40.905 -15.000   3.116  1.00  0.00     0.034 A 
HETATM   18  C   UNL     1      40.875 -15.076   1.689  1.00  0.00     0.013 A 
HETATM   19  C   UNL     1      40.212 -14.073   0.956  1.00  0.00     0.044 A 
HETATM   20  C   UNL     1      41.488 -16.108   0.943  1.00  0.00     0.015 A 
HETATM   21  C   UNL     1      40.154 -14.110  -0.448  1.00  0.00     0.030 A 
HETATM   22  N   UNL     1      39.611 -13.075   1.612  1.00  0.00    -0.355 N 
HETATM   23  C   UNL     1      40.767 -15.144  -1.150  1.00  0.00     0.002 A 
HETATM   24  C   UNL     1      41.438 -16.139  -0.454  1.00  0.00     0.001 A 
HETATM   25  H   UNL     1      39.131 -12.370   1.058  1.00  0.00     0.166 HD
HETATM   26  C   UNL     1      39.581 -12.952   2.946  1.00  0.00     0.044 A 
HETATM   27  C   UNL     1      40.227 -13.913   3.761  1.00  0.00     0.013 A 
HETATM   28  C   UNL     1      38.872 -11.864   3.495  1.00  0.00     0.030 A 
HETATM   29  C   UNL     1      40.106 -13.698   5.158  1.00  0.00     0.015 A 
HETATM   30  C   UNL     1      39.408 -12.613   5.701  1.00  0.00     0.001 A 
HETATM   31  C   UNL     1      38.786 -11.696   4.872  1.00  0.00     0.002 A 
ENDBRANCH   1  17
TORSDOF 7
ENDMDL
