MODEL 1
REMARK VINA RESULT:      -9.2      0.000      0.000
REMARK  6 active torsions:
REMARK  status: ('A' for Active; 'I' for Inactive)
REMARK    1  A    between atoms: C_2  and  C_3 
REMARK    2  A    between atoms: C_4  and  N_5 
REMARK       I    between atoms: N_5  and  C_6 
REMARK    3  A    between atoms: C_6  and  C_7 
REMARK    4  A    between atoms: C_10  and  C_11 
REMARK    5  A    between atoms: C_11  and  C_12 
REMARK    6  A    between atoms: C_25  and  C_26 
ROOT
HETATM    1  N   UNL     1      42.078 -13.366   1.679  1.00  0.00    -0.307 N 
HETATM    2  C   UNL     1      42.169 -14.269   2.785  1.00  0.00     0.257 C 
HETATM    3  O   UNL     1      42.072 -13.773   3.893  1.00  0.00    -0.267 OA
HETATM    4  H   UNL     1      42.245 -12.391   1.902  1.00  0.00     0.170 HD
ENDROOT
BRANCH   2   5
HETATM    5  C   UNL     1      42.452 -15.708   2.574  1.00  0.00     0.032 A 
HETATM    6  C   UNL     1      43.649 -16.128   1.980  1.00  0.00     0.017 A 
HETATM    7  C   UNL     1      43.894 -17.486   1.779  1.00  0.00     0.008 A 
HETATM    8  C   UNL     1      42.976 -18.446   2.218  1.00  0.00    -0.057 A 
HETATM    9  C   UNL     1      41.797 -18.019   2.848  1.00  0.00     0.008 A 
HETATM   10  C   UNL     1      41.534 -16.657   3.028  1.00  0.00     0.017 A 
BRANCH   8  11
HETATM   11  C   UNL     1      43.262 -19.925   2.055  1.00  0.00     0.053 C 
BRANCH  11  12
HETATM   12  C   UNL     1      44.577 -20.431   2.669  1.00  0.00     0.091 C 
HETATM   13  C   UNL     1      44.631 -21.938   2.695  1.00  0.00     0.229 C 
HETATM   14  O   UNL     1      44.598 -22.667   1.716  1.00  0.00    -0.273 OA
HETATM   15  N   UNL     1      44.635 -22.356   3.985  1.00  0.00    -0.297 N 
HETATM   16  C   UNL     1      44.565 -21.333   4.872  1.00  0.00     0.225 C 
HETATM   17  H   UNL     1      44.546 -23.324   4.249  1.00  0.00     0.171 HD
HETATM   18  O   UNL     1      44.365 -21.440   6.070  1.00  0.00    -0.273 OA
HETATM   19  C   UNL     1      44.793 -20.048   4.134  1.00  0.00     0.117 C 
ENDBRANCH  11  12
ENDBRANCH   8  11
ENDBRANCH   2   5
BRANCH   1  20
HETATM   20  C   UNL     1      41.708 -13.702   0.389  1.00  0.00     0.133 A 
HETATM   21  C   UNL     1      40.480 -14.224   0.024  1.00  0.00     0.018 A 
HETATM   22  C   UNL     1      40.547 -14.326  -1.418  1.00  0.00     0.097 A 
HETATM   23  N   UNL     1      41.764 -13.945  -1.848  1.00  0.00    -0.172 NA
HETATM   24  N   UNL     1      42.439 -13.595  -0.755  1.00  0.00    -0.261 N 
HETATM   25  H   UNL     1      43.399 -13.291  -0.870  1.00  0.00     0.191 HD
BRANCH  21  26
HETATM   26  C   UNL     1      39.340 -14.487   0.954  1.00  0.00     0.040 C 
HETATM   27  C   UNL     1      38.410 -13.291   1.091  1.00  0.00     0.010 C 
ENDBRANCH  21  26
BRANCH  22  28
HETATM   28  C   UNL     1      39.537 -14.712  -2.425  1.00  0.00    -0.002 A 
HETATM   29  C   UNL     1      39.843 -15.721  -3.350  1.00  0.00     0.033 A 
HETATM   30  C   UNL     1      38.914 -16.072  -4.316  1.00  0.00     0.117 A 
HETATM   31  N   UNL     1      37.706 -15.487  -4.429  1.00  0.00    -0.273 NA
HETATM   32  C   UNL     1      37.415 -14.529  -3.529  1.00  0.00     0.117 A 
HETATM   33  C   UNL     1      38.278 -14.119  -2.521  1.00  0.00     0.033 A 
ENDBRANCH  22  28
ENDBRANCH   1  20
TORSDOF 6
ENDMDL
MODEL 2
REMARK VINA RESULT:      -9.1      1.177      2.001
REMARK  6 active torsions:
REMARK  status: ('A' for Active; 'I' for Inactive)
REMARK    1  A    between atoms: C_2  and  C_3 
REMARK    2  A    between atoms: C_4  and  N_5 
REMARK       I    between atoms: N_5  and  C_6 
REMARK    3  A    between atoms: C_6  and  C_7 
REMARK    4  A    between atoms: C_10  and  C_11 
REMARK    5  A    between atoms: C_11  and  C_12 
REMARK    6  A    between atoms: C_25  and  C_26 
ROOT
HETATM    1  N   UNL     1      42.346 -13.162   2.003  1.00  0.00    -0.307 N 
HETATM    2  C   UNL     1      43.027 -13.981   2.957  1.00  0.00     0.257 C 
HETATM    3  O   UNL     1      43.619 -13.394   3.845  1.00  0.00    -0.267 OA
HETATM    4  H   UNL     1      42.655 -12.197   1.962  1.00  0.00     0.170 HD
ENDROOT
BRANCH   2   5
HETATM    5  C   UNL     1      43.068 -15.455   2.807  1.00  0.00     0.032 A 
HETATM    6  C   UNL     1      42.285 -16.285   3.619  1.00  0.00     0.017 A 
HETATM    7  C   UNL     1      42.345 -17.670   3.472  1.00  0.00     0.008 A 
HETATM    8  C   UNL     1      43.142 -18.245   2.476  1.00  0.00    -0.057 A 
HETATM    9  C   UNL     1      43.893 -17.405   1.640  1.00  0.00     0.008 A 
HETATM   10  C   UNL     1      43.858 -16.016   1.801  1.00  0.00     0.017 A 
BRANCH   8  11
HETATM   11  C   UNL     1      43.168 -19.746   2.272  1.00  0.00     0.053 C 
BRANCH  11  12
HETATM   12  C   UNL     1      44.510 -20.442   2.548  1.00  0.00     0.091 C 
HETATM   13  C   UNL     1      44.427 -21.926   2.290  1.00  0.00     0.229 C 
HETATM   14  O   UNL     1      44.171 -22.447   1.216  1.00  0.00    -0.273 OA
HETATM   15  N   UNL     1      44.594 -22.586   3.463  1.00  0.00    -0.297 N 
HETATM   16  C   UNL     1      44.761 -21.753   4.519  1.00  0.00     0.225 C 
HETATM   17  H   UNL     1      44.458 -23.580   3.559  1.00  0.00     0.171 HD
HETATM   18  O   UNL     1      44.743 -22.078   5.695  1.00  0.00    -0.273 OA
HETATM   19  C   UNL     1      44.989 -20.365   3.999  1.00  0.00     0.117 C 
ENDBRANCH  11  12
ENDBRANCH   8  11
ENDBRANCH   2   5
BRANCH   1  20
HETATM   20  C   UNL     1      41.276 -13.553   1.218  1.00  0.00     0.133 A 
HETATM   21  C   UNL     1      41.266 -13.562  -0.166  1.00  0.00     0.018 A 
HETATM   22  C   UNL     1      39.977 -14.119  -0.513  1.00  0.00     0.097 A 
HETATM   23  N   UNL     1      39.265 -14.358   0.605  1.00  0.00    -0.172 NA
HETATM   24  N   UNL     1      40.052 -13.997   1.616  1.00  0.00    -0.261 N 
HETATM   25  H   UNL     1      39.683 -14.086   2.556  1.00  0.00     0.191 HD
BRANCH  21  26
HETATM   26  C   UNL     1      42.414 -13.177  -1.042  1.00  0.00     0.040 C 
HETATM   27  C   UNL     1      42.141 -11.909  -1.837  1.00  0.00     0.010 C 
ENDBRANCH  21  26
BRANCH  22  28
HETATM   28  C   UNL     1      39.382 -14.488  -1.814  1.00  0.00    -0.002 A 
HETATM   29  C   UNL     1      38.111 -13.996  -2.150  1.00  0.00     0.033 A 
HETATM   30  C   UNL     1      37.533 -14.358  -3.355  1.00  0.00     0.117 A 
HETATM   31  N   UNL     1      38.125 -15.175  -4.247  1.00  0.00    -0.273 NA
HETATM   32  C   UNL     1      39.351 -15.630  -3.923  1.00  0.00     0.117 A 
HETATM   33  C   UNL     1      40.012 -15.315  -2.744  1.00  0.00     0.033 A 
ENDBRANCH  22  28
ENDBRANCH   1  20
TORSDOF 6
ENDMDL
MODEL 3
REMARK VINA RESULT:      -8.7      3.426      8.307
REMARK  6 active torsions:
REMARK  status: ('A' for Active; 'I' for Inactive)
REMARK    1  A    between atoms: C_2  and  C_3 
REMARK    2  A    between atoms: C_4  and  N_5 
REMARK       I    between atoms: N_5  and  C_6 
REMARK    3  A    between atoms: C_6  and  C_7 
REMARK    4  A    between atoms: C_10  and  C_11 
REMARK    5  A    between atoms: C_11  and  C_12 
REMARK    6  A    between atoms: C_25  and  C_26 
ROOT
HETATM    1  N   UNL     1      40.898 -14.412   6.235  1.00  0.00    -0.307 N 
HETATM    2  C   UNL     1      41.048 -13.184   5.518  1.00  0.00     0.257 C 
HETATM    3  O   UNL     1      41.177 -12.178   6.194  1.00  0.00    -0.267 OA
HETATM    4  H   UNL     1      40.610 -14.316   7.203  1.00  0.00     0.170 HD
ENDROOT
BRANCH   2   5
HETATM    5  C   UNL     1      40.962 -13.147   4.039  1.00  0.00     0.032 A 
HETATM    6  C   UNL     1      39.726 -13.236   3.386  1.00  0.00     0.017 A 
HETATM    7  C   UNL     1      39.664 -13.212   1.993  1.00  0.00     0.008 A 
HETATM    8  C   UNL     1      40.827 -13.042   1.234  1.00  0.00    -0.057 A 
HETATM    9  C   UNL     1      42.057 -12.913   1.897  1.00  0.00     0.008 A 
HETATM   10  C   UNL     1      42.128 -12.964   3.293  1.00  0.00     0.017 A 
BRANCH   8  11
HETATM   11  C   UNL     1      40.762 -12.957  -0.277  1.00  0.00     0.053 C 
BRANCH  11  12
HETATM   12  C   UNL     1      41.708 -13.891  -1.048  1.00  0.00     0.091 C 
HETATM   13  C   UNL     1      42.303 -13.205  -2.252  1.00  0.00     0.229 C 
HETATM   14  O   UNL     1      43.013 -12.212  -2.225  1.00  0.00    -0.273 OA
HETATM   15  N   UNL     1      41.851 -13.816  -3.375  1.00  0.00    -0.297 N 
HETATM   16  C   UNL     1      40.992 -14.832  -3.114  1.00  0.00     0.225 C 
HETATM   17  H   UNL     1      42.017 -13.456  -4.301  1.00  0.00     0.171 HD
HETATM   18  O   UNL     1      40.304 -15.414  -3.936  1.00  0.00    -0.273 OA
HETATM   19  C   UNL     1      41.042 -15.132  -1.645  1.00  0.00     0.117 C 
ENDBRANCH  11  12
ENDBRANCH   8  11
ENDBRANCH   2   5
BRANCH   1  20
HETATM   20  C   UNL     1      41.187 -15.674   5.748  1.00  0.00     0.133 A 
HETATM   21  C   UNL     1      42.455 -16.138   5.444  1.00  0.00     0.018 A 
HETATM   22  C   UNL     1      42.250 -17.516   5.056  1.00  0.00     0.097 A 
HETATM   23  N   UNL     1      40.936 -17.807   5.077  1.00  0.00    -0.172 NA
HETATM   24  N   UNL     1      40.327 -16.692   5.474  1.00  0.00    -0.261 N 
HETATM   25  H   UNL     1      39.315 -16.704   5.536  1.00  0.00     0.191 HD
BRANCH  21  26
HETATM   26  C   UNL     1      43.723 -15.366   5.615  1.00  0.00     0.040 C 
HETATM   27  C   UNL     1      44.300 -15.495   7.016  1.00  0.00     0.010 C 
ENDBRANCH  21  26
BRANCH  22  28
HETATM   28  C   UNL     1      43.201 -18.594   4.714  1.00  0.00    -0.002 A 
HETATM   29  C   UNL     1      43.472 -18.865   3.363  1.00  0.00     0.033 A 
HETATM   30  C   UNL     1      44.341 -19.890   3.031  1.00  0.00     0.117 A 
HETATM   31  N   UNL     1      44.955 -20.667   3.942  1.00  0.00    -0.273 NA
HETATM   32  C   UNL     1      44.701 -20.392   5.236  1.00  0.00     0.117 A 
HETATM   33  C   UNL     1      43.853 -19.379   5.665  1.00  0.00     0.033 A 
ENDBRANCH  22  28
ENDBRANCH   1  20
TORSDOF 6
ENDMDL
MODEL 4
REMARK VINA RESULT:      -8.5      1.973      2.683
REMARK  6 active torsions:
REMARK  status: ('A' for Active; 'I' for Inactive)
REMARK    1  A    between atoms: C_2  and  C_3 
REMARK    2  A    between atoms: C_4  and  N_5 
REMARK       I    between atoms: N_5  and  C_6 
REMARK    3  A    between atoms: C_6  and  C_7 
REMARK    4  A    between atoms: C_10  and  C_11 
REMARK    5  A    between atoms: C_11  and  C_12 
REMARK    6  A    between atoms: C_25  and  C_26 
ROOT
HETATM    1  N   UNL     1      40.732 -12.792   3.769  1.00  0.00    -0.307 N 
HETATM    2  C   UNL     1      40.516 -13.829   4.729  1.00  0.00     0.257 C 
HETATM    3  O   UNL     1      39.733 -13.575   5.628  1.00  0.00    -0.267 OA
HETATM    4  H   UNL     1      40.470 -11.860   4.072  1.00  0.00     0.170 HD
ENDROOT
BRANCH   2   5
HETATM    5  C   UNL     1      41.275 -15.100   4.665  1.00  0.00     0.032 A 
HETATM    6  C   UNL     1      42.675 -15.107   4.701  1.00  0.00     0.017 A 
HETATM    7  C   UNL     1      43.373 -16.311   4.627  1.00  0.00     0.008 A 
HETATM    8  C   UNL     1      42.686 -17.529   4.575  1.00  0.00    -0.057 A 
HETATM    9  C   UNL     1      41.282 -17.516   4.579  1.00  0.00     0.008 A 
HETATM   10  C   UNL     1      40.577 -16.309   4.625  1.00  0.00     0.017 A 
BRANCH   8  11
HETATM   11  C   UNL     1      43.437 -18.844   4.553  1.00  0.00     0.053 C 
BRANCH  11  12
HETATM   12  C   UNL     1      44.174 -19.180   3.247  1.00  0.00     0.091 C 
HETATM   13  C   UNL     1      43.209 -19.544   2.146  1.00  0.00     0.229 C 
HETATM   14  O   UNL     1      42.349 -18.811   1.684  1.00  0.00    -0.273 OA
HETATM   15  N   UNL     1      43.394 -20.845   1.812  1.00  0.00    -0.297 N 
HETATM   16  C   UNL     1      44.350 -21.452   2.557  1.00  0.00     0.225 C 
HETATM   17  H   UNL     1      42.782 -21.344   1.186  1.00  0.00     0.171 HD
HETATM   18  O   UNL     1      44.577 -22.650   2.590  1.00  0.00    -0.273 OA
HETATM   19  C   UNL     1      45.096 -20.399   3.322  1.00  0.00     0.117 C 
ENDBRANCH  11  12
ENDBRANCH   8  11
ENDBRANCH   2   5
BRANCH   1  20
HETATM   20  C   UNL     1      41.179 -12.970   2.472  1.00  0.00     0.133 A 
HETATM   21  C   UNL     1      40.536 -13.722   1.505  1.00  0.00     0.018 A 
HETATM   22  C   UNL     1      41.336 -13.537   0.314  1.00  0.00     0.097 A 
HETATM   23  N   UNL     1      42.409 -12.775   0.597  1.00  0.00    -0.172 NA
HETATM   24  N   UNL     1      42.301 -12.466   1.887  1.00  0.00    -0.261 N 
HETATM   25  H   UNL     1      43.035 -11.903   2.300  1.00  0.00     0.191 HD
BRANCH  21  26
HETATM   26  C   UNL     1      39.240 -14.444   1.690  1.00  0.00     0.040 C 
HETATM   27  C   UNL     1      38.069 -13.712   1.054  1.00  0.00     0.010 C 
ENDBRANCH  21  26
BRANCH  22  28
HETATM   28  C   UNL     1      41.142 -13.984  -1.081  1.00  0.00    -0.002 A 
HETATM   29  C   UNL     1      40.969 -13.024  -2.090  1.00  0.00     0.033 A 
HETATM   30  C   UNL     1      40.760 -13.433  -3.396  1.00  0.00     0.117 A 
HETATM   31  N   UNL     1      40.704 -14.725  -3.770  1.00  0.00    -0.273 NA
HETATM   32  C   UNL     1      40.884 -15.640  -2.798  1.00  0.00     0.117 A 
HETATM   33  C   UNL     1      41.110 -15.325  -1.464  1.00  0.00     0.033 A 
ENDBRANCH  22  28
ENDBRANCH   1  20
TORSDOF 6
ENDMDL
MODEL 5
REMARK VINA RESULT:      -8.4      2.080      2.908
REMARK  6 active torsions:
REMARK  status: ('A' for Active; 'I' for Inactive)
REMARK    1  A    between atoms: C_2  and  C_3 
REMARK    2  A    between atoms: C_4  and  N_5 
REMARK       I    between atoms: N_5  and  C_6 
REMARK    3  A    between atoms: C_6  and  C_7 
REMARK    4  A    between atoms: C_10  and  C_11 
REMARK    5  A    between atoms: C_11  and  C_12 
REMARK    6  A    between atoms: C_25  and  C_26 
ROOT
HETATM    1  N   UNL     1      40.852 -12.768   3.692  1.00  0.00    -0.307 N 
HETATM    2  C   UNL     1      41.268 -13.454   4.876  1.00  0.00     0.257 C 
HETATM    3  O   UNL     1      41.258 -12.804   5.906  1.00  0.00    -0.267 OA
HETATM    4  H   UNL     1      40.880 -11.756   3.746  1.00  0.00     0.170 HD
ENDROOT
BRANCH   2   5
HETATM    5  C   UNL     1      41.761 -14.851   4.816  1.00  0.00     0.032 A 
HETATM    6  C   UNL     1      40.932 -15.924   5.166  1.00  0.00     0.017 A 
HETATM    7  C   UNL     1      41.416 -17.231   5.115  1.00  0.00     0.008 A 
HETATM    8  C   UNL     1      42.712 -17.490   4.659  1.00  0.00    -0.057 A 
HETATM    9  C   UNL     1      43.524 -16.413   4.272  1.00  0.00     0.008 A 
HETATM   10  C   UNL     1      43.053 -15.098   4.347  1.00  0.00     0.017 A 
BRANCH   8  11
HETATM   11  C   UNL     1      43.226 -18.912   4.546  1.00  0.00     0.053 C 
BRANCH  11  12
HETATM   12  C   UNL     1      44.084 -19.223   3.309  1.00  0.00     0.091 C 
HETATM   13  C   UNL     1      43.227 -19.546   2.110  1.00  0.00     0.229 C 
HETATM   14  O   UNL     1      42.424 -18.790   1.586  1.00  0.00    -0.273 OA
HETATM   15  N   UNL     1      43.430 -20.840   1.761  1.00  0.00    -0.297 N 
HETATM   16  C   UNL     1      44.302 -21.478   2.579  1.00  0.00     0.225 C 
HETATM   17  H   UNL     1      42.877 -21.314   1.064  1.00  0.00     0.171 HD
HETATM   18  O   UNL     1      44.512 -22.679   2.601  1.00  0.00    -0.273 OA
HETATM   19  C   UNL     1      44.980 -20.455   3.441  1.00  0.00     0.117 C 
ENDBRANCH  11  12
ENDBRANCH   8  11
ENDBRANCH   2   5
BRANCH   1  20
HETATM   20  C   UNL     1      40.352 -13.361   2.547  1.00  0.00     0.133 A 
HETATM   21  C   UNL     1      40.850 -13.171   1.270  1.00  0.00     0.018 A 
HETATM   22  C   UNL     1      40.059 -14.053   0.440  1.00  0.00     0.097 A 
HETATM   23  N   UNL     1      39.121 -14.666   1.187  1.00  0.00    -0.172 NA
HETATM   24  N   UNL     1      39.306 -14.225   2.429  1.00  0.00    -0.261 N 
HETATM   25  H   UNL     1      38.676 -14.563   3.148  1.00  0.00     0.191 HD
BRANCH  21  26
HETATM   26  C   UNL     1      42.025 -12.317   0.918  1.00  0.00     0.040 C 
HETATM   27  C   UNL     1      41.617 -10.933   0.439  1.00  0.00     0.010 C 
ENDBRANCH  21  26
BRANCH  22  28
HETATM   28  C   UNL     1      40.149 -14.399  -0.994  1.00  0.00    -0.002 A 
HETATM   29  C   UNL     1      41.008 -15.433  -1.396  1.00  0.00     0.033 A 
HETATM   30  C   UNL     1      41.121 -15.747  -2.740  1.00  0.00     0.117 A 
HETATM   31  N   UNL     1      40.445 -15.104  -3.711  1.00  0.00    -0.273 NA
HETATM   32  C   UNL     1      39.612 -14.123  -3.315  1.00  0.00     0.117 A 
HETATM   33  C   UNL     1      39.427 -13.745  -1.992  1.00  0.00     0.033 A 
ENDBRANCH  22  28
ENDBRANCH   1  20
TORSDOF 6
ENDMDL
MODEL 6
REMARK VINA RESULT:      -8.3      3.292      4.925
REMARK  6 active torsions:
REMARK  status: ('A' for Active; 'I' for Inactive)
REMARK    1  A    between atoms: C_2  and  C_3 
REMARK    2  A    between atoms: C_4  and  N_5 
REMARK       I    between atoms: N_5  and  C_6 
REMARK    3  A    between atoms: C_6  and  C_7 
REMARK    4  A    between atoms: C_10  and  C_11 
REMARK    5  A    between atoms: C_11  and  C_12 
REMARK    6  A    between atoms: C_25  and  C_26 
ROOT
HETATM    1  N   UNL     1      43.252 -12.947   6.849  1.00  0.00    -0.307 N 
HETATM    2  C   UNL     1      43.954 -14.032   7.459  1.00  0.00     0.257 C 
HETATM    3  O   UNL     1      44.702 -13.741   8.376  1.00  0.00    -0.267 OA
HETATM    4  H   UNL     1      43.649 -12.028   7.011  1.00  0.00     0.170 HD
ENDROOT
BRANCH   2   5
HETATM    5  C   UNL     1      43.830 -15.413   6.936  1.00  0.00     0.032 A 
HETATM    6  C   UNL     1      42.576 -16.017   6.784  1.00  0.00     0.017 A 
HETATM    7  C   UNL     1      42.478 -17.322   6.301  1.00  0.00     0.008 A 
HETATM    8  C   UNL     1      43.624 -18.021   5.909  1.00  0.00    -0.057 A 
HETATM    9  C   UNL     1      44.874 -17.394   6.026  1.00  0.00     0.008 A 
HETATM   10  C   UNL     1      44.981 -16.096   6.535  1.00  0.00     0.017 A 
BRANCH   8  11
HETATM   11  C   UNL     1      43.521 -19.417   5.328  1.00  0.00     0.053 C 
BRANCH  11  12
HETATM   12  C   UNL     1      44.701 -19.874   4.456  1.00  0.00     0.091 C 
HETATM   13  C   UNL     1      44.360 -19.810   2.988  1.00  0.00     0.229 C 
HETATM   14  O   UNL     1      44.062 -18.800   2.371  1.00  0.00    -0.273 OA
HETATM   15  N   UNL     1      44.354 -21.069   2.483  1.00  0.00    -0.297 N 
HETATM   16  C   UNL     1      44.623 -22.014   3.416  1.00  0.00     0.225 C 
HETATM   17  H   UNL     1      44.035 -21.285   1.552  1.00  0.00     0.171 HD
HETATM   18  O   UNL     1      44.495 -23.218   3.270  1.00  0.00    -0.273 OA
HETATM   19  C   UNL     1      45.122 -21.331   4.655  1.00  0.00     0.117 C 
ENDBRANCH  11  12
ENDBRANCH   8  11
ENDBRANCH   2   5
BRANCH   1  20
HETATM   20  C   UNL     1      42.064 -13.045   6.147  1.00  0.00     0.133 A 
HETATM   21  C   UNL     1      41.960 -13.215   4.778  1.00  0.00     0.018 A 
HETATM   22  C   UNL     1      40.540 -13.341   4.537  1.00  0.00     0.097 A 
HETATM   23  N   UNL     1      39.864 -13.190   5.691  1.00  0.00    -0.172 NA
HETATM   24  N   UNL     1      40.791 -12.999   6.627  1.00  0.00    -0.261 N 
HETATM   25  H   UNL     1      40.475 -12.844   7.579  1.00  0.00     0.191 HD
BRANCH  21  26
HETATM   26  C   UNL     1      43.111 -13.348   3.833  1.00  0.00     0.040 C 
HETATM   27  C   UNL     1      43.313 -14.779   3.358  1.00  0.00     0.010 C 
ENDBRANCH  21  26
BRANCH  22  28
HETATM   28  C   UNL     1      39.772 -13.641   3.310  1.00  0.00    -0.002 A 
HETATM   29  C   UNL     1      39.704 -14.965   2.851  1.00  0.00     0.033 A 
HETATM   30  C   UNL     1      39.010 -15.253   1.688  1.00  0.00     0.117 A 
HETATM   31  N   UNL     1      38.385 -14.319   0.946  1.00  0.00    -0.273 NA
HETATM   32  C   UNL     1      38.443 -13.053   1.401  1.00  0.00     0.117 A 
HETATM   33  C   UNL     1      39.106 -12.671   2.560  1.00  0.00     0.033 A 
ENDBRANCH  22  28
ENDBRANCH   1  20
TORSDOF 6
ENDMDL
MODEL 7
REMARK VINA RESULT:      -8.2      2.376      3.562
REMARK  6 active torsions:
REMARK  status: ('A' for Active; 'I' for Inactive)
REMARK    1  A    between atoms: C_2  and  C_3 
REMARK    2  A    between atoms: C_4  and  N_5 
REMARK       I    between atoms: N_5  and  C_6 
REMARK    3  A    between atoms: C_6  and  C_7 
REMARK    4  A    between atoms: C_10  and  C_11 
REMARK    5  A    between atoms: C_11  and  C_12 
REMARK    6  A    between atoms: C_25  and  C_26 
ROOT
HETATM    1  N   UNL     1      40.201 -11.908   3.577  1.00  0.00    -0.307 N 
HETATM    2  C   UNL     1      39.974 -12.711   4.738  1.00  0.00     0.257 C 
HETATM    3  O   UNL     1      39.050 -12.370   5.455  1.00  0.00    -0.267 OA
HETATM    4  H   UNL     1      39.794 -10.980   3.606  1.00  0.00     0.170 HD
ENDROOT
BRANCH   2   5
HETATM    5  C   UNL     1      40.876 -13.837   5.076  1.00  0.00     0.032 A 
HETATM    6  C   UNL     1      40.440 -15.165   4.978  1.00  0.00     0.017 A 
HETATM    7  C   UNL     1      41.298 -16.212   5.312  1.00  0.00     0.008 A 
HETATM    8  C   UNL     1      42.619 -15.954   5.692  1.00  0.00    -0.057 A 
HETATM    9  C   UNL     1      43.061 -14.623   5.749  1.00  0.00     0.008 A 
HETATM   10  C   UNL     1      42.196 -13.567   5.442  1.00  0.00     0.017 A 
BRANCH   8  11
HETATM   11  C   UNL     1      43.574 -17.089   5.999  1.00  0.00     0.053 C 
BRANCH  11  12
HETATM   12  C   UNL     1      43.079 -18.502   5.652  1.00  0.00     0.091 C 
HETATM   13  C   UNL     1      43.766 -19.551   6.491  1.00  0.00     0.229 C 
HETATM   14  O   UNL     1      43.712 -19.635   7.707  1.00  0.00    -0.273 OA
HETATM   15  N   UNL     1      44.525 -20.332   5.682  1.00  0.00    -0.297 N 
HETATM   16  C   UNL     1      44.478 -19.950   4.382  1.00  0.00     0.225 C 
HETATM   17  H   UNL     1      45.169 -21.023   6.033  1.00  0.00     0.171 HD
HETATM   18  O   UNL     1      45.204 -20.359   3.492  1.00  0.00    -0.273 OA
HETATM   19  C   UNL     1      43.370 -18.953   4.220  1.00  0.00     0.117 C 
ENDBRANCH  11  12
ENDBRANCH   8  11
ENDBRANCH   2   5
BRANCH   1  20
HETATM   20  C   UNL     1      40.841 -12.320   2.422  1.00  0.00     0.133 A 
HETATM   21  C   UNL     1      40.270 -13.093   1.427  1.00  0.00     0.018 A 
HETATM   22  C   UNL     1      41.293 -13.184   0.409  1.00  0.00     0.097 A 
HETATM   23  N   UNL     1      42.408 -12.552   0.822  1.00  0.00    -0.172 NA
HETATM   24  N   UNL     1      42.118 -12.063   2.025  1.00  0.00    -0.261 N 
HETATM   25  H   UNL     1      42.848 -11.560   2.518  1.00  0.00     0.191 HD
BRANCH  21  26
HETATM   26  C   UNL     1      38.861 -13.592   1.421  1.00  0.00     0.040 C 
HETATM   27  C   UNL     1      38.763 -15.067   1.781  1.00  0.00     0.010 C 
ENDBRANCH  21  26
BRANCH  22  28
HETATM   28  C   UNL     1      41.286 -13.780  -0.943  1.00  0.00    -0.002 A 
HETATM   29  C   UNL     1      41.580 -12.969  -2.050  1.00  0.00     0.033 A 
HETATM   30  C   UNL     1      41.550 -13.511  -3.324  1.00  0.00     0.117 A 
HETATM   31  N   UNL     1      41.243 -14.798  -3.576  1.00  0.00    -0.273 NA
HETATM   32  C   UNL     1      40.975 -15.572  -2.507  1.00  0.00     0.117 A 
HETATM   33  C   UNL     1      40.991 -15.120  -1.195  1.00  0.00     0.033 A 
ENDBRANCH  22  28
ENDBRANCH   1  20
TORSDOF 6
ENDMDL
MODEL 8
REMARK VINA RESULT:      -8.0      2.603      3.373
REMARK  6 active torsions:
REMARK  status: ('A' for Active; 'I' for Inactive)
REMARK    1  A    between atoms: C_2  and  C_3 
REMARK    2  A    between atoms: C_4  and  N_5 
REMARK       I    between atoms: N_5  and  C_6 
REMARK    3  A    between atoms: C_6  and  C_7 
REMARK    4  A    between atoms: C_10  and  C_11 
REMARK    5  A    between atoms: C_11  and  C_12 
REMARK    6  A    between atoms: C_25  and  C_26 
ROOT
HETATM    1  N   UNL     1      40.168 -13.053   3.886  1.00  0.00    -0.307 N 
HETATM    2  C   UNL     1      40.650 -13.742   5.042  1.00  0.00     0.257 C 
HETATM    3  O   UNL     1      40.476 -13.185   6.112  1.00  0.00    -0.267 OA
HETATM    4  H   UNL     1      40.008 -12.060   4.010  1.00  0.00     0.170 HD
ENDROOT
BRANCH   2   5
HETATM    5  C   UNL     1      41.391 -15.019   4.917  1.00  0.00     0.032 A 
HETATM    6  C   UNL     1      42.650 -15.065   4.306  1.00  0.00     0.017 A 
HETATM    7  C   UNL     1      43.329 -16.277   4.185  1.00  0.00     0.008 A 
HETATM    8  C   UNL     1      42.788 -17.450   4.723  1.00  0.00    -0.057 A 
HETATM    9  C   UNL     1      41.544 -17.389   5.369  1.00  0.00     0.008 A 
HETATM   10  C   UNL     1      40.846 -16.181   5.468  1.00  0.00     0.017 A 
BRANCH   8  11
HETATM   11  C   UNL     1      43.546 -18.760   4.648  1.00  0.00     0.053 C 
BRANCH  11  12
HETATM   12  C   UNL     1      44.492 -19.062   5.821  1.00  0.00     0.091 C 
HETATM   13  C   UNL     1      43.892 -20.072   6.769  1.00  0.00     0.229 C 
HETATM   14  O   UNL     1      43.586 -21.219   6.484  1.00  0.00    -0.273 OA
HETATM   15  N   UNL     1      43.667 -19.472   7.964  1.00  0.00    -0.297 N 
HETATM   16  C   UNL     1      44.009 -18.160   7.970  1.00  0.00     0.225 C 
HETATM   17  H   UNL     1      43.160 -19.915   8.714  1.00  0.00     0.171 HD
HETATM   18  O   UNL     1      43.736 -17.356   8.846  1.00  0.00    -0.273 OA
HETATM   19  C   UNL     1      44.795 -17.868   6.727  1.00  0.00     0.117 C 
ENDBRANCH  11  12
ENDBRANCH   8  11
ENDBRANCH   2   5
BRANCH   1  20
HETATM   20  C   UNL     1      39.835 -13.637   2.677  1.00  0.00     0.133 A 
HETATM   21  C   UNL     1      40.382 -13.297   1.452  1.00  0.00     0.018 A 
HETATM   22  C   UNL     1      39.783 -14.228   0.520  1.00  0.00     0.097 A 
HETATM   23  N   UNL     1      38.898 -15.013   1.162  1.00  0.00    -0.172 NA
HETATM   24  N   UNL     1      38.936 -14.631   2.436  1.00  0.00    -0.261 N 
HETATM   25  H   UNL     1      38.316 -15.099   3.088  1.00  0.00     0.191 HD
BRANCH  21  26
HETATM   26  C   UNL     1      41.441 -12.265   1.234  1.00  0.00     0.040 C 
HETATM   27  C   UNL     1      40.939 -11.077   0.428  1.00  0.00     0.010 C 
ENDBRANCH  21  26
BRANCH  22  28
HETATM   28  C   UNL     1      40.016 -14.465  -0.920  1.00  0.00    -0.002 A 
HETATM   29  C   UNL     1      39.152 -13.879  -1.858  1.00  0.00     0.033 A 
HETATM   30  C   UNL     1      39.345 -14.117  -3.209  1.00  0.00     0.117 A 
HETATM   31  N   UNL     1      40.330 -14.898  -3.692  1.00  0.00    -0.273 NA
HETATM   32  C   UNL     1      41.163 -15.444  -2.786  1.00  0.00     0.117 A 
HETATM   33  C   UNL     1      41.054 -15.255  -1.414  1.00  0.00     0.033 A 
ENDBRANCH  22  28
ENDBRANCH   1  20
TORSDOF 6
ENDMDL
MODEL 9
REMARK VINA RESULT:      -7.9      3.593      6.411
REMARK  6 active torsions:
REMARK  status: ('A' for Active; 'I' for Inactive)
REMARK    1  A    between atoms: C_2  and  C_3 
REMARK    2  A    between atoms: C_4  and  N_5 
REMARK       I    between atoms: N_5  and  C_6 
REMARK    3  A    between atoms: C_6  and  C_7 
REMARK    4  A    between atoms: C_10  and  C_11 
REMARK    5  A    between atoms: C_11  and  C_12 
REMARK    6  A    between atoms: C_25  and  C_26 
ROOT
HETATM    1  N   UNL     1      39.076 -13.803   2.069  1.00  0.00    -0.307 N 
HETATM    2  C   UNL     1      39.848 -14.353   0.998  1.00  0.00     0.257 C 
HETATM    3  O   UNL     1      39.537 -14.000  -0.125  1.00  0.00    -0.267 OA
HETATM    4  H   UNL     1      38.173 -13.425   1.802  1.00  0.00     0.170 HD
ENDROOT
BRANCH   2   5
HETATM    5  C   UNL     1      40.905 -15.358   1.258  1.00  0.00     0.032 A 
HETATM    6  C   UNL     1      42.219 -14.966   1.542  1.00  0.00     0.017 A 
HETATM    7  C   UNL     1      43.204 -15.926   1.772  1.00  0.00     0.008 A 
HETATM    8  C   UNL     1      42.881 -17.287   1.778  1.00  0.00    -0.057 A 
HETATM    9  C   UNL     1      41.554 -17.671   1.532  1.00  0.00     0.008 A 
HETATM   10  C   UNL     1      40.568 -16.714   1.274  1.00  0.00     0.017 A 
BRANCH   8  11
HETATM   11  C   UNL     1      43.934 -18.334   2.085  1.00  0.00     0.053 C 
BRANCH  11  12
HETATM   12  C   UNL     1      43.450 -19.572   2.858  1.00  0.00     0.091 C 
HETATM   13  C   UNL     1      44.460 -20.008   3.890  1.00  0.00     0.229 C 
HETATM   14  O   UNL     1      44.840 -19.340   4.838  1.00  0.00    -0.273 OA
HETATM   15  N   UNL     1      44.943 -21.227   3.544  1.00  0.00    -0.297 N 
HETATM   16  C   UNL     1      44.419 -21.694   2.384  1.00  0.00     0.225 C 
HETATM   17  H   UNL     1      45.717 -21.666   4.017  1.00  0.00     0.171 HD
HETATM   18  O   UNL     1      44.816 -22.664   1.761  1.00  0.00    -0.273 OA
HETATM   19  C   UNL     1      43.255 -20.827   2.005  1.00  0.00     0.117 C 
ENDBRANCH  11  12
ENDBRANCH   8  11
ENDBRANCH   2   5
BRANCH   1  20
HETATM   20  C   UNL     1      39.490 -13.675   3.383  1.00  0.00     0.133 A 
HETATM   21  C   UNL     1      39.721 -12.475   4.031  1.00  0.00     0.018 A 
HETATM   22  C   UNL     1      40.049 -12.857   5.388  1.00  0.00     0.097 A 
HETATM   23  N   UNL     1      40.065 -14.199   5.495  1.00  0.00    -0.172 NA
HETATM   24  N   UNL     1      39.747 -14.659   4.288  1.00  0.00    -0.261 N 
HETATM   25  H   UNL     1      39.723 -15.665   4.158  1.00  0.00     0.191 HD
BRANCH  21  26
HETATM   26  C   UNL     1      39.539 -11.119   3.432  1.00  0.00     0.040 C 
HETATM   27  C   UNL     1      38.333 -10.387   4.001  1.00  0.00     0.010 C 
ENDBRANCH  21  26
BRANCH  22  28
HETATM   28  C   UNL     1      40.302 -12.053   6.602  1.00  0.00    -0.002 A 
HETATM   29  C   UNL     1      39.319 -11.997   7.602  1.00  0.00     0.033 A 
HETATM   30  C   UNL     1      39.534 -11.226   8.732  1.00  0.00     0.117 A 
HETATM   31  N   UNL     1      40.652 -10.504   8.936  1.00  0.00    -0.273 NA
HETATM   32  C   UNL     1      41.596 -10.574   7.978  1.00  0.00     0.117 A 
HETATM   33  C   UNL     1      41.473 -11.327   6.817  1.00  0.00     0.033 A 
ENDBRANCH  22  28
ENDBRANCH   1  20
TORSDOF 6
ENDMDL
MODEL 10
REMARK VINA RESULT:      -7.8      3.227      6.326
REMARK  6 active torsions:
REMARK  status: ('A' for Active; 'I' for Inactive)
REMARK    1  A    between atoms: C_2  and  C_3 
REMARK    2  A    between atoms: C_4  and  N_5 
REMARK       I    between atoms: N_5  and  C_6 
REMARK    3  A    between atoms: C_6  and  C_7 
REMARK    4  A    between atoms: C_10  and  C_11 
REMARK    5  A    between atoms: C_11  and  C_12 
REMARK    6  A    between atoms: C_25  and  C_26 
ROOT
HETATM    1  N   UNL     1      40.913 -14.650   1.908  1.00  0.00    -0.307 N 
HETATM    2  C   UNL     1      41.070 -15.852   1.149  1.00  0.00     0.257 C 
HETATM    3  O   UNL     1      40.412 -15.933   0.127  1.00  0.00    -0.267 OA
HETATM    4  H   UNL     1      40.071 -14.121   1.710  1.00  0.00     0.170 HD
ENDROOT
BRANCH   2   5
HETATM    5  C   UNL     1      41.925 -16.958   1.640  1.00  0.00     0.032 A 
HETATM    6  C   UNL     1      43.173 -17.218   1.059  1.00  0.00     0.017 A 
HETATM    7  C   UNL     1      43.960 -18.271   1.525  1.00  0.00     0.008 A 
HETATM    8  C   UNL     1      43.539 -19.042   2.614  1.00  0.00    -0.057 A 
HETATM    9  C   UNL     1      42.306 -18.751   3.216  1.00  0.00     0.008 A 
HETATM   10  C   UNL     1      41.500 -17.714   2.735  1.00  0.00     0.017 A 
BRANCH   8  11
HETATM   11  C   UNL     1      44.414 -20.151   3.164  1.00  0.00     0.053 C 
BRANCH  11  12
HETATM   12  C   UNL     1      45.051 -19.890   4.539  1.00  0.00     0.091 C 
HETATM   13  C   UNL     1      44.640 -20.936   5.545  1.00  0.00     0.229 C 
HETATM   14  O   UNL     1      44.873 -22.131   5.463  1.00  0.00    -0.273 OA
HETATM   15  N   UNL     1      43.894 -20.346   6.512  1.00  0.00    -0.297 N 
HETATM   16  C   UNL     1      43.706 -19.021   6.300  1.00  0.00     0.225 C 
HETATM   17  H   UNL     1      43.408 -20.867   7.225  1.00  0.00     0.171 HD
HETATM   18  O   UNL     1      42.929 -18.304   6.907  1.00  0.00    -0.273 OA
HETATM   19  C   UNL     1      44.630 -18.579   5.204  1.00  0.00     0.117 C 
ENDBRANCH  11  12
ENDBRANCH   8  11
ENDBRANCH   2   5
BRANCH   1  20
HETATM   20  C   UNL     1      41.832 -14.131   2.802  1.00  0.00     0.133 A 
HETATM   21  C   UNL     1      41.639 -14.018   4.167  1.00  0.00     0.018 A 
HETATM   22  C   UNL     1      42.894 -13.503   4.667  1.00  0.00     0.097 A 
HETATM   23  N   UNL     1      43.737 -13.275   3.642  1.00  0.00    -0.172 NA
HETATM   24  N   UNL     1      43.076 -13.640   2.546  1.00  0.00    -0.261 N 
HETATM   25  H   UNL     1      43.543 -13.525   1.653  1.00  0.00     0.191 HD
BRANCH  21  26
HETATM   26  C   UNL     1      40.418 -14.461   4.907  1.00  0.00     0.040 C 
HETATM   27  C   UNL     1      40.702 -15.607   5.867  1.00  0.00     0.010 C 
ENDBRANCH  21  26
BRANCH  22  28
HETATM   28  C   UNL     1      43.378 -13.253   6.041  1.00  0.00    -0.002 A 
HETATM   29  C   UNL     1      42.789 -12.229   6.799  1.00  0.00     0.033 A 
HETATM   30  C   UNL     1      43.253 -11.969   8.077  1.00  0.00     0.117 A 
HETATM   31  N   UNL     1      44.263 -12.650   8.653  1.00  0.00    -0.273 NA
HETATM   32  C   UNL     1      44.813 -13.640   7.924  1.00  0.00     0.117 A 
HETATM   33  C   UNL     1      44.408 -13.979   6.640  1.00  0.00     0.033 A 
ENDBRANCH  22  28
ENDBRANCH   1  20
TORSDOF 6
ENDMDL
