MODEL 1
REMARK VINA RESULT:      -9.2      0.000      0.000
REMARK  5 active torsions:
REMARK  status: ('A' for Active; 'I' for Inactive)
REMARK    1  A    between atoms: C_4  and  N_5 
REMARK    2  A    between atoms: N_5  and  N_6 
REMARK       I    between atoms: N_6  and  C_7 
REMARK    3  A    between atoms: C_7  and  C_8 
REMARK    4  A    between atoms: C_12  and  C_13 
REMARK    5  A    between atoms: C_13  and  C_14 
ROOT
HETATM    1  C   UNL     1      44.271 -14.371   6.263  1.00  0.00     0.102 A 
HETATM    2  N   UNL     1      43.903 -13.941   5.007  1.00  0.00    -0.360 N 
HETATM    3  H   UNL     1      44.177 -13.045   4.620  1.00  0.00     0.165 HD
HETATM    4  C   UNL     1      43.147 -14.896   4.378  1.00  0.00     0.104 A 
HETATM    5  C   UNL     1      42.995 -15.969   5.238  1.00  0.00     0.033 A 
HETATM    6  C   UNL     1      43.689 -15.615   6.435  1.00  0.00     0.052 A 
ENDROOT
BRANCH   1   7
HETATM    7  C   UNL     1      45.107 -13.565   7.127  1.00  0.00     0.282 C 
HETATM    8  N   UNL     1      44.577 -13.302   8.378  1.00  0.00    -0.281 N 
HETATM    9  H   UNL     1      43.783 -13.820   8.738  1.00  0.00     0.184 HD
HETATM   10  O   UNL     1      46.217 -13.160   6.784  1.00  0.00    -0.265 OA
BRANCH   8  11
HETATM   11  N   UNL     1      45.435 -12.762   9.359  1.00  0.00    -0.203 NA
HETATM   12  H   UNL     1      46.115 -12.132   8.911  1.00  0.00     0.153 HD
BRANCH  11  13
HETATM   13  C   UNL     1      44.749 -12.037  10.368  1.00  0.00     0.027 A 
HETATM   14  C   UNL     1      44.640 -10.648  10.217  1.00  0.00     0.025 A 
HETATM   15  C   UNL     1      43.935  -9.877  11.143  1.00  0.00     0.002 A 
HETATM   16  C   UNL     1      43.303 -10.491  12.221  1.00  0.00     0.000 A 
HETATM   17  C   UNL     1      43.369 -11.875  12.366  1.00  0.00     0.002 A 
HETATM   18  C   UNL     1      44.079 -12.645  11.440  1.00  0.00     0.025 A 
ENDBRANCH  11  13
ENDBRANCH   8  11
ENDBRANCH   1   7
BRANCH   5  19
HETATM   19  C   UNL     1      42.274 -17.219   5.009  1.00  0.00     0.195 C 
HETATM   20  O   UNL     1      41.189 -17.457   5.529  1.00  0.00    -0.287 OA
BRANCH  19  21
HETATM   21  C   UNL     1      42.907 -18.267   4.189  1.00  0.00     0.037 A 
HETATM   22  C   UNL     1      42.544 -18.464   2.852  1.00  0.00     0.049 A 
HETATM   23 CL   UNL     1      41.424 -17.434   2.038  1.00  0.00    -0.083 Cl
HETATM   24  C   UNL     1      43.121 -19.508   2.124  1.00  0.00     0.048 A 
HETATM   25  C   UNL     1      44.052 -20.347   2.735  1.00  0.00     0.035 A 
HETATM   26 CL   UNL     1      44.759 -21.634   1.838  1.00  0.00    -0.084 Cl
HETATM   27  C   UNL     1      44.417 -20.156   4.068  1.00  0.00     0.025 A 
HETATM   28  C   UNL     1      43.842 -19.117   4.800  1.00  0.00     0.019 A 
ENDBRANCH  19  21
ENDBRANCH   5  19
TORSDOF 5
ENDMDL
MODEL 2
REMARK VINA RESULT:      -9.1      1.095      1.763
REMARK  5 active torsions:
REMARK  status: ('A' for Active; 'I' for Inactive)
REMARK    1  A    between atoms: C_4  and  N_5 
REMARK    2  A    between atoms: N_5  and  N_6 
REMARK       I    between atoms: N_6  and  C_7 
REMARK    3  A    between atoms: C_7  and  C_8 
REMARK    4  A    between atoms: C_12  and  C_13 
REMARK    5  A    between atoms: C_13  and  C_14 
ROOT
HETATM    1  C   UNL     1      44.193 -14.469   6.187  1.00  0.00     0.102 A 
HETATM    2  N   UNL     1      43.847 -14.070   4.915  1.00  0.00    -0.360 N 
HETATM    3  H   UNL     1      44.134 -13.187   4.509  1.00  0.00     0.165 HD
HETATM    4  C   UNL     1      43.092 -15.035   4.302  1.00  0.00     0.104 A 
HETATM    5  C   UNL     1      42.917 -16.083   5.188  1.00  0.00     0.033 A 
HETATM    6  C   UNL     1      43.598 -15.703   6.384  1.00  0.00     0.052 A 
ENDROOT
BRANCH   1   7
HETATM    7  C   UNL     1      45.024 -13.648   7.042  1.00  0.00     0.282 C 
HETATM    8  N   UNL     1      44.483 -13.354   8.282  1.00  0.00    -0.281 N 
HETATM    9  H   UNL     1      43.683 -13.861   8.645  1.00  0.00     0.184 HD
HETATM   10  O   UNL     1      46.139 -13.256   6.700  1.00  0.00    -0.265 OA
BRANCH   8  11
HETATM   11  N   UNL     1      45.334 -12.797   9.258  1.00  0.00    -0.203 NA
HETATM   12  H   UNL     1      46.042 -12.205   8.800  1.00  0.00     0.153 HD
BRANCH  11  13
HETATM   13  C   UNL     1      44.646 -12.009  10.219  1.00  0.00     0.027 A 
HETATM   14  C   UNL     1      44.089 -12.665  11.325  1.00  0.00     0.025 A 
HETATM   15  C   UNL     1      43.443 -11.949  12.335  1.00  0.00     0.002 A 
HETATM   16  C   UNL     1      43.370 -10.561  12.264  1.00  0.00     0.000 A 
HETATM   17  C   UNL     1      43.950  -9.890  11.190  1.00  0.00     0.002 A 
HETATM   18  C   UNL     1      44.593 -10.609  10.179  1.00  0.00     0.025 A 
ENDBRANCH  11  13
ENDBRANCH   8  11
ENDBRANCH   1   7
BRANCH   5  19
HETATM   19  C   UNL     1      42.189 -17.332   4.981  1.00  0.00     0.195 C 
HETATM   20  O   UNL     1      41.080 -17.535   5.465  1.00  0.00    -0.287 OA
BRANCH  19  21
HETATM   21  C   UNL     1      42.840 -18.422   4.232  1.00  0.00     0.037 A 
HETATM   22  C   UNL     1      43.770 -19.270   4.844  1.00  0.00     0.049 A 
HETATM   23 CL   UNL     1      44.136 -19.179   6.527  1.00  0.00    -0.083 Cl
HETATM   24  C   UNL     1      44.414 -20.253   4.087  1.00  0.00     0.048 A 
HETATM   25  C   UNL     1      44.126 -20.380   2.728  1.00  0.00     0.035 A 
HETATM   26 CL   UNL     1      44.922 -21.588   1.797  1.00  0.00    -0.084 Cl
HETATM   27  C   UNL     1      43.200 -19.537   2.113  1.00  0.00     0.025 A 
HETATM   28  C   UNL     1      42.558 -18.552   2.864  1.00  0.00     0.019 A 
ENDBRANCH  19  21
ENDBRANCH   5  19
TORSDOF 5
ENDMDL
MODEL 3
REMARK VINA RESULT:      -8.3      2.253      2.624
REMARK  5 active torsions:
REMARK  status: ('A' for Active; 'I' for Inactive)
REMARK    1  A    between atoms: C_4  and  N_5 
REMARK    2  A    between atoms: N_5  and  N_6 
REMARK       I    between atoms: N_6  and  C_7 
REMARK    3  A    between atoms: C_7  and  C_8 
REMARK    4  A    between atoms: C_12  and  C_13 
REMARK    5  A    between atoms: C_13  and  C_14 
ROOT
HETATM    1  C   UNL     1      42.104 -13.309   4.829  1.00  0.00     0.102 A 
HETATM    2  N   UNL     1      43.164 -13.289   3.949  1.00  0.00    -0.360 N 
HETATM    3  H   UNL     1      43.797 -12.504   3.855  1.00  0.00     0.165 HD
HETATM    4  C   UNL     1      43.231 -14.470   3.256  1.00  0.00     0.104 A 
HETATM    5  C   UNL     1      42.187 -15.279   3.670  1.00  0.00     0.033 A 
HETATM    6  C   UNL     1      41.468 -14.525   4.646  1.00  0.00     0.052 A 
ENDROOT
BRANCH   1   7
HETATM    7  C   UNL     1      41.829 -12.196   5.713  1.00  0.00     0.282 C 
HETATM    8  N   UNL     1      42.252 -12.365   7.020  1.00  0.00    -0.281 N 
HETATM    9  H   UNL     1      42.900 -13.101   7.277  1.00  0.00     0.184 HD
HETATM   10  O   UNL     1      41.278 -11.166   5.327  1.00  0.00    -0.265 OA
BRANCH   8  11
HETATM   11  N   UNL     1      42.264 -11.234   7.862  1.00  0.00    -0.203 NA
HETATM   12  H   UNL     1      41.355 -11.152   8.341  1.00  0.00     0.153 HD
BRANCH  11  13
HETATM   13  C   UNL     1      43.286 -11.278   8.847  1.00  0.00     0.027 A 
HETATM   14  C   UNL     1      44.427 -12.044   8.571  1.00  0.00     0.025 A 
HETATM   15  C   UNL     1      45.495 -12.093   9.470  1.00  0.00     0.002 A 
HETATM   16  C   UNL     1      45.446 -11.350  10.647  1.00  0.00     0.000 A 
HETATM   17  C   UNL     1      44.336 -10.553  10.918  1.00  0.00     0.002 A 
HETATM   18  C   UNL     1      43.267 -10.510  10.019  1.00  0.00     0.025 A 
ENDBRANCH  11  13
ENDBRANCH   8  11
ENDBRANCH   1   7
BRANCH   5  19
HETATM   19  C   UNL     1      41.853 -16.628   3.219  1.00  0.00     0.195 C 
HETATM   20  O   UNL     1      40.826 -16.878   2.596  1.00  0.00    -0.287 OA
BRANCH  19  21
HETATM   21  C   UNL     1      42.739 -17.745   3.593  1.00  0.00     0.037 A 
HETATM   22  C   UNL     1      43.550 -18.378   2.646  1.00  0.00     0.049 A 
HETATM   23 CL   UNL     1      43.662 -17.835   1.013  1.00  0.00    -0.083 Cl
HETATM   24  C   UNL     1      44.331 -19.475   3.026  1.00  0.00     0.048 A 
HETATM   25  C   UNL     1      44.292 -19.930   4.343  1.00  0.00     0.035 A 
HETATM   26 CL   UNL     1      45.251 -21.281   4.807  1.00  0.00    -0.084 Cl
HETATM   27  C   UNL     1      43.484 -19.302   5.291  1.00  0.00     0.025 A 
HETATM   28  C   UNL     1      42.701 -18.210   4.917  1.00  0.00     0.019 A 
ENDBRANCH  19  21
ENDBRANCH   5  19
TORSDOF 5
ENDMDL
MODEL 4
REMARK VINA RESULT:      -8.2      3.230      3.835
REMARK  5 active torsions:
REMARK  status: ('A' for Active; 'I' for Inactive)
REMARK    1  A    between atoms: C_4  and  N_5 
REMARK    2  A    between atoms: N_5  and  N_6 
REMARK       I    between atoms: N_6  and  C_7 
REMARK    3  A    between atoms: C_7  and  C_8 
REMARK    4  A    between atoms: C_12  and  C_13 
REMARK    5  A    between atoms: C_13  and  C_14 
ROOT
HETATM    1  C   UNL     1      40.799 -15.011   5.838  1.00  0.00     0.102 A 
HETATM    2  N   UNL     1      40.239 -16.264   5.959  1.00  0.00    -0.360 N 
HETATM    3  H   UNL     1      39.241 -16.425   6.024  1.00  0.00     0.165 HD
HETATM    4  C   UNL     1      41.216 -17.225   5.959  1.00  0.00     0.104 A 
HETATM    5  C   UNL     1      42.445 -16.600   5.857  1.00  0.00     0.033 A 
HETATM    6  C   UNL     1      42.171 -15.199   5.806  1.00  0.00     0.052 A 
ENDROOT
BRANCH   1   7
HETATM    7  C   UNL     1      39.985 -13.817   5.775  1.00  0.00     0.282 C 
HETATM    8  N   UNL     1      39.639 -13.275   7.001  1.00  0.00    -0.281 N 
HETATM    9  H   UNL     1      40.108 -13.554   7.855  1.00  0.00     0.184 HD
HETATM   10  O   UNL     1      39.640 -13.308   4.709  1.00  0.00    -0.265 OA
BRANCH   8  11
HETATM   11  N   UNL     1      39.085 -11.978   7.017  1.00  0.00    -0.203 NA
HETATM   12  H   UNL     1      38.114 -12.024   7.361  1.00  0.00     0.153 HD
BRANCH  11  13
HETATM   13  C   UNL     1      39.807 -11.069   7.833  1.00  0.00     0.027 A 
HETATM   14  C   UNL     1      39.141 -10.499   8.926  1.00  0.00     0.025 A 
HETATM   15  C   UNL     1      39.803  -9.636   9.803  1.00  0.00     0.002 A 
HETATM   16  C   UNL     1      41.153  -9.354   9.611  1.00  0.00     0.000 A 
HETATM   17  C   UNL     1      41.841  -9.942   8.551  1.00  0.00     0.002 A 
HETATM   18  C   UNL     1      41.174 -10.802   7.674  1.00  0.00     0.025 A 
ENDBRANCH  11  13
ENDBRANCH   8  11
ENDBRANCH   1   7
BRANCH   5  19
HETATM   19  C   UNL     1      43.771 -17.210   5.814  1.00  0.00     0.195 C 
HETATM   20  O   UNL     1      44.704 -16.806   6.501  1.00  0.00    -0.287 OA
BRANCH  19  21
HETATM   21  C   UNL     1      44.025 -18.299   4.853  1.00  0.00     0.037 A 
HETATM   22  C   UNL     1      43.892 -18.099   3.475  1.00  0.00     0.049 A 
HETATM   23 CL   UNL     1      43.538 -16.553   2.796  1.00  0.00    -0.083 Cl
HETATM   24  C   UNL     1      44.079 -19.171   2.598  1.00  0.00     0.048 A 
HETATM   25  C   UNL     1      44.395 -20.432   3.103  1.00  0.00     0.035 A 
HETATM   26 CL   UNL     1      44.623 -21.751   2.022  1.00  0.00    -0.084 Cl
HETATM   27  C   UNL     1      44.528 -20.637   4.476  1.00  0.00     0.025 A 
HETATM   28  C   UNL     1      44.338 -19.572   5.356  1.00  0.00     0.019 A 
ENDBRANCH  19  21
ENDBRANCH   5  19
TORSDOF 5
ENDMDL
MODEL 5
REMARK VINA RESULT:      -8.2      2.432      3.076
REMARK  5 active torsions:
REMARK  status: ('A' for Active; 'I' for Inactive)
REMARK    1  A    between atoms: C_4  and  N_5 
REMARK    2  A    between atoms: N_5  and  N_6 
REMARK       I    between atoms: N_6  and  C_7 
REMARK    3  A    between atoms: C_7  and  C_8 
REMARK    4  A    between atoms: C_12  and  C_13 
REMARK    5  A    between atoms: C_13  and  C_14 
ROOT
HETATM    1  C   UNL     1      41.780 -14.819   5.204  1.00  0.00     0.102 A 
HETATM    2  N   UNL     1      40.871 -15.837   5.023  1.00  0.00    -0.360 N 
HETATM    3  H   UNL     1      39.958 -15.856   5.464  1.00  0.00     0.165 HD
HETATM    4  C   UNL     1      41.375 -16.781   4.167  1.00  0.00     0.104 A 
HETATM    5  C   UNL     1      42.648 -16.393   3.789  1.00  0.00     0.033 A 
HETATM    6  C   UNL     1      42.902 -15.164   4.470  1.00  0.00     0.052 A 
ENDROOT
BRANCH   1   7
HETATM    7  C   UNL     1      41.483 -13.672   6.036  1.00  0.00     0.282 C 
HETATM    8  N   UNL     1      42.559 -13.162   6.741  1.00  0.00    -0.281 N 
HETATM    9  H   UNL     1      43.513 -13.423   6.516  1.00  0.00     0.184 HD
HETATM   10  O   UNL     1      40.360 -13.173   6.097  1.00  0.00    -0.265 OA
BRANCH   8  11
HETATM   11  N   UNL     1      42.411 -11.900   7.351  1.00  0.00    -0.203 NA
HETATM   12  H   UNL     1      41.455 -11.809   7.726  1.00  0.00     0.153 HD
BRANCH  11  13
HETATM   13  C   UNL     1      43.330 -11.676   8.411  1.00  0.00     0.027 A 
HETATM   14  C   UNL     1      44.553 -12.359   8.370  1.00  0.00     0.025 A 
HETATM   15  C   UNL     1      45.526 -12.150   9.350  1.00  0.00     0.002 A 
HETATM   16  C   UNL     1      45.297 -11.231  10.370  1.00  0.00     0.000 A 
HETATM   17  C   UNL     1      44.102 -10.516  10.405  1.00  0.00     0.002 A 
HETATM   18  C   UNL     1      43.128 -10.730   9.425  1.00  0.00     0.025 A 
ENDBRANCH  11  13
ENDBRANCH   8  11
ENDBRANCH   1   7
BRANCH   5  19
HETATM   19  C   UNL     1      43.573 -17.075   2.888  1.00  0.00     0.195 C 
HETATM   20  O   UNL     1      44.104 -16.509   1.938  1.00  0.00    -0.287 OA
BRANCH  19  21
HETATM   21  C   UNL     1      43.816 -18.517   3.074  1.00  0.00     0.037 A 
HETATM   22  C   UNL     1      44.400 -19.011   4.245  1.00  0.00     0.049 A 
HETATM   23 CL   UNL     1      44.769 -17.998   5.592  1.00  0.00    -0.083 Cl
HETATM   24  C   UNL     1      44.672 -20.377   4.360  1.00  0.00     0.048 A 
HETATM   25  C   UNL     1      44.363 -21.237   3.306  1.00  0.00     0.035 A 
HETATM   26 CL   UNL     1      44.703 -22.918   3.449  1.00  0.00    -0.084 Cl
HETATM   27  C   UNL     1      43.782 -20.749   2.136  1.00  0.00     0.025 A 
HETATM   28  C   UNL     1      43.511 -19.386   2.014  1.00  0.00     0.019 A 
ENDBRANCH  19  21
ENDBRANCH   5  19
TORSDOF 5
ENDMDL
MODEL 6
REMARK VINA RESULT:      -8.1      6.464      9.171
REMARK  5 active torsions:
REMARK  status: ('A' for Active; 'I' for Inactive)
REMARK    1  A    between atoms: C_4  and  N_5 
REMARK    2  A    between atoms: N_5  and  N_6 
REMARK       I    between atoms: N_6  and  C_7 
REMARK    3  A    between atoms: C_7  and  C_8 
REMARK    4  A    between atoms: C_12  and  C_13 
REMARK    5  A    between atoms: C_13  and  C_14 
ROOT
HETATM    1  C   UNL     1      40.910 -16.197   2.374  1.00  0.00     0.102 A 
HETATM    2  N   UNL     1      39.647 -15.784   2.735  1.00  0.00    -0.360 N 
HETATM    3  H   UNL     1      39.191 -16.067   3.595  1.00  0.00     0.165 HD
HETATM    4  C   UNL     1      39.129 -14.944   1.784  1.00  0.00     0.104 A 
HETATM    5  C   UNL     1      40.056 -14.812   0.766  1.00  0.00     0.033 A 
HETATM    6  C   UNL     1      41.167 -15.628   1.139  1.00  0.00     0.052 A 
ENDROOT
BRANCH   1   7
HETATM    7  C   UNL     1      41.699 -17.063   3.224  1.00  0.00     0.282 C 
HETATM    8  N   UNL     1      42.907 -17.472   2.686  1.00  0.00    -0.281 N 
HETATM    9  H   UNL     1      43.306 -17.019   1.871  1.00  0.00     0.184 HD
HETATM   10  O   UNL     1      41.333 -17.397   4.350  1.00  0.00    -0.265 OA
BRANCH   8  11
HETATM   11  N   UNL     1      43.840 -18.086   3.547  1.00  0.00    -0.203 NA
HETATM   12  H   UNL     1      43.546 -17.949   4.525  1.00  0.00     0.153 HD
BRANCH  11  13
HETATM   13  C   UNL     1      43.987 -19.479   3.315  1.00  0.00     0.027 A 
HETATM   14  C   UNL     1      43.599 -19.978   2.064  1.00  0.00     0.025 A 
HETATM   15  C   UNL     1      43.762 -21.328   1.746  1.00  0.00     0.002 A 
HETATM   16  C   UNL     1      44.344 -22.193   2.669  1.00  0.00     0.000 A 
HETATM   17  C   UNL     1      44.770 -21.706   3.903  1.00  0.00     0.002 A 
HETATM   18  C   UNL     1      44.602 -20.355   4.220  1.00  0.00     0.025 A 
ENDBRANCH  11  13
ENDBRANCH   8  11
ENDBRANCH   1   7
BRANCH   5  19
HETATM   19  C   UNL     1      39.952 -14.019  -0.456  1.00  0.00     0.195 C 
HETATM   20  O   UNL     1      39.106 -14.242  -1.316  1.00  0.00    -0.287 OA
BRANCH  19  21
HETATM   21  C   UNL     1      40.949 -12.962  -0.707  1.00  0.00     0.037 A 
HETATM   22  C   UNL     1      41.823 -13.032  -1.798  1.00  0.00     0.049 A 
HETATM   23 CL   UNL     1      41.725 -14.282  -2.982  1.00  0.00    -0.083 Cl
HETATM   24  C   UNL     1      42.796 -12.043  -1.969  1.00  0.00     0.048 A 
HETATM   25  C   UNL     1      42.892 -10.998  -1.050  1.00  0.00     0.035 A 
HETATM   26 CL   UNL     1      44.093  -9.785  -1.261  1.00  0.00    -0.084 Cl
HETATM   27  C   UNL     1      42.024 -10.925   0.039  1.00  0.00     0.025 A 
HETATM   28  C   UNL     1      41.053 -11.911   0.216  1.00  0.00     0.019 A 
ENDBRANCH  19  21
ENDBRANCH   5  19
TORSDOF 5
ENDMDL
MODEL 7
REMARK VINA RESULT:      -8.1      1.884      2.991
REMARK  5 active torsions:
REMARK  status: ('A' for Active; 'I' for Inactive)
REMARK    1  A    between atoms: C_4  and  N_5 
REMARK    2  A    between atoms: N_5  and  N_6 
REMARK       I    between atoms: N_6  and  C_7 
REMARK    3  A    between atoms: C_7  and  C_8 
REMARK    4  A    between atoms: C_12  and  C_13 
REMARK    5  A    between atoms: C_13  and  C_14 
ROOT
HETATM    1  C   UNL     1      44.003 -15.099   6.863  1.00  0.00     0.102 A 
HETATM    2  N   UNL     1      43.525 -15.961   7.826  1.00  0.00    -0.360 N 
HETATM    3  H   UNL     1      43.658 -15.817   8.821  1.00  0.00     0.165 HD
HETATM    4  C   UNL     1      42.849 -17.000   7.243  1.00  0.00     0.104 A 
HETATM    5  C   UNL     1      42.895 -16.837   5.870  1.00  0.00     0.033 A 
HETATM    6  C   UNL     1      43.648 -15.645   5.642  1.00  0.00     0.052 A 
ENDROOT
BRANCH   1   7
HETATM    7  C   UNL     1      44.724 -13.894   7.212  1.00  0.00     0.282 C 
HETATM    8  N   UNL     1      44.079 -13.062   8.110  1.00  0.00    -0.281 N 
HETATM    9  H   UNL     1      43.282 -13.380   8.651  1.00  0.00     0.184 HD
HETATM   10  O   UNL     1      45.838 -13.635   6.759  1.00  0.00    -0.265 OA
BRANCH   8  11
HETATM   11  N   UNL     1      44.824 -12.019   8.699  1.00  0.00    -0.203 NA
HETATM   12  H   UNL     1      45.163 -11.382   7.963  1.00  0.00     0.153 HD
BRANCH  11  13
HETATM   13  C   UNL     1      44.082 -11.261   9.642  1.00  0.00     0.027 A 
HETATM   14  C   UNL     1      44.650 -11.051  10.906  1.00  0.00     0.025 A 
HETATM   15  C   UNL     1      44.001 -10.272  11.866  1.00  0.00     0.002 A 
HETATM   16  C   UNL     1      42.784  -9.669  11.563  1.00  0.00     0.000 A 
HETATM   17  C   UNL     1      42.223  -9.836  10.299  1.00  0.00     0.002 A 
HETATM   18  C   UNL     1      42.873 -10.618   9.341  1.00  0.00     0.025 A 
ENDBRANCH  11  13
ENDBRANCH   8  11
ENDBRANCH   1   7
BRANCH   5  19
HETATM   19  C   UNL     1      42.314 -17.689   4.836  1.00  0.00     0.195 C 
HETATM   20  O   UNL     1      42.095 -18.882   5.014  1.00  0.00    -0.287 OA
BRANCH  19  21
HETATM   21  C   UNL     1      42.055 -17.117   3.502  1.00  0.00     0.037 A 
HETATM   22  C   UNL     1      42.892 -17.395   2.417  1.00  0.00     0.049 A 
HETATM   23 CL   UNL     1      44.208 -18.506   2.525  1.00  0.00    -0.083 Cl
HETATM   24  C   UNL     1      42.652 -16.785   1.182  1.00  0.00     0.048 A 
HETATM   25  C   UNL     1      41.581 -15.902   1.043  1.00  0.00     0.035 A 
HETATM   26 CL   UNL     1      41.289 -15.150  -0.477  1.00  0.00    -0.084 Cl
HETATM   27  C   UNL     1      40.744 -15.620   2.122  1.00  0.00     0.025 A 
HETATM   28  C   UNL     1      40.982 -16.224   3.357  1.00  0.00     0.019 A 
ENDBRANCH  19  21
ENDBRANCH   5  19
TORSDOF 5
ENDMDL
MODEL 8
REMARK VINA RESULT:      -8.1      3.350      3.976
REMARK  5 active torsions:
REMARK  status: ('A' for Active; 'I' for Inactive)
REMARK    1  A    between atoms: C_4  and  N_5 
REMARK    2  A    between atoms: N_5  and  N_6 
REMARK       I    between atoms: N_6  and  C_7 
REMARK    3  A    between atoms: C_7  and  C_8 
REMARK    4  A    between atoms: C_12  and  C_13 
REMARK    5  A    between atoms: C_13  and  C_14 
ROOT
HETATM    1  C   UNL     1      40.872 -14.905   5.829  1.00  0.00     0.102 A 
HETATM    2  N   UNL     1      40.224 -16.114   5.946  1.00  0.00    -0.360 N 
HETATM    3  H   UNL     1      39.216 -16.204   6.008  1.00  0.00     0.165 HD
HETATM    4  C   UNL     1      41.129 -17.143   5.948  1.00  0.00     0.104 A 
HETATM    5  C   UNL     1      42.401 -16.607   5.850  1.00  0.00     0.033 A 
HETATM    6  C   UNL     1      42.227 -15.190   5.800  1.00  0.00     0.052 A 
ENDROOT
BRANCH   1   7
HETATM    7  C   UNL     1      40.145 -13.655   5.764  1.00  0.00     0.282 C 
HETATM    8  N   UNL     1      39.566 -13.249   6.954  1.00  0.00    -0.281 N 
HETATM    9  H   UNL     1      39.825 -13.669   7.840  1.00  0.00     0.184 HD
HETATM   10  O   UNL     1      40.063 -12.991   4.732  1.00  0.00    -0.265 OA
BRANCH   8  11
HETATM   11  N   UNL     1      39.080 -11.928   7.035  1.00  0.00    -0.203 NA
HETATM   12  H   UNL     1      38.101 -11.941   7.357  1.00  0.00     0.153 HD
BRANCH  11  13
HETATM   13  C   UNL     1      39.831 -11.106   7.917  1.00  0.00     0.027 A 
HETATM   14  C   UNL     1      40.890 -10.365   7.377  1.00  0.00     0.025 A 
HETATM   15  C   UNL     1      41.640  -9.496   8.173  1.00  0.00     0.002 A 
HETATM   16  C   UNL     1      41.319  -9.338   9.519  1.00  0.00     0.000 A 
HETATM   17  C   UNL     1      40.246 -10.039  10.063  1.00  0.00     0.002 A 
HETATM   18  C   UNL     1      39.500 -10.910   9.264  1.00  0.00     0.025 A 
ENDBRANCH  11  13
ENDBRANCH   8  11
ENDBRANCH   1   7
BRANCH   5  19
HETATM   19  C   UNL     1      43.680 -17.310   5.811  1.00  0.00     0.195 C 
HETATM   20  O   UNL     1      44.640 -16.969   6.495  1.00  0.00    -0.287 OA
BRANCH  19  21
HETATM   21  C   UNL     1      43.854 -18.421   4.858  1.00  0.00     0.037 A 
HETATM   22  C   UNL     1      44.035 -19.736   5.299  1.00  0.00     0.049 A 
HETATM   23 CL   UNL     1      43.952 -20.172   6.966  1.00  0.00    -0.083 Cl
HETATM   24  C   UNL     1      44.259 -20.754   4.367  1.00  0.00     0.048 A 
HETATM   25  C   UNL     1      44.305 -20.451   3.007  1.00  0.00     0.035 A 
HETATM   26 CL   UNL     1      44.584 -21.705   1.863  1.00  0.00    -0.084 Cl
HETATM   27  C   UNL     1      44.127 -19.141   2.562  1.00  0.00     0.025 A 
HETATM   28  C   UNL     1      43.906 -18.121   3.488  1.00  0.00     0.019 A 
ENDBRANCH  19  21
ENDBRANCH   5  19
TORSDOF 5
ENDMDL
MODEL 9
REMARK VINA RESULT:      -8.0      5.387      8.993
REMARK  5 active torsions:
REMARK  status: ('A' for Active; 'I' for Inactive)
REMARK    1  A    between atoms: C_4  and  N_5 
REMARK    2  A    between atoms: N_5  and  N_6 
REMARK       I    between atoms: N_6  and  C_7 
REMARK    3  A    between atoms: C_7  and  C_8 
REMARK    4  A    between atoms: C_12  and  C_13 
REMARK    5  A    between atoms: C_13  and  C_14 
ROOT
HETATM    1  C   UNL     1      41.905 -15.085   1.593  1.00  0.00     0.102 A 
HETATM    2  N   UNL     1      40.892 -15.938   1.972  1.00  0.00    -0.360 N 
HETATM    3  H   UNL     1      40.038 -16.063   1.440  1.00  0.00     0.165 HD
HETATM    4  C   UNL     1      41.220 -16.581   3.137  1.00  0.00     0.104 A 
HETATM    5  C   UNL     1      42.463 -16.134   3.548  1.00  0.00     0.033 A 
HETATM    6  C   UNL     1      42.875 -15.171   2.577  1.00  0.00     0.052 A 
ENDROOT
BRANCH   1   7
HETATM    7  C   UNL     1      41.830 -14.308   0.374  1.00  0.00     0.282 C 
HETATM    8  N   UNL     1      41.924 -15.041  -0.796  1.00  0.00    -0.281 N 
HETATM    9  H   UNL     1      41.821 -16.049  -0.801  1.00  0.00     0.184 HD
HETATM   10  O   UNL     1      41.673 -13.088   0.376  1.00  0.00    -0.265 OA
BRANCH   8  11
HETATM   11  N   UNL     1      41.591 -14.398  -2.007  1.00  0.00    -0.203 NA
HETATM   12  H   UNL     1      42.315 -14.598  -2.713  1.00  0.00     0.153 HD
BRANCH  11  13
HETATM   13  C   UNL     1      40.333 -14.801  -2.528  1.00  0.00     0.027 A 
HETATM   14  C   UNL     1      39.214 -14.016  -2.216  1.00  0.00     0.025 A 
HETATM   15  C   UNL     1      37.954 -14.322  -2.735  1.00  0.00     0.002 A 
HETATM   16  C   UNL     1      37.803 -15.403  -3.598  1.00  0.00     0.000 A 
HETATM   17  C   UNL     1      38.911 -16.171  -3.949  1.00  0.00     0.002 A 
HETATM   18  C   UNL     1      40.170 -15.865  -3.425  1.00  0.00     0.025 A 
ENDBRANCH  11  13
ENDBRANCH   8  11
ENDBRANCH   1   7
BRANCH   5  19
HETATM   19  C   UNL     1      43.225 -16.535   4.728  1.00  0.00     0.195 C 
HETATM   20  O   UNL     1      43.618 -15.727   5.562  1.00  0.00    -0.287 OA
BRANCH  19  21
HETATM   21  C   UNL     1      43.607 -17.950   4.884  1.00  0.00     0.037 A 
HETATM   22  C   UNL     1      43.508 -18.598   6.119  1.00  0.00     0.049 A 
HETATM   23 CL   UNL     1      42.831 -17.836   7.511  1.00  0.00    -0.083 Cl
HETATM   24  C   UNL     1      43.938 -19.923   6.243  1.00  0.00     0.048 A 
HETATM   25  C   UNL     1      44.465 -20.587   5.135  1.00  0.00     0.035 A 
HETATM   26 CL   UNL     1      44.997 -22.215   5.291  1.00  0.00    -0.084 Cl
HETATM   27  C   UNL     1      44.567 -19.944   3.902  1.00  0.00     0.025 A 
HETATM   28  C   UNL     1      44.143 -18.621   3.774  1.00  0.00     0.019 A 
ENDBRANCH  19  21
ENDBRANCH   5  19
TORSDOF 5
ENDMDL
MODEL 10
REMARK VINA RESULT:      -8.0      6.407      9.390
REMARK  5 active torsions:
REMARK  status: ('A' for Active; 'I' for Inactive)
REMARK    1  A    between atoms: C_4  and  N_5 
REMARK    2  A    between atoms: N_5  and  N_6 
REMARK       I    between atoms: N_6  and  C_7 
REMARK    3  A    between atoms: C_7  and  C_8 
REMARK    4  A    between atoms: C_12  and  C_13 
REMARK    5  A    between atoms: C_13  and  C_14 
ROOT
HETATM    1  C   UNL     1      41.046 -16.102   2.277  1.00  0.00     0.102 A 
HETATM    2  N   UNL     1      39.774 -15.645   2.538  1.00  0.00    -0.360 N 
HETATM    3  H   UNL     1      39.224 -15.948   3.335  1.00  0.00     0.165 HD
HETATM    4  C   UNL     1      39.390 -14.733   1.590  1.00  0.00     0.104 A 
HETATM    5  C   UNL     1      40.416 -14.597   0.674  1.00  0.00     0.033 A 
HETATM    6  C   UNL     1      41.448 -15.485   1.104  1.00  0.00     0.052 A 
ENDROOT
BRANCH   1   7
HETATM    7  C   UNL     1      41.709 -17.049   3.148  1.00  0.00     0.282 C 
HETATM    8  N   UNL     1      42.979 -17.426   2.749  1.00  0.00    -0.281 N 
HETATM    9  H   UNL     1      43.488 -16.910   2.040  1.00  0.00     0.184 HD
HETATM   10  O   UNL     1      41.190 -17.474   4.179  1.00  0.00    -0.265 OA
BRANCH   8  11
HETATM   11  N   UNL     1      43.783 -18.124   3.674  1.00  0.00    -0.203 NA
HETATM   12  H   UNL     1      43.329 -18.113   4.599  1.00  0.00     0.153 HD
BRANCH  11  13
HETATM   13  C   UNL     1      44.018 -19.475   3.306  1.00  0.00     0.027 A 
HETATM   14  C   UNL     1      44.606 -20.320   4.258  1.00  0.00     0.025 A 
HETATM   15  C   UNL     1      44.819 -21.673   3.985  1.00  0.00     0.002 A 
HETATM   16  C   UNL     1      44.420 -22.205   2.762  1.00  0.00     0.000 A 
HETATM   17  C   UNL     1      43.800 -21.388   1.819  1.00  0.00     0.002 A 
HETATM   18  C   UNL     1      43.591 -20.034   2.094  1.00  0.00     0.025 A 
ENDBRANCH  11  13
ENDBRANCH   8  11
ENDBRANCH   1   7
BRANCH   5  19
HETATM   19  C   UNL     1      40.468 -13.739  -0.507  1.00  0.00     0.195 C 
HETATM   20  O   UNL     1      41.289 -12.835  -0.628  1.00  0.00    -0.287 OA
BRANCH  19  21
HETATM   21  C   UNL     1      39.448 -13.908  -1.558  1.00  0.00     0.037 A 
HETATM   22  C   UNL     1      39.647 -14.786  -2.629  1.00  0.00     0.049 A 
HETATM   23 CL   UNL     1      41.031 -15.809  -2.742  1.00  0.00    -0.083 Cl
HETATM   24  C   UNL     1      38.684 -14.874  -3.639  1.00  0.00     0.048 A 
HETATM   25  C   UNL     1      37.536 -14.085  -3.573  1.00  0.00     0.035 A 
HETATM   26 CL   UNL     1      36.355 -14.192  -4.819  1.00  0.00    -0.084 Cl
HETATM   27  C   UNL     1      37.334 -13.208  -2.507  1.00  0.00     0.025 A 
HETATM   28  C   UNL     1      38.293 -13.113  -1.499  1.00  0.00     0.019 A 
ENDBRANCH  19  21
ENDBRANCH   5  19
TORSDOF 5
ENDMDL
