MODEL 1
REMARK VINA RESULT:      -8.8      0.000      0.000
REMARK  5 active torsions:
REMARK  status: ('A' for Active; 'I' for Inactive)
REMARK    1  A    between atoms: O_2  and  C_3 
REMARK    2  A    between atoms: C_7  and  C_8 
REMARK    3  A    between atoms: C_8  and  N_9 
REMARK       I    between atoms: N_9  and  C_10 
REMARK    4  A    between atoms: C_10  and  C_12 
REMARK    5  A    between atoms: C_18  and  C_22 
ROOT
HETATM    1  C   UNL     1      39.777 -14.917   2.193  1.00  0.00     0.061 A 
HETATM    2  C   UNL     1      39.690 -14.604   3.546  1.00  0.00     0.108 A 
HETATM    3  N   UNL     1      40.492 -15.469   4.246  1.00  0.00    -0.349 N 
HETATM    4  H   UNL     1      40.629 -15.490   5.246  1.00  0.00     0.167 HD
HETATM    5  C   UNL     1      41.098 -16.338   3.385  1.00  0.00     0.139 A 
HETATM    6  N   UNL     1      41.946 -17.308   3.769  1.00  0.00    -0.230 NA
HETATM    7  C   UNL     1      42.423 -18.068   2.749  1.00  0.00     0.069 A 
HETATM    8  C   UNL     1      42.079 -17.854   1.410  1.00  0.00     0.033 A 
HETATM    9  C   UNL     1      41.193 -16.828   1.065  1.00  0.00     0.018 A 
HETATM   10  C   UNL     1      40.676 -16.033   2.100  1.00  0.00     0.027 A 
ENDROOT
BRANCH   1  11
HETATM   11  C   UNL     1      39.085 -14.264   1.082  1.00  0.00     0.254 C 
HETATM   12  N   UNL     1      39.901 -13.666   0.152  1.00  0.00    -0.353 N 
HETATM   13  H   UNL     1      40.898 -13.813   0.192  1.00  0.00     0.163 HD
HETATM   14  O   UNL     1      37.862 -14.259   0.979  1.00  0.00    -0.268 OA
BRANCH  12  15
HETATM   15  C   UNL     1      39.351 -13.026  -1.017  1.00  0.00     0.161 C 
BRANCH  15  16
HETATM   16  C   UNL     1      39.178 -14.019  -2.134  1.00  0.00    -0.038 A 
HETATM   17  C   UNL     1      40.191 -14.949  -2.411  1.00  0.00     0.009 A 
HETATM   18  C   UNL     1      40.026 -15.889  -3.424  1.00  0.00     0.003 A 
HETATM   19  C   UNL     1      38.845 -15.909  -4.166  1.00  0.00     0.037 A 
HETATM   20  C   UNL     1      37.821 -14.996  -3.903  1.00  0.00     0.068 A 
HETATM   21  C   UNL     1      37.990 -14.055  -2.884  1.00  0.00     0.045 A 
BRANCH  20  22
HETATM   22  O   UNL     1      36.719 -15.130  -4.702  1.00  0.00    -0.356 OA
HETATM   23  C   UNL     1      35.954 -13.957  -4.949  1.00  0.00     0.210 C 
ENDBRANCH  20  22
ENDBRANCH  15  16
ENDBRANCH  12  15
ENDBRANCH   1  11
BRANCH   7  24
HETATM   24  C   UNL     1      43.353 -19.143   3.162  1.00  0.00    -0.005 A 
HETATM   25  C   UNL     1      43.680 -20.216   2.322  1.00  0.00     0.033 A 
HETATM   26  C   UNL     1      44.561 -21.191   2.774  1.00  0.00     0.117 A 
HETATM   27  N   UNL     1      45.136 -21.178   3.992  1.00  0.00    -0.273 NA
HETATM   28  C   UNL     1      44.808 -20.150   4.799  1.00  0.00     0.117 A 
HETATM   29  C   UNL     1      43.940 -19.132   4.436  1.00  0.00     0.033 A 
ENDBRANCH   7  24
TORSDOF 5
ENDMDL
MODEL 2
REMARK VINA RESULT:      -8.4      2.354      3.061
REMARK  5 active torsions:
REMARK  status: ('A' for Active; 'I' for Inactive)
REMARK    1  A    between atoms: O_2  and  C_3 
REMARK    2  A    between atoms: C_7  and  C_8 
REMARK    3  A    between atoms: C_8  and  N_9 
REMARK       I    between atoms: N_9  and  C_10 
REMARK    4  A    between atoms: C_10  and  C_12 
REMARK    5  A    between atoms: C_18  and  C_22 
ROOT
HETATM    1  C   UNL     1      41.652 -14.877   2.670  1.00  0.00     0.061 A 
HETATM    2  C   UNL     1      40.700 -15.189   3.635  1.00  0.00     0.108 A 
HETATM    3  N   UNL     1      40.881 -16.494   4.019  1.00  0.00    -0.349 N 
HETATM    4  H   UNL     1      40.337 -17.003   4.701  1.00  0.00     0.167 HD
HETATM    5  C   UNL     1      41.924 -17.040   3.329  1.00  0.00     0.139 A 
HETATM    6  N   UNL     1      42.347 -18.305   3.484  1.00  0.00    -0.230 NA
HETATM    7  C   UNL     1      43.393 -18.646   2.686  1.00  0.00     0.069 A 
HETATM    8  C   UNL     1      43.993 -17.754   1.790  1.00  0.00     0.033 A 
HETATM    9  C   UNL     1      43.515 -16.446   1.670  1.00  0.00     0.018 A 
HETATM   10  C   UNL     1      42.428 -16.070   2.476  1.00  0.00     0.027 A 
ENDROOT
BRANCH   1  11
HETATM   11  C   UNL     1      41.827 -13.603   1.971  1.00  0.00     0.254 C 
HETATM   12  N   UNL     1      40.792 -13.241   1.142  1.00  0.00    -0.353 N 
HETATM   13  H   UNL     1      39.932 -13.769   1.155  1.00  0.00     0.163 HD
HETATM   14  O   UNL     1      42.822 -12.901   2.120  1.00  0.00    -0.268 OA
BRANCH  12  15
HETATM   15  C   UNL     1      40.815 -11.989   0.429  1.00  0.00     0.161 C 
BRANCH  15  16
HETATM   16  C   UNL     1      41.236 -12.199  -1.000  1.00  0.00    -0.038 A 
HETATM   17  C   UNL     1      41.823 -11.149  -1.721  1.00  0.00     0.009 A 
HETATM   18  C   UNL     1      42.243 -11.346  -3.034  1.00  0.00     0.003 A 
HETATM   19  C   UNL     1      42.082 -12.594  -3.635  1.00  0.00     0.037 A 
HETATM   20  C   UNL     1      41.505 -13.655  -2.933  1.00  0.00     0.068 A 
HETATM   21  C   UNL     1      41.087 -13.455  -1.615  1.00  0.00     0.045 A 
BRANCH  20  22
HETATM   22  O   UNL     1      41.412 -14.822  -3.639  1.00  0.00    -0.356 OA
HETATM   23  C   UNL     1      40.530 -15.816  -3.132  1.00  0.00     0.210 C 
ENDBRANCH  20  22
ENDBRANCH  15  16
ENDBRANCH  12  15
ENDBRANCH   1  11
BRANCH   7  24
HETATM   24  C   UNL     1      43.863 -20.041   2.844  1.00  0.00    -0.005 A 
HETATM   25  C   UNL     1      44.420 -20.514   4.041  1.00  0.00     0.033 A 
HETATM   26  C   UNL     1      44.840 -21.835   4.120  1.00  0.00     0.117 A 
HETATM   27  N   UNL     1      44.749 -22.716   3.104  1.00  0.00    -0.273 NA
HETATM   28  C   UNL     1      44.224 -22.251   1.953  1.00  0.00     0.117 A 
HETATM   29  C   UNL     1      43.777 -20.950   1.780  1.00  0.00     0.033 A 
ENDBRANCH   7  24
TORSDOF 5
ENDMDL
MODEL 3
REMARK VINA RESULT:      -8.4      1.752      2.001
REMARK  5 active torsions:
REMARK  status: ('A' for Active; 'I' for Inactive)
REMARK    1  A    between atoms: O_2  and  C_3 
REMARK    2  A    between atoms: C_7  and  C_8 
REMARK    3  A    between atoms: C_8  and  N_9 
REMARK       I    between atoms: N_9  and  C_10 
REMARK    4  A    between atoms: C_10  and  C_12 
REMARK    5  A    between atoms: C_18  and  C_22 
ROOT
HETATM    1  C   UNL     1      42.429 -14.486   2.134  1.00  0.00     0.061 A 
HETATM    2  C   UNL     1      42.514 -14.169   3.486  1.00  0.00     0.108 A 
HETATM    3  N   UNL     1      42.915 -15.288   4.171  1.00  0.00    -0.349 N 
HETATM    4  H   UNL     1      43.059 -15.366   5.168  1.00  0.00     0.167 HD
HETATM    5  C   UNL     1      43.092 -16.326   3.302  1.00  0.00     0.139 A 
HETATM    6  N   UNL     1      43.484 -17.557   3.671  1.00  0.00    -0.230 NA
HETATM    7  C   UNL     1      43.583 -18.442   2.646  1.00  0.00     0.069 A 
HETATM    8  C   UNL     1      43.318 -18.102   1.314  1.00  0.00     0.033 A 
HETATM    9  C   UNL     1      42.917 -16.804   0.984  1.00  0.00     0.018 A 
HETATM   10  C   UNL     1      42.795 -15.871   2.026  1.00  0.00     0.027 A 
ENDROOT
BRANCH   1  11
HETATM   11  C   UNL     1      42.031 -13.605   1.036  1.00  0.00     0.254 C 
HETATM   12  N   UNL     1      41.137 -14.147   0.144  1.00  0.00    -0.353 N 
HETATM   13  H   UNL     1      40.702 -15.034   0.347  1.00  0.00     0.163 HD
HETATM   14  O   UNL     1      42.456 -12.460   0.923  1.00  0.00    -0.268 OA
BRANCH  12  15
HETATM   15  C   UNL     1      40.626 -13.372  -0.959  1.00  0.00     0.161 C 
BRANCH  15  16
HETATM   16  C   UNL     1      40.029 -14.270  -2.008  1.00  0.00    -0.038 A 
HETATM   17  C   UNL     1      40.729 -15.405  -2.443  1.00  0.00     0.009 A 
HETATM   18  C   UNL     1      40.169 -16.256  -3.392  1.00  0.00     0.003 A 
HETATM   19  C   UNL     1      38.904 -15.981  -3.910  1.00  0.00     0.037 A 
HETATM   20  C   UNL     1      38.187 -14.860  -3.487  1.00  0.00     0.068 A 
HETATM   21  C   UNL     1      38.751 -14.009  -2.534  1.00  0.00     0.045 A 
BRANCH  20  22
HETATM   22  O   UNL     1      36.960 -14.713  -4.073  1.00  0.00    -0.356 OA
HETATM   23  C   UNL     1      36.486 -13.384  -4.254  1.00  0.00     0.210 C 
ENDBRANCH  20  22
ENDBRANCH  15  16
ENDBRANCH  12  15
ENDBRANCH   1  11
BRANCH   7  24
HETATM   24  C   UNL     1      44.008 -19.803   3.043  1.00  0.00    -0.005 A 
HETATM   25  C   UNL     1      44.488 -20.095   4.327  1.00  0.00     0.033 A 
HETATM   26  C   UNL     1      44.869 -21.395   4.632  1.00  0.00     0.117 A 
HETATM   27  N   UNL     1      44.809 -22.421   3.760  1.00  0.00    -0.273 NA
HETATM   28  C   UNL     1      44.357 -22.131   2.523  1.00  0.00     0.117 A 
HETATM   29  C   UNL     1      43.955 -20.865   2.128  1.00  0.00     0.033 A 
ENDBRANCH   7  24
TORSDOF 5
ENDMDL
MODEL 4
REMARK VINA RESULT:      -8.4      1.595      2.300
REMARK  5 active torsions:
REMARK  status: ('A' for Active; 'I' for Inactive)
REMARK    1  A    between atoms: O_2  and  C_3 
REMARK    2  A    between atoms: C_7  and  C_8 
REMARK    3  A    between atoms: C_8  and  N_9 
REMARK       I    between atoms: N_9  and  C_10 
REMARK    4  A    between atoms: C_10  and  C_12 
REMARK    5  A    between atoms: C_18  and  C_22 
ROOT
HETATM    1  C   UNL     1      41.144 -15.733   0.679  1.00  0.00     0.061 A 
HETATM    2  C   UNL     1      40.106 -15.583   1.594  1.00  0.00     0.108 A 
HETATM    3  N   UNL     1      40.348 -16.405   2.665  1.00  0.00    -0.349 N 
HETATM    4  H   UNL     1      39.767 -16.516   3.484  1.00  0.00     0.167 HD
HETATM    5  C   UNL     1      41.514 -17.087   2.472  1.00  0.00     0.139 A 
HETATM    6  N   UNL     1      42.021 -17.971   3.347  1.00  0.00    -0.230 NA
HETATM    7  C   UNL     1      43.186 -18.546   2.949  1.00  0.00     0.069 A 
HETATM    8  C   UNL     1      43.817 -18.236   1.739  1.00  0.00     0.033 A 
HETATM    9  C   UNL     1      43.247 -17.305   0.865  1.00  0.00     0.018 A 
HETATM   10  C   UNL     1      42.037 -16.703   1.247  1.00  0.00     0.027 A 
ENDROOT
BRANCH   1  11
HETATM   11  C   UNL     1      41.296 -15.061  -0.612  1.00  0.00     0.254 C 
HETATM   12  N   UNL     1      40.760 -15.728  -1.687  1.00  0.00    -0.353 N 
HETATM   13  H   UNL     1      40.186 -16.544  -1.535  1.00  0.00     0.163 HD
HETATM   14  O   UNL     1      41.855 -13.975  -0.727  1.00  0.00    -0.268 OA
BRANCH  12  15
HETATM   15  C   UNL     1      40.801 -15.157  -3.010  1.00  0.00     0.161 C 
BRANCH  15  16
HETATM   16  C   UNL     1      39.543 -14.382  -3.293  1.00  0.00    -0.038 A 
HETATM   17  C   UNL     1      39.531 -12.986  -3.153  1.00  0.00     0.009 A 
HETATM   18  C   UNL     1      38.379 -12.260  -3.442  1.00  0.00     0.003 A 
HETATM   19  C   UNL     1      37.230 -12.923  -3.875  1.00  0.00     0.037 A 
HETATM   20  C   UNL     1      37.222 -14.311  -4.025  1.00  0.00     0.068 A 
HETATM   21  C   UNL     1      38.381 -15.037  -3.737  1.00  0.00     0.045 A 
BRANCH  20  22
HETATM   22  O   UNL     1      36.034 -14.830  -4.460  1.00  0.00    -0.356 OA
HETATM   23  C   UNL     1      35.103 -13.921  -5.033  1.00  0.00     0.210 C 
ENDBRANCH  20  22
ENDBRANCH  15  16
ENDBRANCH  12  15
ENDBRANCH   1  11
BRANCH   7  24
HETATM   24  C   UNL     1      43.750 -19.527   3.903  1.00  0.00    -0.005 A 
HETATM   25  C   UNL     1      43.688 -19.344   5.292  1.00  0.00     0.033 A 
HETATM   26  C   UNL     1      44.238 -20.305   6.130  1.00  0.00     0.117 A 
HETATM   27  N   UNL     1      44.842 -21.428   5.694  1.00  0.00    -0.273 NA
HETATM   28  C   UNL     1      44.908 -21.591   4.357  1.00  0.00     0.117 A 
HETATM   29  C   UNL     1      44.388 -20.688   3.443  1.00  0.00     0.033 A 
ENDBRANCH   7  24
TORSDOF 5
ENDMDL
MODEL 5
REMARK VINA RESULT:      -8.2      3.133      4.365
REMARK  5 active torsions:
REMARK  status: ('A' for Active; 'I' for Inactive)
REMARK    1  A    between atoms: O_2  and  C_3 
REMARK    2  A    between atoms: C_7  and  C_8 
REMARK    3  A    between atoms: C_8  and  N_9 
REMARK       I    between atoms: N_9  and  C_10 
REMARK    4  A    between atoms: C_10  and  C_12 
REMARK    5  A    between atoms: C_18  and  C_22 
ROOT
HETATM    1  C   UNL     1      40.656 -15.288   0.428  1.00  0.00     0.061 A 
HETATM    2  C   UNL     1      39.729 -15.000   1.425  1.00  0.00     0.108 A 
HETATM    3  N   UNL     1      40.049 -15.730   2.542  1.00  0.00    -0.349 N 
HETATM    4  H   UNL     1      39.554 -15.734   3.422  1.00  0.00     0.167 HD
HETATM    5  C   UNL     1      41.158 -16.486   2.299  1.00  0.00     0.139 A 
HETATM    6  N   UNL     1      41.719 -17.310   3.201  1.00  0.00    -0.230 NA
HETATM    7  C   UNL     1      42.809 -17.979   2.744  1.00  0.00     0.069 A 
HETATM    8  C   UNL     1      43.321 -17.816   1.451  1.00  0.00     0.033 A 
HETATM    9  C   UNL     1      42.700 -16.943   0.553  1.00  0.00     0.018 A 
HETATM   10  C   UNL     1      41.564 -16.246   0.995  1.00  0.00     0.027 A 
ENDROOT
BRANCH   1  11
HETATM   11  C   UNL     1      40.698 -14.749  -0.931  1.00  0.00     0.254 C 
HETATM   12  N   UNL     1      41.937 -14.335  -1.360  1.00  0.00    -0.353 N 
HETATM   13  H   UNL     1      42.754 -14.540  -0.803  1.00  0.00     0.163 HD
HETATM   14  O   UNL     1      39.702 -14.679  -1.644  1.00  0.00    -0.268 OA
BRANCH  12  15
HETATM   15  C   UNL     1      42.129 -13.826  -2.694  1.00  0.00     0.161 C 
BRANCH  15  16
HETATM   16  C   UNL     1      42.437 -12.353  -2.661  1.00  0.00    -0.038 A 
HETATM   17  C   UNL     1      42.226 -11.566  -3.803  1.00  0.00     0.009 A 
HETATM   18  C   UNL     1      42.480 -10.197  -3.770  1.00  0.00     0.003 A 
HETATM   19  C   UNL     1      42.945  -9.606  -2.595  1.00  0.00     0.037 A 
HETATM   20  C   UNL     1      43.158 -10.371  -1.446  1.00  0.00     0.068 A 
HETATM   21  C   UNL     1      42.899 -11.743  -1.482  1.00  0.00     0.045 A 
BRANCH  20  22
HETATM   22  O   UNL     1      43.610  -9.664  -0.367  1.00  0.00    -0.356 OA
HETATM   23  C   UNL     1      44.204  -8.398  -0.626  1.00  0.00     0.210 C 
ENDBRANCH  20  22
ENDBRANCH  15  16
ENDBRANCH  12  15
ENDBRANCH   1  11
BRANCH   7  24
HETATM   24  C   UNL     1      43.430 -18.894   3.728  1.00  0.00    -0.005 A 
HETATM   25  C   UNL     1      43.244 -18.749   5.110  1.00  0.00     0.033 A 
HETATM   26  C   UNL     1      43.856 -19.644   5.977  1.00  0.00     0.117 A 
HETATM   27  N   UNL     1      44.637 -20.667   5.576  1.00  0.00    -0.273 NA
HETATM   28  C   UNL     1      44.822 -20.792   4.246  1.00  0.00     0.117 A 
HETATM   29  C   UNL     1      44.252 -19.949   3.305  1.00  0.00     0.033 A 
ENDBRANCH   7  24
TORSDOF 5
ENDMDL
MODEL 6
REMARK VINA RESULT:      -8.1      3.151      5.096
REMARK  5 active torsions:
REMARK  status: ('A' for Active; 'I' for Inactive)
REMARK    1  A    between atoms: O_2  and  C_3 
REMARK    2  A    between atoms: C_7  and  C_8 
REMARK    3  A    between atoms: C_8  and  N_9 
REMARK       I    between atoms: N_9  and  C_10 
REMARK    4  A    between atoms: C_10  and  C_12 
REMARK    5  A    between atoms: C_18  and  C_22 
ROOT
HETATM    1  C   UNL     1      43.149 -15.278   5.963  1.00  0.00     0.061 A 
HETATM    2  C   UNL     1      44.010 -15.597   7.007  1.00  0.00     0.108 A 
HETATM    3  N   UNL     1      44.521 -16.851   6.783  1.00  0.00    -0.349 N 
HETATM    4  H   UNL     1      45.170 -17.353   7.373  1.00  0.00     0.167 HD
HETATM    5  C   UNL     1      44.014 -17.357   5.621  1.00  0.00     0.139 A 
HETATM    6  N   UNL     1      44.326 -18.568   5.130  1.00  0.00    -0.230 NA
HETATM    7  C   UNL     1      43.696 -18.877   3.966  1.00  0.00     0.069 A 
HETATM    8  C   UNL     1      42.810 -18.006   3.321  1.00  0.00     0.033 A 
HETATM    9  C   UNL     1      42.524 -16.754   3.875  1.00  0.00     0.018 A 
HETATM   10  C   UNL     1      43.153 -16.412   5.083  1.00  0.00     0.027 A 
ENDROOT
BRANCH   1  11
HETATM   11  C   UNL     1      42.374 -14.048   5.792  1.00  0.00     0.254 C 
HETATM   12  N   UNL     1      41.016 -14.183   5.954  1.00  0.00    -0.353 N 
HETATM   13  H   UNL     1      40.638 -15.049   6.307  1.00  0.00     0.163 HD
HETATM   14  O   UNL     1      42.899 -12.970   5.532  1.00  0.00    -0.268 OA
BRANCH  12  15
HETATM   15  C   UNL     1      40.140 -13.042   5.858  1.00  0.00     0.161 C 
BRANCH  15  16
HETATM   16  C   UNL     1      39.581 -12.918   4.467  1.00  0.00    -0.038 A 
HETATM   17  C   UNL     1      38.938 -11.736   4.071  1.00  0.00     0.009 A 
HETATM   18  C   UNL     1      38.445 -11.603   2.776  1.00  0.00     0.003 A 
HETATM   19  C   UNL     1      38.593 -12.649   1.866  1.00  0.00     0.037 A 
HETATM   20  C   UNL     1      39.235 -13.833   2.238  1.00  0.00     0.068 A 
HETATM   21  C   UNL     1      39.731 -13.962   3.538  1.00  0.00     0.045 A 
BRANCH  20  22
HETATM   22  O   UNL     1      39.315 -14.773   1.248  1.00  0.00    -0.356 OA
HETATM   23  C   UNL     1      40.280 -14.555   0.226  1.00  0.00     0.210 C 
ENDBRANCH  20  22
ENDBRANCH  15  16
ENDBRANCH  12  15
ENDBRANCH   1  11
BRANCH   7  24
HETATM   24  C   UNL     1      44.027 -20.212   3.420  1.00  0.00    -0.005 A 
HETATM   25  C   UNL     1      43.785 -20.557   2.083  1.00  0.00     0.033 A 
HETATM   26  C   UNL     1      44.121 -21.828   1.636  1.00  0.00     0.117 A 
HETATM   27  N   UNL     1      44.676 -22.778   2.416  1.00  0.00    -0.273 NA
HETATM   28  C   UNL     1      44.894 -22.443   3.703  1.00  0.00     0.117 A 
HETATM   29  C   UNL     1      44.592 -21.201   4.239  1.00  0.00     0.033 A 
ENDBRANCH   7  24
TORSDOF 5
ENDMDL
MODEL 7
REMARK VINA RESULT:      -8.1      5.727      8.299
REMARK  5 active torsions:
REMARK  status: ('A' for Active; 'I' for Inactive)
REMARK    1  A    between atoms: O_2  and  C_3 
REMARK    2  A    between atoms: C_7  and  C_8 
REMARK    3  A    between atoms: C_8  and  N_9 
REMARK       I    between atoms: N_9  and  C_10 
REMARK    4  A    between atoms: C_10  and  C_12 
REMARK    5  A    between atoms: C_18  and  C_22 
ROOT
HETATM    1  C   UNL     1      43.326 -15.083   5.700  1.00  0.00     0.061 A 
HETATM    2  C   UNL     1      43.908 -15.436   6.914  1.00  0.00     0.108 A 
HETATM    3  N   UNL     1      44.312 -16.745   6.839  1.00  0.00    -0.349 N 
HETATM    4  H   UNL     1      44.762 -17.280   7.568  1.00  0.00     0.167 HD
HETATM    5  C   UNL     1      44.006 -17.255   5.611  1.00  0.00     0.139 A 
HETATM    6  N   UNL     1      44.277 -18.515   5.231  1.00  0.00    -0.230 NA
HETATM    7  C   UNL     1      43.874 -18.817   3.970  1.00  0.00     0.069 A 
HETATM    8  C   UNL     1      43.247 -17.894   3.125  1.00  0.00     0.033 A 
HETATM    9  C   UNL     1      42.992 -16.592   3.570  1.00  0.00     0.018 A 
HETATM   10  C   UNL     1      43.388 -16.256   4.874  1.00  0.00     0.027 A 
ENDROOT
BRANCH   1  11
HETATM   11  C   UNL     1      42.747 -13.791   5.333  1.00  0.00     0.254 C 
HETATM   12  N   UNL     1      41.621 -13.431   6.036  1.00  0.00    -0.353 N 
HETATM   13  H   UNL     1      41.334 -13.977   6.835  1.00  0.00     0.163 HD
HETATM   14  O   UNL     1      43.235 -13.072   4.466  1.00  0.00    -0.268 OA
BRANCH  12  15
HETATM   15  C   UNL     1      40.976 -12.163   5.806  1.00  0.00     0.161 C 
BRANCH  15  16
HETATM   16  C   UNL     1      40.969 -11.336   7.063  1.00  0.00    -0.038 A 
HETATM   17  C   UNL     1      39.754 -10.886   7.601  1.00  0.00     0.009 A 
HETATM   18  C   UNL     1      39.738 -10.145   8.780  1.00  0.00     0.003 A 
HETATM   19  C   UNL     1      40.936  -9.851   9.431  1.00  0.00     0.037 A 
HETATM   20  C   UNL     1      42.156 -10.293   8.915  1.00  0.00     0.068 A 
HETATM   21  C   UNL     1      42.168 -11.038   7.733  1.00  0.00     0.045 A 
BRANCH  20  22
HETATM   22  O   UNL     1      43.250  -9.938   9.655  1.00  0.00    -0.356 OA
HETATM   23  C   UNL     1      43.981 -10.989  10.273  1.00  0.00     0.210 C 
ENDBRANCH  20  22
ENDBRANCH  15  16
ENDBRANCH  12  15
ENDBRANCH   1  11
BRANCH   7  24
HETATM   24  C   UNL     1      44.162 -20.205   3.544  1.00  0.00    -0.005 A 
HETATM   25  C   UNL     1      44.006 -20.632   2.218  1.00  0.00     0.033 A 
HETATM   26  C   UNL     1      44.294 -21.949   1.888  1.00  0.00     0.117 A 
HETATM   27  N   UNL     1      44.723 -22.871   2.774  1.00  0.00    -0.273 NA
HETATM   28  C   UNL     1      44.858 -22.457   4.050  1.00  0.00     0.117 A 
HETATM   29  C   UNL     1      44.595 -21.163   4.473  1.00  0.00     0.033 A 
ENDBRANCH   7  24
TORSDOF 5
ENDMDL
MODEL 8
REMARK VINA RESULT:      -7.9      5.273      8.810
REMARK  5 active torsions:
REMARK  status: ('A' for Active; 'I' for Inactive)
REMARK    1  A    between atoms: O_2  and  C_3 
REMARK    2  A    between atoms: C_7  and  C_8 
REMARK    3  A    between atoms: C_8  and  N_9 
REMARK       I    between atoms: N_9  and  C_10 
REMARK    4  A    between atoms: C_10  and  C_12 
REMARK    5  A    between atoms: C_18  and  C_22 
ROOT
HETATM    1  C   UNL     1      40.329 -13.643   5.532  1.00  0.00     0.061 A 
HETATM    2  C   UNL     1      39.534 -13.818   4.404  1.00  0.00     0.108 A 
HETATM    3  N   UNL     1      39.979 -14.924   3.724  1.00  0.00    -0.349 N 
HETATM    4  H   UNL     1      39.602 -15.296   2.864  1.00  0.00     0.167 HD
HETATM    5  C   UNL     1      41.044 -15.472   4.379  1.00  0.00     0.139 A 
HETATM    6  N   UNL     1      41.700 -16.567   3.961  1.00  0.00    -0.230 NA
HETATM    7  C   UNL     1      42.739 -16.933   4.756  1.00  0.00     0.069 A 
HETATM    8  C   UNL     1      43.089 -16.243   5.923  1.00  0.00     0.033 A 
HETATM    9  C   UNL     1      42.369 -15.110   6.315  1.00  0.00     0.018 A 
HETATM   10  C   UNL     1      41.297 -14.703   5.505  1.00  0.00     0.027 A 
ENDROOT
BRANCH   1  11
HETATM   11  C   UNL     1      40.224 -12.586   6.539  1.00  0.00     0.254 C 
HETATM   12  N   UNL     1      41.372 -11.859   6.748  1.00  0.00    -0.353 N 
HETATM   13  H   UNL     1      42.161 -11.980   6.130  1.00  0.00     0.163 HD
HETATM   14  O   UNL     1      39.185 -12.358   7.149  1.00  0.00    -0.268 OA
BRANCH  12  15
HETATM   15  C   UNL     1      41.395 -10.760   7.679  1.00  0.00     0.161 C 
BRANCH  15  16
HETATM   16  C   UNL     1      42.566 -10.883   8.617  1.00  0.00    -0.038 A 
HETATM   17  C   UNL     1      42.591 -10.146   9.810  1.00  0.00     0.009 A 
HETATM   18  C   UNL     1      43.657 -10.278  10.696  1.00  0.00     0.003 A 
HETATM   19  C   UNL     1      44.704 -11.149  10.398  1.00  0.00     0.037 A 
HETATM   20  C   UNL     1      44.696 -11.896   9.218  1.00  0.00     0.068 A 
HETATM   21  C   UNL     1      43.624 -11.763   8.332  1.00  0.00     0.045 A 
BRANCH  20  22
HETATM   22  O   UNL     1      45.781 -12.712   9.053  1.00  0.00    -0.356 OA
HETATM   23  C   UNL     1      46.678 -12.390   7.997  1.00  0.00     0.210 C 
ENDBRANCH  20  22
ENDBRANCH  15  16
ENDBRANCH  12  15
ENDBRANCH   1  11
BRANCH   7  24
HETATM   24  C   UNL     1      43.473 -18.135   4.300  1.00  0.00    -0.005 A 
HETATM   25  C   UNL     1      43.443 -18.573   2.969  1.00  0.00     0.033 A 
HETATM   26  C   UNL     1      44.157 -19.709   2.610  1.00  0.00     0.117 A 
HETATM   27  N   UNL     1      44.893 -20.438   3.471  1.00  0.00    -0.273 NA
HETATM   28  C   UNL     1      44.908 -20.018   4.752  1.00  0.00     0.117 A 
HETATM   29  C   UNL     1      44.228 -18.898   5.203  1.00  0.00     0.033 A 
ENDBRANCH   7  24
TORSDOF 5
ENDMDL
MODEL 9
REMARK VINA RESULT:      -7.8      5.871      9.463
REMARK  5 active torsions:
REMARK  status: ('A' for Active; 'I' for Inactive)
REMARK    1  A    between atoms: O_2  and  C_3 
REMARK    2  A    between atoms: C_7  and  C_8 
REMARK    3  A    between atoms: C_8  and  N_9 
REMARK       I    between atoms: N_9  and  C_10 
REMARK    4  A    between atoms: C_10  and  C_12 
REMARK    5  A    between atoms: C_18  and  C_22 
ROOT
HETATM    1  C   UNL     1      41.993 -13.405   4.978  1.00  0.00     0.061 A 
HETATM    2  C   UNL     1      42.343 -13.050   3.679  1.00  0.00     0.108 A 
HETATM    3  N   UNL     1      42.870 -14.152   3.053  1.00  0.00    -0.349 N 
HETATM    4  H   UNL     1      43.218 -14.200   2.106  1.00  0.00     0.167 HD
HETATM    5  C   UNL     1      42.875 -15.214   3.911  1.00  0.00     0.139 A 
HETATM    6  N   UNL     1      43.331 -16.436   3.591  1.00  0.00    -0.230 NA
HETATM    7  C   UNL     1      43.254 -17.342   4.600  1.00  0.00     0.069 A 
HETATM    8  C   UNL     1      42.731 -17.040   5.862  1.00  0.00     0.033 A 
HETATM    9  C   UNL     1      42.266 -15.750   6.142  1.00  0.00     0.018 A 
HETATM   10  C   UNL     1      42.343 -14.790   5.120  1.00  0.00     0.027 A 
ENDROOT
BRANCH   1  11
HETATM   11  C   UNL     1      41.406 -12.547   6.008  1.00  0.00     0.254 C 
HETATM   12  N   UNL     1      42.307 -11.948   6.855  1.00  0.00    -0.353 N 
HETATM   13  H   UNL     1      43.295 -12.005   6.658  1.00  0.00     0.163 HD
HETATM   14  O   UNL     1      40.197 -12.366   6.104  1.00  0.00    -0.268 OA
BRANCH  12  15
HETATM   15  C   UNL     1      41.867 -11.042   7.886  1.00  0.00     0.161 C 
BRANCH  15  16
HETATM   16  C   UNL     1      42.848 -11.018   9.027  1.00  0.00    -0.038 A 
HETATM   17  C   UNL     1      44.065 -11.707   8.922  1.00  0.00     0.009 A 
HETATM   18  C   UNL     1      44.990 -11.665   9.962  1.00  0.00     0.003 A 
HETATM   19  C   UNL     1      44.706 -10.932  11.114  1.00  0.00     0.037 A 
HETATM   20  C   UNL     1      43.503 -10.234  11.237  1.00  0.00     0.068 A 
HETATM   21  C   UNL     1      42.578 -10.277  10.191  1.00  0.00     0.045 A 
BRANCH  20  22
HETATM   22  O   UNL     1      43.356  -9.555  12.415  1.00  0.00    -0.356 OA
HETATM   23  C   UNL     1      42.844 -10.285  13.522  1.00  0.00     0.210 C 
ENDBRANCH  20  22
ENDBRANCH  15  16
ENDBRANCH  12  15
ENDBRANCH   1  11
BRANCH   7  24
HETATM   24  C   UNL     1      43.760 -18.691   4.260  1.00  0.00    -0.005 A 
HETATM   25  C   UNL     1      44.276 -19.566   5.226  1.00  0.00     0.033 A 
HETATM   26  C   UNL     1      44.733 -20.818   4.837  1.00  0.00     0.117 A 
HETATM   27  N   UNL     1      44.718 -21.263   3.565  1.00  0.00    -0.273 NA
HETATM   28  C   UNL     1      44.233 -20.412   2.639  1.00  0.00     0.117 A 
HETATM   29  C   UNL     1      43.754 -19.144   2.932  1.00  0.00     0.033 A 
ENDBRANCH   7  24
TORSDOF 5
ENDMDL
MODEL 10
REMARK VINA RESULT:      -7.7      2.825      3.286
REMARK  5 active torsions:
REMARK  status: ('A' for Active; 'I' for Inactive)
REMARK    1  A    between atoms: O_2  and  C_3 
REMARK    2  A    between atoms: C_7  and  C_8 
REMARK    3  A    between atoms: C_8  and  N_9 
REMARK       I    between atoms: N_9  and  C_10 
REMARK    4  A    between atoms: C_10  and  C_12 
REMARK    5  A    between atoms: C_18  and  C_22 
ROOT
HETATM    1  C   UNL     1      42.573 -14.466   3.594  1.00  0.00     0.061 A 
HETATM    2  C   UNL     1      42.958 -14.476   4.931  1.00  0.00     0.108 A 
HETATM    3  N   UNL     1      43.404 -15.735   5.246  1.00  0.00    -0.349 N 
HETATM    4  H   UNL     1      43.742 -16.049   6.144  1.00  0.00     0.167 HD
HETATM    5  C   UNL     1      43.317 -16.545   4.150  1.00  0.00     0.139 A 
HETATM    6  N   UNL     1      43.680 -17.839   4.142  1.00  0.00    -0.230 NA
HETATM    7  C   UNL     1      43.498 -18.461   2.948  1.00  0.00     0.069 A 
HETATM    8  C   UNL     1      42.992 -17.812   1.816  1.00  0.00     0.033 A 
HETATM    9  C   UNL     1      42.633 -16.462   1.879  1.00  0.00     0.018 A 
HETATM   10  C   UNL     1      42.801 -15.796   3.104  1.00  0.00     0.027 A 
ENDROOT
BRANCH   1  11
HETATM   11  C   UNL     1      42.028 -13.341   2.834  1.00  0.00     0.254 C 
HETATM   12  N   UNL     1      42.497 -13.219   1.548  1.00  0.00    -0.353 N 
HETATM   13  H   UNL     1      43.062 -13.954   1.149  1.00  0.00     0.163 HD
HETATM   14  O   UNL     1      41.202 -12.566   3.306  1.00  0.00    -0.268 OA
BRANCH  12  15
HETATM   15  C   UNL     1      42.008 -12.182   0.674  1.00  0.00     0.161 C 
BRANCH  15  16
HETATM   16  C   UNL     1      41.865 -12.696  -0.733  1.00  0.00    -0.038 A 
HETATM   17  C   UNL     1      41.252 -13.935  -0.969  1.00  0.00     0.009 A 
HETATM   18  C   UNL     1      41.090 -14.403  -2.271  1.00  0.00     0.003 A 
HETATM   19  C   UNL     1      41.538 -13.635  -3.345  1.00  0.00     0.037 A 
HETATM   20  C   UNL     1      42.147 -12.396  -3.132  1.00  0.00     0.068 A 
HETATM   21  C   UNL     1      42.306 -11.929  -1.825  1.00  0.00     0.045 A 
BRANCH  20  22
HETATM   22  O   UNL     1      42.534 -11.748  -4.273  1.00  0.00    -0.356 OA
HETATM   23  C   UNL     1      41.879 -10.522  -4.573  1.00  0.00     0.210 C 
ENDBRANCH  20  22
ENDBRANCH  15  16
ENDBRANCH  12  15
ENDBRANCH   1  11
BRANCH   7  24
HETATM   24  C   UNL     1      43.888 -19.889   2.930  1.00  0.00    -0.005 A 
HETATM   25  C   UNL     1      43.659 -20.716   1.821  1.00  0.00     0.033 A 
HETATM   26  C   UNL     1      44.051 -22.047   1.871  1.00  0.00     0.117 A 
HETATM   27  N   UNL     1      44.650 -22.615   2.936  1.00  0.00    -0.273 NA
HETATM   28  C   UNL     1      44.856 -21.817   4.004  1.00  0.00     0.117 A 
HETATM   29  C   UNL     1      44.499 -20.479   4.045  1.00  0.00     0.033 A 
ENDBRANCH   7  24
TORSDOF 5
ENDMDL
