MODEL 1
REMARK VINA RESULT:      -8.2      0.000      0.000
REMARK  6 active torsions:
REMARK  status: ('A' for Active; 'I' for Inactive)
REMARK    1  A    between atoms: C_4  and  C_5 
REMARK    2  A    between atoms: C_5  and  N_6 
REMARK    3  A    between atoms: C_5  and  C_10 
REMARK    4  A    between atoms: C_10  and  N_11 
REMARK       I    between atoms: N_11  and  C_12 
REMARK       I    between atoms: C_12  and  N_13 
REMARK    5  A    between atoms: N_13  and  C_14 
REMARK    6  A    between atoms: C_17  and  N_18 
ROOT
HETATM    1  N   UNL     1      41.687 -13.805   0.759  1.00  0.00    -0.340 N 
HETATM    2  C   UNL     1      41.659 -15.119   1.184  1.00  0.00     0.320 C 
HETATM    3  N   UNL     1      42.671 -15.373   2.073  1.00  0.00    -0.309 N 
HETATM    4  O   UNL     1      40.797 -15.887   0.778  1.00  0.00    -0.247 OA
HETATM    5  H   UNL     1      42.603 -13.373   0.766  1.00  0.00     0.164 HD
HETATM    6  H   UNL     1      43.131 -14.565   2.467  1.00  0.00     0.170 HD
ENDROOT
BRANCH   1   7
HETATM    7  C   UNL     1      40.765 -13.375  -0.284  1.00  0.00     0.164 C 
BRANCH   7   8
HETATM    8  C   UNL     1      41.333 -13.452  -1.740  1.00  0.00     0.261 C 
BRANCH   8   9
HETATM    9  C   UNL     1      40.517 -14.437  -2.520  1.00  0.00     0.085 A 
HETATM   10  O   UNL     1      39.223 -14.076  -2.774  1.00  0.00    -0.318 OA
HETATM   11  C   UNL     1      38.653 -15.104  -3.464  1.00  0.00     0.049 A 
HETATM   12  C   UNL     1      37.226 -14.956  -3.819  1.00  0.00     0.076 C 
HETATM   13  C   UNL     1      39.582 -16.099  -3.684  1.00  0.00     0.035 A 
HETATM   14  C   UNL     1      40.785 -15.670  -3.074  1.00  0.00     0.037 A 
ENDBRANCH   8   9
BRANCH   8  15
HETATM   15  N   UNL     1      41.300 -12.066  -2.426  1.00  0.00    -0.067 N 
HETATM   16  H   UNL     1      40.303 -11.869  -2.587  1.00  0.00     0.280 HD
HETATM   17  C   UNL     1      41.893 -10.960  -1.603  1.00  0.00     0.270 C 
HETATM   18  C   UNL     1      41.945 -12.104  -3.792  1.00  0.00     0.270 C 
ENDBRANCH   8  15
ENDBRANCH   7   8
ENDBRANCH   1   7
BRANCH   3  19
HETATM   19  C   UNL     1      43.078 -16.622   2.581  1.00  0.00     0.036 A 
HETATM   20  C   UNL     1      42.662 -17.139   3.807  1.00  0.00     0.032 A 
HETATM   21  C   UNL     1      43.064 -18.420   4.219  1.00  0.00     0.032 A 
HETATM   22  C   UNL     1      43.893 -19.205   3.412  1.00  0.00     0.040 A 
HETATM   23  C   UNL     1      44.312 -18.681   2.181  1.00  0.00     0.032 A 
HETATM   24  C   UNL     1      43.910 -17.402   1.774  1.00  0.00     0.032 A 
BRANCH  22  25
HETATM   25  N   UNL     1      44.278 -20.530   3.788  1.00  0.00    -0.309 N 
HETATM   26  C   UNL     1      44.337 -21.700   3.027  1.00  0.00     0.106 A 
HETATM   27  C   UNL     1      43.825 -21.876   1.644  1.00  0.00     0.091 C 
HETATM   28  N   UNL     1      44.830 -22.705   3.730  1.00  0.00    -0.246 NA
HETATM   29  C   UNL     1      45.051 -22.221   4.981  1.00  0.00     0.136 A 
HETATM   30  C   UNL     1      44.697 -20.900   5.054  1.00  0.00     0.118 A 
ENDBRANCH  22  25
ENDBRANCH   3  19
TORSDOF 6
ENDMDL
MODEL 2
REMARK VINA RESULT:      -7.9      1.442      2.285
REMARK  6 active torsions:
REMARK  status: ('A' for Active; 'I' for Inactive)
REMARK    1  A    between atoms: C_4  and  C_5 
REMARK    2  A    between atoms: C_5  and  N_6 
REMARK    3  A    between atoms: C_5  and  C_10 
REMARK    4  A    between atoms: C_10  and  N_11 
REMARK       I    between atoms: N_11  and  C_12 
REMARK       I    between atoms: C_12  and  N_13 
REMARK    5  A    between atoms: N_13  and  C_14 
REMARK    6  A    between atoms: C_17  and  N_18 
ROOT
HETATM    1  N   UNL     1      42.427 -13.267   1.850  1.00  0.00    -0.340 N 
HETATM    2  C   UNL     1      42.247 -14.635   1.914  1.00  0.00     0.320 C 
HETATM    3  N   UNL     1      43.199 -15.222   2.707  1.00  0.00    -0.309 N 
HETATM    4  O   UNL     1      41.321 -15.171   1.319  1.00  0.00    -0.247 OA
HETATM    5  H   UNL     1      43.382 -12.955   1.972  1.00  0.00     0.164 HD
HETATM    6  H   UNL     1      43.729 -14.601   3.301  1.00  0.00     0.170 HD
ENDROOT
BRANCH   1   7
HETATM    7  C   UNL     1      41.587 -12.481   0.955  1.00  0.00     0.164 C 
BRANCH   7   8
HETATM    8  C   UNL     1      42.349 -11.784  -0.221  1.00  0.00     0.261 C 
BRANCH   8   9
HETATM    9  C   UNL     1      41.941 -12.435  -1.508  1.00  0.00     0.085 A 
HETATM   10  O   UNL     1      41.665 -13.773  -1.441  1.00  0.00    -0.318 OA
HETATM   11  C   UNL     1      41.343 -14.173  -2.703  1.00  0.00     0.049 A 
HETATM   12  C   UNL     1      41.040 -15.608  -2.889  1.00  0.00     0.076 C 
HETATM   13  C   UNL     1      41.374 -13.097  -3.565  1.00  0.00     0.035 A 
HETATM   14  C   UNL     1      41.761 -11.975  -2.794  1.00  0.00     0.037 A 
ENDBRANCH   8   9
BRANCH   8  15
HETATM   15  N   UNL     1      42.040 -10.269  -0.267  1.00  0.00    -0.067 N 
HETATM   16  H   UNL     1      41.507 -10.129  -1.136  1.00  0.00     0.280 HD
HETATM   17  C   UNL     1      41.226  -9.775   0.894  1.00  0.00     0.270 C 
HETATM   18  C   UNL     1      43.298  -9.447  -0.409  1.00  0.00     0.270 C 
ENDBRANCH   8  15
ENDBRANCH   7   8
ENDBRANCH   1   7
BRANCH   3  19
HETATM   19  C   UNL     1      43.456 -16.597   2.870  1.00  0.00     0.036 A 
HETATM   20  C   UNL     1      43.977 -17.417   1.872  1.00  0.00     0.032 A 
HETATM   21  C   UNL     1      44.263 -18.768   2.129  1.00  0.00     0.032 A 
HETATM   22  C   UNL     1      44.027 -19.323   3.391  1.00  0.00     0.040 A 
HETATM   23  C   UNL     1      43.499 -18.495   4.392  1.00  0.00     0.032 A 
HETATM   24  C   UNL     1      43.215 -17.149   4.131  1.00  0.00     0.032 A 
BRANCH  22  25
HETATM   25  N   UNL     1      44.352 -20.683   3.692  1.00  0.00    -0.309 N 
HETATM   26  C   UNL     1      44.359 -21.810   2.867  1.00  0.00     0.106 A 
HETATM   27  C   UNL     1      43.839 -21.886   1.478  1.00  0.00     0.091 C 
HETATM   28  N   UNL     1      44.806 -22.873   3.512  1.00  0.00    -0.246 NA
HETATM   29  C   UNL     1      45.048 -22.470   4.788  1.00  0.00     0.136 A 
HETATM   30  C   UNL     1      44.754 -21.140   4.934  1.00  0.00     0.118 A 
ENDBRANCH  22  25
ENDBRANCH   3  19
TORSDOF 6
ENDMDL
MODEL 3
REMARK VINA RESULT:      -7.8      5.878      8.321
REMARK  6 active torsions:
REMARK  status: ('A' for Active; 'I' for Inactive)
REMARK    1  A    between atoms: C_4  and  C_5 
REMARK    2  A    between atoms: C_5  and  N_6 
REMARK    3  A    between atoms: C_5  and  C_10 
REMARK    4  A    between atoms: C_10  and  N_11 
REMARK       I    between atoms: N_11  and  C_12 
REMARK       I    between atoms: C_12  and  N_13 
REMARK    5  A    between atoms: N_13  and  C_14 
REMARK    6  A    between atoms: C_17  and  N_18 
ROOT
HETATM    1  N   UNL     1      41.202 -12.409   6.674  1.00  0.00    -0.340 N 
HETATM    2  C   UNL     1      41.899 -13.338   5.927  1.00  0.00     0.320 C 
HETATM    3  N   UNL     1      41.650 -14.613   6.365  1.00  0.00    -0.309 N 
HETATM    4  O   UNL     1      42.615 -12.982   5.000  1.00  0.00    -0.247 OA
HETATM    5  H   UNL     1      41.003 -12.689   7.627  1.00  0.00     0.164 HD
HETATM    6  H   UNL     1      40.855 -14.726   6.978  1.00  0.00     0.170 HD
ENDROOT
BRANCH   1   7
HETATM    7  C   UNL     1      41.433 -10.990   6.439  1.00  0.00     0.164 C 
BRANCH   7   8
HETATM    8  C   UNL     1      41.237 -10.073   7.692  1.00  0.00     0.261 C 
BRANCH   8   9
HETATM    9  C   UNL     1      42.168 -10.534   8.772  1.00  0.00     0.085 A 
HETATM   10  O   UNL     1      43.369 -11.037   8.354  1.00  0.00    -0.318 OA
HETATM   11  C   UNL     1      44.049 -11.417   9.472  1.00  0.00     0.049 A 
HETATM   12  C   UNL     1      45.376 -12.035   9.265  1.00  0.00     0.076 C 
HETATM   13  C   UNL     1      43.310 -11.127  10.599  1.00  0.00     0.035 A 
HETATM   14  C   UNL     1      42.095 -10.557  10.148  1.00  0.00     0.037 A 
ENDBRANCH   8   9
BRANCH   8  15
HETATM   15  N   UNL     1      41.509  -8.590   7.347  1.00  0.00    -0.067 N 
HETATM   16  H   UNL     1      42.406  -8.369   7.800  1.00  0.00     0.280 HD
HETATM   17  C   UNL     1      41.618  -8.313   5.876  1.00  0.00     0.270 C 
HETATM   18  C   UNL     1      40.485  -7.674   7.976  1.00  0.00     0.270 C 
ENDBRANCH   8  15
ENDBRANCH   7   8
ENDBRANCH   1   7
BRANCH   3  19
HETATM   19  C   UNL     1      42.305 -15.800   5.982  1.00  0.00     0.036 A 
HETATM   20  C   UNL     1      43.636 -16.087   6.278  1.00  0.00     0.032 A 
HETATM   21  C   UNL     1      44.203 -17.319   5.914  1.00  0.00     0.032 A 
HETATM   22  C   UNL     1      43.447 -18.284   5.241  1.00  0.00     0.040 A 
HETATM   23  C   UNL     1      42.109 -17.990   4.942  1.00  0.00     0.032 A 
HETATM   24  C   UNL     1      41.548 -16.760   5.306  1.00  0.00     0.032 A 
BRANCH  22  25
HETATM   25  N   UNL     1      43.987 -19.564   4.900  1.00  0.00    -0.309 N 
HETATM   26  C   UNL     1      44.342 -20.089   3.656  1.00  0.00     0.106 A 
HETATM   27  C   UNL     1      44.065 -19.475   2.331  1.00  0.00     0.091 C 
HETATM   28  N   UNL     1      44.888 -21.285   3.777  1.00  0.00    -0.246 NA
HETATM   29  C   UNL     1      44.849 -21.588   5.103  1.00  0.00     0.136 A 
HETATM   30  C   UNL     1      44.278 -20.564   5.811  1.00  0.00     0.118 A 
ENDBRANCH  22  25
ENDBRANCH   3  19
TORSDOF 6
ENDMDL
MODEL 4
REMARK VINA RESULT:      -7.7      3.389      9.137
REMARK  6 active torsions:
REMARK  status: ('A' for Active; 'I' for Inactive)
REMARK    1  A    between atoms: C_4  and  C_5 
REMARK    2  A    between atoms: C_5  and  N_6 
REMARK    3  A    between atoms: C_5  and  C_10 
REMARK    4  A    between atoms: C_10  and  N_11 
REMARK       I    between atoms: N_11  and  C_12 
REMARK       I    between atoms: C_12  and  N_13 
REMARK    5  A    between atoms: N_13  and  C_14 
REMARK    6  A    between atoms: C_17  and  N_18 
ROOT
HETATM    1  N   UNL     1      40.595 -15.944   4.599  1.00  0.00    -0.340 N 
HETATM    2  C   UNL     1      40.103 -14.984   3.737  1.00  0.00     0.320 C 
HETATM    3  N   UNL     1      39.725 -15.540   2.542  1.00  0.00    -0.309 N 
HETATM    4  O   UNL     1      40.034 -13.812   4.083  1.00  0.00    -0.247 OA
HETATM    5  H   UNL     1      41.019 -16.746   4.149  1.00  0.00     0.164 HD
HETATM    6  H   UNL     1      39.633 -16.545   2.528  1.00  0.00     0.170 HD
ENDROOT
BRANCH   1   7
HETATM    7  C   UNL     1      41.162 -15.529   5.876  1.00  0.00     0.164 C 
BRANCH   7   8
HETATM    8  C   UNL     1      42.673 -15.887   6.074  1.00  0.00     0.261 C 
BRANCH   8   9
HETATM    9  C   UNL     1      43.059 -16.914   5.053  1.00  0.00     0.085 A 
HETATM   10  O   UNL     1      43.380 -16.435   3.814  1.00  0.00    -0.318 OA
HETATM   11  C   UNL     1      43.674 -17.516   3.037  1.00  0.00     0.049 A 
HETATM   12  C   UNL     1      44.017 -17.246   1.624  1.00  0.00     0.076 C 
HETATM   13  C   UNL     1      43.579 -18.674   3.779  1.00  0.00     0.035 A 
HETATM   14  C   UNL     1      43.181 -18.286   5.081  1.00  0.00     0.037 A 
ENDBRANCH   8   9
BRANCH   8  15
HETATM   15  N   UNL     1      43.567 -14.633   5.937  1.00  0.00    -0.067 N 
HETATM   16  H   UNL     1      44.058 -14.749   5.040  1.00  0.00     0.280 HD
HETATM   17  C   UNL     1      42.807 -13.338   5.918  1.00  0.00     0.270 C 
HETATM   18  C   UNL     1      44.640 -14.593   6.999  1.00  0.00     0.270 C 
ENDBRANCH   8  15
ENDBRANCH   7   8
ENDBRANCH   1   7
BRANCH   3  19
HETATM   19  C   UNL     1      39.352 -14.870   1.360  1.00  0.00     0.036 A 
HETATM   20  C   UNL     1      40.202 -14.671   0.275  1.00  0.00     0.032 A 
HETATM   21  C   UNL     1      39.738 -14.046  -0.895  1.00  0.00     0.032 A 
HETATM   22  C   UNL     1      38.415 -13.606  -0.995  1.00  0.00     0.040 A 
HETATM   23  C   UNL     1      37.563 -13.806   0.100  1.00  0.00     0.032 A 
HETATM   24  C   UNL     1      38.030 -14.428   1.265  1.00  0.00     0.032 A 
BRANCH  22  25
HETATM   25  N   UNL     1      37.906 -13.009  -2.191  1.00  0.00    -0.309 N 
HETATM   26  C   UNL     1      37.389 -13.604  -3.345  1.00  0.00     0.106 A 
HETATM   27  C   UNL     1      37.416 -15.052  -3.674  1.00  0.00     0.091 C 
HETATM   28  N   UNL     1      36.942 -12.696  -4.194  1.00  0.00    -0.246 NA
HETATM   29  C   UNL     1      37.209 -11.486  -3.632  1.00  0.00     0.136 A 
HETATM   30  C   UNL     1      37.823 -11.647  -2.418  1.00  0.00     0.118 A 
ENDBRANCH  22  25
ENDBRANCH   3  19
TORSDOF 6
ENDMDL
MODEL 5
REMARK VINA RESULT:      -7.6      1.913      3.287
REMARK  6 active torsions:
REMARK  status: ('A' for Active; 'I' for Inactive)
REMARK    1  A    between atoms: C_4  and  C_5 
REMARK    2  A    between atoms: C_5  and  N_6 
REMARK    3  A    between atoms: C_5  and  C_10 
REMARK    4  A    between atoms: C_10  and  N_11 
REMARK       I    between atoms: N_11  and  C_12 
REMARK       I    between atoms: C_12  and  N_13 
REMARK    5  A    between atoms: N_13  and  C_14 
REMARK    6  A    between atoms: C_17  and  N_18 
ROOT
HETATM    1  N   UNL     1      39.527 -14.559  -1.277  1.00  0.00    -0.340 N 
HETATM    2  C   UNL     1      40.193 -14.837  -0.100  1.00  0.00     0.320 C 
HETATM    3  N   UNL     1      40.967 -15.962  -0.223  1.00  0.00    -0.309 N 
HETATM    4  O   UNL     1      40.064 -14.110   0.876  1.00  0.00    -0.247 OA
HETATM    5  H   UNL     1      39.326 -15.366  -1.855  1.00  0.00     0.164 HD
HETATM    6  H   UNL     1      41.133 -16.288  -1.164  1.00  0.00     0.170 HD
ENDROOT
BRANCH   1   7
HETATM    7  C   UNL     1      38.559 -13.470  -1.306  1.00  0.00     0.164 C 
BRANCH   7   8
HETATM    8  C   UNL     1      38.709 -12.485  -2.512  1.00  0.00     0.261 C 
BRANCH   8   9
HETATM    9  C   UNL     1      40.169 -12.277  -2.780  1.00  0.00     0.085 A 
HETATM   10  O   UNL     1      40.900 -11.756  -1.749  1.00  0.00    -0.318 OA
HETATM   11  C   UNL     1      42.179 -11.623  -2.198  1.00  0.00     0.049 A 
HETATM   12  C   UNL     1      43.157 -11.035  -1.258  1.00  0.00     0.076 C 
HETATM   13  C   UNL     1      42.279 -12.089  -3.492  1.00  0.00     0.035 A 
HETATM   14  C   UNL     1      40.981 -12.510  -3.869  1.00  0.00     0.037 A 
ENDBRANCH   8   9
BRANCH   8  15
HETATM   15  N   UNL     1      38.007 -13.035  -3.775  1.00  0.00    -0.067 N 
HETATM   16  H   UNL     1      38.726 -13.024  -4.510  1.00  0.00     0.280 HD
HETATM   17  C   UNL     1      37.481 -14.433  -3.623  1.00  0.00     0.270 C 
HETATM   18  C   UNL     1      36.908 -12.113  -4.249  1.00  0.00     0.270 C 
ENDBRANCH   8  15
ENDBRANCH   7   8
ENDBRANCH   1   7
BRANCH   3  19
HETATM   19  C   UNL     1      41.642 -16.659   0.798  1.00  0.00     0.036 A 
HETATM   20  C   UNL     1      41.051 -17.055   1.996  1.00  0.00     0.032 A 
HETATM   21  C   UNL     1      41.773 -17.801   2.941  1.00  0.00     0.032 A 
HETATM   22  C   UNL     1      43.104 -18.160   2.705  1.00  0.00     0.040 A 
HETATM   23  C   UNL     1      43.697 -17.757   1.500  1.00  0.00     0.032 A 
HETATM   24  C   UNL     1      42.972 -17.013   0.560  1.00  0.00     0.032 A 
BRANCH  22  25
HETATM   25  N   UNL     1      43.847 -18.958   3.630  1.00  0.00    -0.309 N 
HETATM   26  C   UNL     1      44.416 -20.224   3.473  1.00  0.00     0.106 A 
HETATM   27  C   UNL     1      44.219 -21.138   2.319  1.00  0.00     0.091 C 
HETATM   28  N   UNL     1      45.099 -20.580   4.546  1.00  0.00    -0.246 NA
HETATM   29  C   UNL     1      44.943 -19.573   5.447  1.00  0.00     0.136 A 
HETATM   30  C   UNL     1      44.158 -18.579   4.924  1.00  0.00     0.118 A 
ENDBRANCH  22  25
ENDBRANCH   3  19
TORSDOF 6
ENDMDL
MODEL 6
REMARK VINA RESULT:      -7.3      1.550      2.201
REMARK  6 active torsions:
REMARK  status: ('A' for Active; 'I' for Inactive)
REMARK    1  A    between atoms: C_4  and  C_5 
REMARK    2  A    between atoms: C_5  and  N_6 
REMARK    3  A    between atoms: C_5  and  C_10 
REMARK    4  A    between atoms: C_10  and  N_11 
REMARK       I    between atoms: N_11  and  C_12 
REMARK       I    between atoms: C_12  and  N_13 
REMARK    5  A    between atoms: N_13  and  C_14 
REMARK    6  A    between atoms: C_17  and  N_18 
ROOT
HETATM    1  N   UNL     1      40.962 -13.841   1.288  1.00  0.00    -0.340 N 
HETATM    2  C   UNL     1      41.038 -15.052   1.948  1.00  0.00     0.320 C 
HETATM    3  N   UNL     1      42.340 -15.454   2.096  1.00  0.00    -0.309 N 
HETATM    4  O   UNL     1      40.022 -15.619   2.330  1.00  0.00    -0.247 OA
HETATM    5  H   UNL     1      41.724 -13.654   0.649  1.00  0.00     0.164 HD
HETATM    6  H   UNL     1      43.045 -14.749   1.933  1.00  0.00     0.170 HD
ENDROOT
BRANCH   1   7
HETATM    7  C   UNL     1      39.654 -13.309   0.926  1.00  0.00     0.164 C 
BRANCH   7   8
HETATM    8  C   UNL     1      39.677 -12.187  -0.164  1.00  0.00     0.261 C 
BRANCH   8   9
HETATM    9  C   UNL     1      40.096 -12.796  -1.468  1.00  0.00     0.085 A 
HETATM   10  O   UNL     1      39.988 -14.156  -1.557  1.00  0.00    -0.318 OA
HETATM   11  C   UNL     1      40.436 -14.508  -2.795  1.00  0.00     0.049 A 
HETATM   12  C   UNL     1      40.452 -15.952  -3.110  1.00  0.00     0.076 C 
HETATM   13  C   UNL     1      40.792 -13.383  -3.508  1.00  0.00     0.035 A 
HETATM   14  C   UNL     1      40.574 -12.278  -2.652  1.00  0.00     0.037 A 
ENDBRANCH   8   9
BRANCH   8  15
HETATM   15  N   UNL     1      38.290 -11.519  -0.307  1.00  0.00    -0.067 N 
HETATM   16  H   UNL     1      38.042 -11.622  -1.300  1.00  0.00     0.280 HD
HETATM   17  C   UNL     1      37.217 -12.147   0.536  1.00  0.00     0.270 C 
HETATM   18  C   UNL     1      38.356 -10.033  -0.044  1.00  0.00     0.270 C 
ENDBRANCH   8  15
ENDBRANCH   7   8
ENDBRANCH   1   7
BRANCH   3  19
HETATM   19  C   UNL     1      42.810 -16.702   2.548  1.00  0.00     0.036 A 
HETATM   20  C   UNL     1      42.406 -17.305   3.738  1.00  0.00     0.032 A 
HETATM   21  C   UNL     1      42.874 -18.580   4.092  1.00  0.00     0.032 A 
HETATM   22  C   UNL     1      43.761 -19.274   3.262  1.00  0.00     0.040 A 
HETATM   23  C   UNL     1      44.168 -18.663   2.067  1.00  0.00     0.032 A 
HETATM   24  C   UNL     1      43.699 -17.390   1.718  1.00  0.00     0.032 A 
BRANCH  22  25
HETATM   25  N   UNL     1      44.216 -20.593   3.577  1.00  0.00    -0.309 N 
HETATM   26  C   UNL     1      44.260 -21.743   2.786  1.00  0.00     0.106 A 
HETATM   27  C   UNL     1      43.655 -21.906   1.439  1.00  0.00     0.091 C 
HETATM   28  N   UNL     1      44.835 -22.744   3.427  1.00  0.00    -0.246 NA
HETATM   29  C   UNL     1      45.129 -22.281   4.671  1.00  0.00     0.136 A 
HETATM   30  C   UNL     1      44.737 -20.974   4.800  1.00  0.00     0.118 A 
ENDBRANCH  22  25
ENDBRANCH   3  19
TORSDOF 6
ENDMDL
MODEL 7
REMARK VINA RESULT:      -7.2      2.532      9.063
REMARK  6 active torsions:
REMARK  status: ('A' for Active; 'I' for Inactive)
REMARK    1  A    between atoms: C_4  and  C_5 
REMARK    2  A    between atoms: C_5  and  N_6 
REMARK    3  A    between atoms: C_5  and  C_10 
REMARK    4  A    between atoms: C_10  and  N_11 
REMARK       I    between atoms: N_11  and  C_12 
REMARK       I    between atoms: C_12  and  N_13 
REMARK    5  A    between atoms: N_13  and  C_14 
REMARK    6  A    between atoms: C_17  and  N_18 
ROOT
HETATM    1  N   UNL     1      42.752 -14.657   3.130  1.00  0.00    -0.340 N 
HETATM    2  C   UNL     1      42.273 -14.909   1.859  1.00  0.00     0.320 C 
HETATM    3  N   UNL     1      41.462 -13.893   1.425  1.00  0.00    -0.309 N 
HETATM    4  O   UNL     1      42.595 -15.929   1.263  1.00  0.00    -0.247 OA
HETATM    5  H   UNL     1      42.151 -14.080   3.706  1.00  0.00     0.164 HD
HETATM    6  H   UNL     1      41.506 -13.032   1.952  1.00  0.00     0.170 HD
ENDROOT
BRANCH   1   7
HETATM    7  C   UNL     1      43.532 -15.681   3.812  1.00  0.00     0.164 C 
BRANCH   7   8
HETATM    8  C   UNL     1      42.695 -16.857   4.416  1.00  0.00     0.261 C 
BRANCH   8   9
HETATM    9  C   UNL     1      43.434 -18.140   4.183  1.00  0.00     0.085 A 
HETATM   10  O   UNL     1      43.123 -18.811   3.034  1.00  0.00    -0.318 OA
HETATM   11  C   UNL     1      43.876 -19.947   3.023  1.00  0.00     0.049 A 
HETATM   12  C   UNL     1      43.680 -20.864   1.881  1.00  0.00     0.076 C 
HETATM   13  C   UNL     1      44.690 -19.987   4.135  1.00  0.00     0.035 A 
HETATM   14  C   UNL     1      44.405 -18.821   4.885  1.00  0.00     0.037 A 
ENDBRANCH   8   9
BRANCH   8  15
HETATM   15  N   UNL     1      42.447 -16.648   5.928  1.00  0.00    -0.067 N 
HETATM   16  H   UNL     1      42.486 -17.590   6.340  1.00  0.00     0.280 HD
HETATM   17  C   UNL     1      43.466 -15.775   6.601  1.00  0.00     0.270 C 
HETATM   18  C   UNL     1      41.055 -16.130   6.200  1.00  0.00     0.270 C 
ENDBRANCH   8  15
ENDBRANCH   7   8
ENDBRANCH   1   7
BRANCH   3  19
HETATM   19  C   UNL     1      40.652 -13.869   0.273  1.00  0.00     0.036 A 
HETATM   20  C   UNL     1      41.144 -13.740  -1.024  1.00  0.00     0.032 A 
HETATM   21  C   UNL     1      40.278 -13.785  -2.128  1.00  0.00     0.032 A 
HETATM   22  C   UNL     1      38.901 -13.956  -1.952  1.00  0.00     0.040 A 
HETATM   23  C   UNL     1      38.409 -14.083  -0.645  1.00  0.00     0.032 A 
HETATM   24  C   UNL     1      39.277 -14.037   0.454  1.00  0.00     0.032 A 
BRANCH  22  25
HETATM   25  N   UNL     1      38.003 -14.052  -3.061  1.00  0.00    -0.309 N 
HETATM   26  C   UNL     1      37.834 -15.075  -3.997  1.00  0.00     0.106 A 
HETATM   27  C   UNL     1      38.706 -16.266  -4.163  1.00  0.00     0.091 C 
HETATM   28  N   UNL     1      36.833 -14.814  -4.818  1.00  0.00    -0.246 NA
HETATM   29  C   UNL     1      36.363 -13.587  -4.466  1.00  0.00     0.136 A 
HETATM   30  C   UNL     1      37.078 -13.085  -3.411  1.00  0.00     0.118 A 
ENDBRANCH  22  25
ENDBRANCH   3  19
TORSDOF 6
ENDMDL
MODEL 8
REMARK VINA RESULT:      -7.2      2.370      9.749
REMARK  6 active torsions:
REMARK  status: ('A' for Active; 'I' for Inactive)
REMARK    1  A    between atoms: C_4  and  C_5 
REMARK    2  A    between atoms: C_5  and  N_6 
REMARK    3  A    between atoms: C_5  and  C_10 
REMARK    4  A    between atoms: C_10  and  N_11 
REMARK       I    between atoms: N_11  and  C_12 
REMARK       I    between atoms: C_12  and  N_13 
REMARK    5  A    between atoms: N_13  and  C_14 
REMARK    6  A    between atoms: C_17  and  N_18 
ROOT
HETATM    1  N   UNL     1      42.951 -16.772   0.866  1.00  0.00    -0.340 N 
HETATM    2  C   UNL     1      42.078 -15.758   0.525  1.00  0.00     0.320 C 
HETATM    3  N   UNL     1      41.629 -15.904  -0.762  1.00  0.00    -0.309 N 
HETATM    4  O   UNL     1      41.785 -14.888   1.335  1.00  0.00    -0.247 OA
HETATM    5  H   UNL     1      43.468 -17.170   0.092  1.00  0.00     0.164 HD
HETATM    6  H   UNL     1      41.790 -16.805  -1.190  1.00  0.00     0.170 HD
ENDROOT
BRANCH   1   7
HETATM    7  C   UNL     1      43.631 -16.721   2.154  1.00  0.00     0.164 C 
BRANCH   7   8
HETATM    8  C   UNL     1      42.964 -17.568   3.288  1.00  0.00     0.261 C 
BRANCH   8   9
HETATM    9  C   UNL     1      43.668 -18.888   3.376  1.00  0.00     0.085 A 
HETATM   10  O   UNL     1      43.530 -19.715   2.296  1.00  0.00    -0.318 OA
HETATM   11  C   UNL     1      44.215 -20.857   2.582  1.00  0.00     0.049 A 
HETATM   12  C   UNL     1      44.176 -21.929   1.564  1.00  0.00     0.076 C 
HETATM   13  C   UNL     1      44.820 -20.751   3.817  1.00  0.00     0.035 A 
HETATM   14  C   UNL     1      44.466 -19.481   4.330  1.00  0.00     0.037 A 
ENDBRANCH   8   9
BRANCH   8  15
HETATM   15  N   UNL     1      43.030 -16.834   4.647  1.00  0.00    -0.067 N 
HETATM   16  H   UNL     1      43.810 -17.275   5.153  1.00  0.00     0.280 HD
HETATM   17  C   UNL     1      43.287 -15.359   4.535  1.00  0.00     0.270 C 
HETATM   18  C   UNL     1      41.795 -17.087   5.479  1.00  0.00     0.270 C 
ENDBRANCH   8  15
ENDBRANCH   7   8
ENDBRANCH   1   7
BRANCH   3  19
HETATM   19  C   UNL     1      40.879 -14.986  -1.523  1.00  0.00     0.036 A 
HETATM   20  C   UNL     1      41.101 -14.727  -2.874  1.00  0.00     0.032 A 
HETATM   21  C   UNL     1      40.272 -13.841  -3.581  1.00  0.00     0.032 A 
HETATM   22  C   UNL     1      39.208 -13.194  -2.945  1.00  0.00     0.040 A 
HETATM   23  C   UNL     1      38.989 -13.455  -1.584  1.00  0.00     0.032 A 
HETATM   24  C   UNL     1      39.819 -14.339  -0.883  1.00  0.00     0.032 A 
BRANCH  22  25
HETATM   25  N   UNL     1      38.321 -12.323  -3.653  1.00  0.00    -0.309 N 
HETATM   26  C   UNL     1      38.553 -11.067  -4.216  1.00  0.00     0.106 A 
HETATM   27  C   UNL     1      39.777 -10.241  -4.049  1.00  0.00     0.091 C 
HETATM   28  N   UNL     1      37.489 -10.627  -4.863  1.00  0.00    -0.246 NA
HETATM   29  C   UNL     1      36.521 -11.566  -4.686  1.00  0.00     0.136 A 
HETATM   30  C   UNL     1      36.994 -12.604  -3.926  1.00  0.00     0.118 A 
ENDBRANCH  22  25
ENDBRANCH   3  19
TORSDOF 6
ENDMDL
MODEL 9
REMARK VINA RESULT:      -7.0      2.546      4.100
REMARK  6 active torsions:
REMARK  status: ('A' for Active; 'I' for Inactive)
REMARK    1  A    between atoms: C_4  and  C_5 
REMARK    2  A    between atoms: C_5  and  N_6 
REMARK    3  A    between atoms: C_5  and  C_10 
REMARK    4  A    between atoms: C_10  and  N_11 
REMARK       I    between atoms: N_11  and  C_12 
REMARK       I    between atoms: C_12  and  N_13 
REMARK    5  A    between atoms: N_13  and  C_14 
REMARK    6  A    between atoms: C_17  and  N_18 
ROOT
HETATM    1  N   UNL     1      40.623 -15.998  -1.479  1.00  0.00    -0.340 N 
HETATM    2  C   UNL     1      41.342 -15.863  -0.308  1.00  0.00     0.320 C 
HETATM    3  N   UNL     1      41.241 -16.988   0.468  1.00  0.00    -0.309 N 
HETATM    4  O   UNL     1      41.974 -14.839  -0.080  1.00  0.00    -0.247 OA
HETATM    5  H   UNL     1      39.823 -16.617  -1.420  1.00  0.00     0.164 HD
HETATM    6  H   UNL     1      40.878 -17.813   0.012  1.00  0.00     0.170 HD
ENDROOT
BRANCH   1   7
HETATM    7  C   UNL     1      40.507 -14.858  -2.379  1.00  0.00     0.164 C 
BRANCH   7   8
HETATM    8  C   UNL     1      39.051 -14.322  -2.582  1.00  0.00     0.261 C 
BRANCH   8   9
HETATM    9  C   UNL     1      39.080 -12.825  -2.521  1.00  0.00     0.085 A 
HETATM   10  O   UNL     1      39.864 -12.280  -1.543  1.00  0.00    -0.318 OA
HETATM   11  C   UNL     1      39.735 -10.927  -1.641  1.00  0.00     0.049 A 
HETATM   12  C   UNL     1      40.470 -10.115  -0.648  1.00  0.00     0.076 C 
HETATM   13  C   UNL     1      38.906 -10.604  -2.695  1.00  0.00     0.035 A 
HETATM   14  C   UNL     1      38.482 -11.829  -3.263  1.00  0.00     0.037 A 
ENDBRANCH   8   9
BRANCH   8  15
HETATM   15  N   UNL     1      38.466 -14.792  -3.934  1.00  0.00    -0.067 N 
HETATM   16  H   UNL     1      38.729 -14.061  -4.609  1.00  0.00     0.280 HD
HETATM   17  C   UNL     1      39.000 -16.113  -4.407  1.00  0.00     0.270 C 
HETATM   18  C   UNL     1      36.956 -14.818  -3.911  1.00  0.00     0.270 C 
ENDBRANCH   8  15
ENDBRANCH   7   8
ENDBRANCH   1   7
BRANCH   3  19
HETATM   19  C   UNL     1      41.676 -17.161   1.796  1.00  0.00     0.036 A 
HETATM   20  C   UNL     1      40.868 -16.969   2.914  1.00  0.00     0.032 A 
HETATM   21  C   UNL     1      41.357 -17.220   4.207  1.00  0.00     0.032 A 
HETATM   22  C   UNL     1      42.669 -17.663   4.402  1.00  0.00     0.040 A 
HETATM   23  C   UNL     1      43.481 -17.853   3.274  1.00  0.00     0.032 A 
HETATM   24  C   UNL     1      42.989 -17.601   1.988  1.00  0.00     0.032 A 
BRANCH  22  25
HETATM   25  N   UNL     1      43.177 -17.970   5.703  1.00  0.00    -0.309 N 
HETATM   26  C   UNL     1      43.514 -17.122   6.761  1.00  0.00     0.106 A 
HETATM   27  C   UNL     1      43.588 -15.640   6.709  1.00  0.00     0.091 C 
HETATM   28  N   UNL     1      43.868 -17.809   7.832  1.00  0.00    -0.246 NA
HETATM   29  C   UNL     1      43.822 -19.121   7.475  1.00  0.00     0.136 A 
HETATM   30  C   UNL     1      43.428 -19.248   6.169  1.00  0.00     0.118 A 
ENDBRANCH  22  25
ENDBRANCH   3  19
TORSDOF 6
ENDMDL
MODEL 10
REMARK VINA RESULT:      -7.0      2.042      2.641
REMARK  6 active torsions:
REMARK  status: ('A' for Active; 'I' for Inactive)
REMARK    1  A    between atoms: C_4  and  C_5 
REMARK    2  A    between atoms: C_5  and  N_6 
REMARK    3  A    between atoms: C_5  and  C_10 
REMARK    4  A    between atoms: C_10  and  N_11 
REMARK       I    between atoms: N_11  and  C_12 
REMARK       I    between atoms: C_12  and  N_13 
REMARK    5  A    between atoms: N_13  and  C_14 
REMARK    6  A    between atoms: C_17  and  N_18 
ROOT
HETATM    1  N   UNL     1      39.732 -14.384  -1.222  1.00  0.00    -0.340 N 
HETATM    2  C   UNL     1      40.716 -14.700  -0.306  1.00  0.00     0.320 C 
HETATM    3  N   UNL     1      40.788 -16.054  -0.105  1.00  0.00    -0.309 N 
HETATM    4  O   UNL     1      41.399 -13.821   0.203  1.00  0.00    -0.247 OA
HETATM    5  H   UNL     1      38.961 -15.039  -1.265  1.00  0.00     0.164 HD
HETATM    6  H   UNL     1      40.313 -16.631  -0.784  1.00  0.00     0.170 HD
ENDROOT
BRANCH   1   7
HETATM    7  C   UNL     1      39.420 -12.983  -1.476  1.00  0.00     0.164 C 
BRANCH   7   8
HETATM    8  C   UNL     1      39.344 -12.587  -2.988  1.00  0.00     0.261 C 
BRANCH   8   9
HETATM    9  C   UNL     1      37.905 -12.412  -3.365  1.00  0.00     0.085 A 
HETATM   10  O   UNL     1      37.333 -13.452  -4.044  1.00  0.00    -0.318 OA
HETATM   11  C   UNL     1      36.047 -13.090  -4.312  1.00  0.00     0.049 A 
HETATM   12  C   UNL     1      35.231 -14.052  -5.083  1.00  0.00     0.076 C 
HETATM   13  C   UNL     1      35.783 -11.846  -3.777  1.00  0.00     0.035 A 
HETATM   14  C   UNL     1      36.982 -11.408  -3.167  1.00  0.00     0.037 A 
ENDBRANCH   8   9
BRANCH   8  15
HETATM   15  N   UNL     1      40.132 -11.285  -3.264  1.00  0.00    -0.067 N 
HETATM   16  H   UNL     1      39.564 -10.534  -2.850  1.00  0.00     0.280 HD
HETATM   17  C   UNL     1      41.503 -11.257  -2.654  1.00  0.00     0.270 C 
HETATM   18  C   UNL     1      40.213 -10.984  -4.742  1.00  0.00     0.270 C 
ENDBRANCH   8  15
ENDBRANCH   7   8
ENDBRANCH   1   7
BRANCH   3  19
HETATM   19  C   UNL     1      41.530 -16.741   0.876  1.00  0.00     0.036 A 
HETATM   20  C   UNL     1      41.008 -17.160   2.098  1.00  0.00     0.032 A 
HETATM   21  C   UNL     1      41.795 -17.895   3.000  1.00  0.00     0.032 A 
HETATM   22  C   UNL     1      43.121 -18.217   2.697  1.00  0.00     0.040 A 
HETATM   23  C   UNL     1      43.644 -17.791   1.467  1.00  0.00     0.032 A 
HETATM   24  C   UNL     1      42.856 -17.058   0.570  1.00  0.00     0.032 A 
BRANCH  22  25
HETATM   25  N   UNL     1      43.929 -19.003   3.578  1.00  0.00    -0.309 N 
HETATM   26  C   UNL     1      44.480 -20.273   3.400  1.00  0.00     0.106 A 
HETATM   27  C   UNL     1      44.195 -21.207   2.280  1.00  0.00     0.091 C 
HETATM   28  N   UNL     1      45.240 -20.614   4.425  1.00  0.00    -0.246 NA
HETATM   29  C   UNL     1      45.155 -19.592   5.318  1.00  0.00     0.136 A 
HETATM   30  C   UNL     1      44.337 -18.603   4.838  1.00  0.00     0.118 A 
ENDBRANCH  22  25
ENDBRANCH   3  19
TORSDOF 6
ENDMDL
