MODEL 1
REMARK VINA RESULT:      -7.6      0.000      0.000
REMARK  8 active torsions:
REMARK  status: ('A' for Active; 'I' for Inactive)
REMARK    1  A    between atoms: C_2  and  N_3 
REMARK    2  A    between atoms: C_2  and  C_17 
REMARK    3  A    between atoms: N_3  and  N_4 
REMARK       I    between atoms: N_4  and  C_5 
REMARK    4  A    between atoms: C_5  and  C_6 
REMARK    5  A    between atoms: C_6  and  N_7 
REMARK    6  A    between atoms: N_7  and  C_8 
REMARK    7  A    between atoms: C_9  and  O_10 
REMARK       I    between atoms: C_17  and  N_18 
REMARK    8  A    between atoms: N_18  and  C_19 
ROOT
HETATM    1  N   UNL     1      39.654 -15.708   1.512  1.00  0.00    -0.225 NA
HETATM    2  H   UNL     1      39.114 -16.583   1.427  1.00  0.00     0.147 HD
ENDROOT
BRANCH   1   3
HETATM    3  C   UNL     1      40.926 -15.935   0.757  1.00  0.00     0.165 C 
HETATM    4  C   UNL     1      41.383 -14.606   0.162  1.00  0.00     0.038 C 
BRANCH   3   5
HETATM    5  C   UNL     1      42.031 -16.485   1.677  1.00  0.00     0.241 C 
HETATM    6  N   UNL     1      42.014 -17.867   1.771  1.00  0.00    -0.326 N 
HETATM    7  H   UNL     1      41.311 -18.301   1.178  1.00  0.00     0.169 HD
HETATM    8  O   UNL     1      42.790 -15.728   2.276  1.00  0.00    -0.271 OA
BRANCH   6   9
HETATM    9  C   UNL     1      42.915 -18.705   2.447  1.00  0.00     0.036 A 
HETATM   10  C   UNL     1      43.383 -19.918   1.937  1.00  0.00     0.053 A 
HETATM   11  C   UNL     1      44.254 -20.704   2.694  1.00  0.00     0.036 A 
HETATM   12 CL   UNL     1      44.819 -22.203   2.065  1.00  0.00    -0.084 Cl
HETATM   13  C   UNL     1      44.667 -20.292   3.959  1.00  0.00     0.024 A 
HETATM   14  C   UNL     1      44.210 -19.080   4.471  1.00  0.00     0.004 A 
HETATM   15  C   UNL     1      43.340 -18.290   3.716  1.00  0.00     0.029 A 
ENDBRANCH   6   9
ENDBRANCH   3   5
ENDBRANCH   1   3
BRANCH   1  16
HETATM   16  N   UNL     1      39.908 -15.539   2.905  1.00  0.00    -0.290 N 
HETATM   17  C   UNL     1      39.816 -14.265   3.462  1.00  0.00     0.245 C 
HETATM   18  O   UNL     1      39.463 -13.278   2.818  1.00  0.00    -0.271 OA
HETATM   19  H   UNL     1      40.510 -16.213   3.376  1.00  0.00     0.183 HD
BRANCH  17  20
HETATM   20  C   UNL     1      40.264 -14.195   4.923  1.00  0.00     0.196 C 
BRANCH  20  21
HETATM   21  N   UNL     1      41.735 -14.234   4.973  1.00  0.00    -0.282 NA
HETATM   22  H   UNL     1      42.066 -13.378   5.442  1.00  0.00     0.128 HD
BRANCH  21  23
HETATM   23  C   UNL     1      42.186 -15.297   5.808  1.00  0.00     0.042 A 
HETATM   24  C   UNL     1      43.501 -15.269   6.326  1.00  0.00     0.089 A 
HETATM   25  C   UNL     1      43.932 -16.288   7.176  1.00  0.00     0.038 A 
HETATM   26  C   UNL     1      43.061 -17.326   7.520  1.00  0.00     0.003 A 
HETATM   27  C   UNL     1      41.760 -17.350   7.017  1.00  0.00     0.002 A 
HETATM   28  C   UNL     1      41.320 -16.335   6.166  1.00  0.00     0.026 A 
BRANCH  24  29
HETATM   29  O   UNL     1      44.254 -14.192   5.924  1.00  0.00    -0.354 OA
HETATM   30  C   UNL     1      45.279 -13.757   6.807  1.00  0.00     0.210 C 
ENDBRANCH  24  29
ENDBRANCH  21  23
ENDBRANCH  20  21
ENDBRANCH  17  20
ENDBRANCH   1  16
TORSDOF 8
ENDMDL
MODEL 2
REMARK VINA RESULT:      -7.3      4.702      6.423
REMARK  8 active torsions:
REMARK  status: ('A' for Active; 'I' for Inactive)
REMARK    1  A    between atoms: C_2  and  N_3 
REMARK    2  A    between atoms: C_2  and  C_17 
REMARK    3  A    between atoms: N_3  and  N_4 
REMARK       I    between atoms: N_4  and  C_5 
REMARK    4  A    between atoms: C_5  and  C_6 
REMARK    5  A    between atoms: C_6  and  N_7 
REMARK    6  A    between atoms: N_7  and  C_8 
REMARK    7  A    between atoms: C_9  and  O_10 
REMARK       I    between atoms: C_17  and  N_18 
REMARK    8  A    between atoms: N_18  and  C_19 
ROOT
HETATM    1  N   UNL     1      44.545 -14.178   7.259  1.00  0.00    -0.225 NA
HETATM    2  H   UNL     1      45.312 -13.829   6.663  1.00  0.00     0.147 HD
ENDROOT
BRANCH   1   3
HETATM    3  C   UNL     1      43.554 -14.802   6.328  1.00  0.00     0.165 C 
HETATM    4  C   UNL     1      43.556 -14.021   5.017  1.00  0.00     0.038 C 
BRANCH   3   5
HETATM    5  C   UNL     1      43.907 -16.274   6.042  1.00  0.00     0.241 C 
HETATM    6  N   UNL     1      43.550 -16.674   4.765  1.00  0.00    -0.326 N 
HETATM    7  H   UNL     1      43.161 -15.921   4.202  1.00  0.00     0.169 HD
HETATM    8  O   UNL     1      44.408 -16.983   6.909  1.00  0.00    -0.271 OA
BRANCH   6   9
HETATM    9  C   UNL     1      43.790 -17.907   4.139  1.00  0.00     0.036 A 
HETATM   10  C   UNL     1      44.236 -19.048   4.811  1.00  0.00     0.053 A 
HETATM   11  C   UNL     1      44.480 -20.225   4.101  1.00  0.00     0.036 A 
HETATM   12 CL   UNL     1      45.040 -21.625   4.932  1.00  0.00    -0.084 Cl
HETATM   13  C   UNL     1      44.282 -20.280   2.723  1.00  0.00     0.024 A 
HETATM   14  C   UNL     1      43.830 -19.149   2.048  1.00  0.00     0.004 A 
HETATM   15  C   UNL     1      43.583 -17.969   2.754  1.00  0.00     0.029 A 
ENDBRANCH   6   9
ENDBRANCH   3   5
ENDBRANCH   1   3
BRANCH   1  16
HETATM   16  N   UNL     1      43.994 -13.028   7.900  1.00  0.00    -0.290 N 
HETATM   17  C   UNL     1      44.740 -12.373   8.877  1.00  0.00     0.245 C 
HETATM   18  O   UNL     1      45.887 -12.703   9.176  1.00  0.00    -0.271 OA
HETATM   19  H   UNL     1      42.980 -12.933   7.943  1.00  0.00     0.183 HD
BRANCH  17  20
HETATM   20  C   UNL     1      43.976 -11.258   9.594  1.00  0.00     0.196 C 
BRANCH  20  21
HETATM   21  N   UNL     1      43.009 -11.864  10.524  1.00  0.00    -0.282 NA
HETATM   22  H   UNL     1      43.471 -12.650  11.004  1.00  0.00     0.128 HD
BRANCH  21  23
HETATM   23  C   UNL     1      42.674 -10.954  11.569  1.00  0.00     0.042 A 
HETATM   24  C   UNL     1      41.316 -10.686  11.853  1.00  0.00     0.089 A 
HETATM   25  C   UNL     1      40.984  -9.826  12.900  1.00  0.00     0.038 A 
HETATM   26  C   UNL     1      41.994  -9.243  13.671  1.00  0.00     0.003 A 
HETATM   27  C   UNL     1      43.335  -9.515  13.399  1.00  0.00     0.002 A 
HETATM   28  C   UNL     1      43.676 -10.373  12.353  1.00  0.00     0.026 A 
BRANCH  24  29
HETATM   29  O   UNL     1      40.420 -11.329  11.032  1.00  0.00    -0.354 OA
HETATM   30  C   UNL     1      39.714 -10.526  10.095  1.00  0.00     0.210 C 
ENDBRANCH  24  29
ENDBRANCH  21  23
ENDBRANCH  20  21
ENDBRANCH  17  20
ENDBRANCH   1  16
TORSDOF 8
ENDMDL
MODEL 3
REMARK VINA RESULT:      -7.3      5.412      9.188
REMARK  8 active torsions:
REMARK  status: ('A' for Active; 'I' for Inactive)
REMARK    1  A    between atoms: C_2  and  N_3 
REMARK    2  A    between atoms: C_2  and  C_17 
REMARK    3  A    between atoms: N_3  and  N_4 
REMARK       I    between atoms: N_4  and  C_5 
REMARK    4  A    between atoms: C_5  and  C_6 
REMARK    5  A    between atoms: C_6  and  N_7 
REMARK    6  A    between atoms: N_7  and  C_8 
REMARK    7  A    between atoms: C_9  and  O_10 
REMARK       I    between atoms: C_17  and  N_18 
REMARK    8  A    between atoms: N_18  and  C_19 
ROOT
HETATM    1  N   UNL     1      44.072 -13.300   7.562  1.00  0.00    -0.225 NA
HETATM    2  H   UNL     1      44.686 -13.051   6.771  1.00  0.00     0.147 HD
ENDROOT
BRANCH   1   3
HETATM    3  C   UNL     1      44.752 -12.780   8.789  1.00  0.00     0.165 C 
HETATM    4  C   UNL     1      46.111 -12.211   8.391  1.00  0.00     0.038 C 
BRANCH   3   5
HETATM    5  C   UNL     1      43.919 -11.673   9.463  1.00  0.00     0.241 C 
HETATM    6  N   UNL     1      43.403 -12.060  10.689  1.00  0.00    -0.326 N 
HETATM    7  H   UNL     1      43.699 -12.990  10.973  1.00  0.00     0.169 HD
HETATM    8  O   UNL     1      43.726 -10.598   8.903  1.00  0.00    -0.271 OA
BRANCH   6   9
HETATM    9  C   UNL     1      42.673 -11.291  11.609  1.00  0.00     0.036 A 
HETATM   10  C   UNL     1      41.317 -10.988  11.469  1.00  0.00     0.053 A 
HETATM   11  C   UNL     1      40.679 -10.188  12.418  1.00  0.00     0.036 A 
HETATM   12 CL   UNL     1      39.009  -9.809  12.235  1.00  0.00    -0.084 Cl
HETATM   13  C   UNL     1      41.379  -9.684  13.512  1.00  0.00     0.024 A 
HETATM   14  C   UNL     1      42.730  -9.989  13.663  1.00  0.00     0.004 A 
HETATM   15  C   UNL     1      43.372 -10.791  12.716  1.00  0.00     0.029 A 
ENDBRANCH   6   9
ENDBRANCH   3   5
ENDBRANCH   1   3
BRANCH   1  16
HETATM   16  N   UNL     1      44.009 -14.725   7.576  1.00  0.00    -0.290 N 
HETATM   17  C   UNL     1      43.706 -15.402   6.397  1.00  0.00     0.245 C 
HETATM   18  O   UNL     1      43.547 -14.830   5.319  1.00  0.00    -0.271 OA
HETATM   19  H   UNL     1      43.793 -15.195   8.454  1.00  0.00     0.183 HD
BRANCH  17  20
HETATM   20  C   UNL     1      43.514 -16.908   6.581  1.00  0.00     0.196 C 
BRANCH  20  21
HETATM   21  N   UNL     1      42.516 -17.385   5.609  1.00  0.00    -0.282 NA
HETATM   22  H   UNL     1      42.204 -16.581   5.045  1.00  0.00     0.128 HD
BRANCH  21  23
HETATM   23  C   UNL     1      43.111 -18.274   4.667  1.00  0.00     0.042 A 
HETATM   24  C   UNL     1      42.784 -18.161   3.296  1.00  0.00     0.089 A 
HETATM   25  C   UNL     1      43.394 -19.003   2.367  1.00  0.00     0.038 A 
HETATM   26  C   UNL     1      44.332 -19.948   2.792  1.00  0.00     0.003 A 
HETATM   27  C   UNL     1      44.663 -20.055   4.143  1.00  0.00     0.002 A 
HETATM   28  C   UNL     1      44.057 -19.217   5.080  1.00  0.00     0.026 A 
BRANCH  24  29
HETATM   29  O   UNL     1      41.858 -17.187   3.006  1.00  0.00    -0.354 OA
HETATM   30  C   UNL     1      41.185 -17.289   1.758  1.00  0.00     0.210 C 
ENDBRANCH  24  29
ENDBRANCH  21  23
ENDBRANCH  20  21
ENDBRANCH  17  20
ENDBRANCH   1  16
TORSDOF 8
ENDMDL
MODEL 4
REMARK VINA RESULT:      -7.3      1.833      4.770
REMARK  8 active torsions:
REMARK  status: ('A' for Active; 'I' for Inactive)
REMARK    1  A    between atoms: C_2  and  N_3 
REMARK    2  A    between atoms: C_2  and  C_17 
REMARK    3  A    between atoms: N_3  and  N_4 
REMARK       I    between atoms: N_4  and  C_5 
REMARK    4  A    between atoms: C_5  and  C_6 
REMARK    5  A    between atoms: C_6  and  N_7 
REMARK    6  A    between atoms: N_7  and  C_8 
REMARK    7  A    between atoms: C_9  and  O_10 
REMARK       I    between atoms: C_17  and  N_18 
REMARK    8  A    between atoms: N_18  and  C_19 
ROOT
HETATM    1  N   UNL     1      41.877 -15.948   6.473  1.00  0.00    -0.225 NA
HETATM    2  H   UNL     1      42.135 -15.081   6.968  1.00  0.00     0.147 HD
ENDROOT
BRANCH   1   3
HETATM    3  C   UNL     1      43.152 -16.496   5.913  1.00  0.00     0.165 C 
HETATM    4  C   UNL     1      44.184 -16.573   7.034  1.00  0.00     0.038 C 
BRANCH   3   5
HETATM    5  C   UNL     1      42.942 -17.903   5.320  1.00  0.00     0.241 C 
HETATM    6  N   UNL     1      44.134 -18.554   5.049  1.00  0.00    -0.326 N 
HETATM    7  H   UNL     1      44.954 -18.025   5.332  1.00  0.00     0.169 HD
HETATM    8  O   UNL     1      41.814 -18.330   5.091  1.00  0.00    -0.271 OA
BRANCH   6   9
HETATM    9  C   UNL     1      44.323 -19.866   4.585  1.00  0.00     0.036 A 
HETATM   10  C   UNL     1      44.220 -20.241   3.244  1.00  0.00     0.053 A 
HETATM   11  C   UNL     1      44.393 -21.577   2.878  1.00  0.00     0.036 A 
HETATM   12 CL   UNL     1      44.254 -22.035   1.224  1.00  0.00    -0.084 Cl
HETATM   13  C   UNL     1      44.671 -22.548   3.836  1.00  0.00     0.024 A 
HETATM   14  C   UNL     1      44.784 -22.180   5.175  1.00  0.00     0.004 A 
HETATM   15  C   UNL     1      44.613 -20.844   5.546  1.00  0.00     0.029 A 
ENDBRANCH   6   9
ENDBRANCH   3   5
ENDBRANCH   1   3
BRANCH   1  16
HETATM   16  N   UNL     1      40.987 -15.554   5.430  1.00  0.00    -0.290 N 
HETATM   17  C   UNL     1      40.957 -14.219   5.033  1.00  0.00     0.245 C 
HETATM   18  O   UNL     1      41.710 -13.365   5.499  1.00  0.00    -0.271 OA
HETATM   19  H   UNL     1      40.148 -16.109   5.269  1.00  0.00     0.183 HD
BRANCH  17  20
HETATM   20  C   UNL     1      39.854 -13.900   4.022  1.00  0.00     0.196 C 
BRANCH  20  21
HETATM   21  N   UNL     1      39.560 -15.111   3.237  1.00  0.00    -0.282 NA
HETATM   22  H   UNL     1      38.538 -15.238   3.209  1.00  0.00     0.128 HD
BRANCH  21  23
HETATM   23  C   UNL     1      39.936 -14.934   1.874  1.00  0.00     0.042 A 
HETATM   24  C   UNL     1      41.113 -15.548   1.388  1.00  0.00     0.089 A 
HETATM   25  C   UNL     1      41.462 -15.410   0.045  1.00  0.00     0.038 A 
HETATM   26  C   UNL     1      40.644 -14.674  -0.817  1.00  0.00     0.003 A 
HETATM   27  C   UNL     1      39.477 -14.076  -0.342  1.00  0.00     0.002 A 
HETATM   28  C   UNL     1      39.120 -14.208   1.001  1.00  0.00     0.026 A 
BRANCH  24  29
HETATM   29  O   UNL     1      41.824 -16.252   2.331  1.00  0.00    -0.354 OA
HETATM   30  C   UNL     1      43.241 -16.205   2.236  1.00  0.00     0.210 C 
ENDBRANCH  24  29
ENDBRANCH  21  23
ENDBRANCH  20  21
ENDBRANCH  17  20
ENDBRANCH   1  16
TORSDOF 8
ENDMDL
MODEL 5
REMARK VINA RESULT:      -7.2      3.429      5.253
REMARK  8 active torsions:
REMARK  status: ('A' for Active; 'I' for Inactive)
REMARK    1  A    between atoms: C_2  and  N_3 
REMARK    2  A    between atoms: C_2  and  C_17 
REMARK    3  A    between atoms: N_3  and  N_4 
REMARK       I    between atoms: N_4  and  C_5 
REMARK    4  A    between atoms: C_5  and  C_6 
REMARK    5  A    between atoms: C_6  and  N_7 
REMARK    6  A    between atoms: N_7  and  C_8 
REMARK    7  A    between atoms: C_9  and  O_10 
REMARK       I    between atoms: C_17  and  N_18 
REMARK    8  A    between atoms: N_18  and  C_19 
ROOT
HETATM    1  N   UNL     1      42.649 -13.843   5.578  1.00  0.00    -0.225 NA
HETATM    2  H   UNL     1      42.285 -13.060   5.013  1.00  0.00     0.147 HD
ENDROOT
BRANCH   1   3
HETATM    3  C   UNL     1      41.459 -14.677   5.937  1.00  0.00     0.165 C 
HETATM    4  C   UNL     1      40.258 -14.187   5.133  1.00  0.00     0.038 C 
BRANCH   3   5
HETATM    5  C   UNL     1      41.705 -16.165   5.625  1.00  0.00     0.241 C 
HETATM    6  N   UNL     1      42.936 -16.394   5.033  1.00  0.00    -0.326 N 
HETATM    7  H   UNL     1      43.502 -15.553   4.946  1.00  0.00     0.169 HD
HETATM    8  O   UNL     1      40.844 -17.010   5.856  1.00  0.00    -0.271 OA
BRANCH   6   9
HETATM    9  C   UNL     1      43.523 -17.622   4.690  1.00  0.00     0.036 A 
HETATM   10  C   UNL     1      43.268 -18.302   3.497  1.00  0.00     0.053 A 
HETATM   11  C   UNL     1      43.873 -19.536   3.254  1.00  0.00     0.036 A 
HETATM   12 CL   UNL     1      43.547 -20.375   1.787  1.00  0.00    -0.084 Cl
HETATM   13  C   UNL     1      44.736 -20.103   4.189  1.00  0.00     0.024 A 
HETATM   14  C   UNL     1      45.001 -19.427   5.378  1.00  0.00     0.004 A 
HETATM   15  C   UNL     1      44.399 -18.191   5.625  1.00  0.00     0.029 A 
ENDBRANCH   6   9
ENDBRANCH   3   5
ENDBRANCH   1   3
BRANCH   1  16
HETATM   16  N   UNL     1      43.230 -13.252   6.739  1.00  0.00    -0.290 N 
HETATM   17  C   UNL     1      44.358 -13.840   7.307  1.00  0.00     0.245 C 
HETATM   18  O   UNL     1      44.920 -14.819   6.818  1.00  0.00    -0.271 OA
HETATM   19  H   UNL     1      42.637 -12.691   7.349  1.00  0.00     0.183 HD
BRANCH  17  20
HETATM   20  C   UNL     1      44.785 -13.204   8.631  1.00  0.00     0.196 C 
BRANCH  20  21
HETATM   21  N   UNL     1      44.863 -11.744   8.457  1.00  0.00    -0.282 NA
HETATM   22  H   UNL     1      44.337 -11.491   7.607  1.00  0.00     0.128 HD
BRANCH  21  23
HETATM   23  C   UNL     1      44.181 -11.071   9.512  1.00  0.00     0.042 A 
HETATM   24  C   UNL     1      42.913 -10.497   9.271  1.00  0.00     0.089 A 
HETATM   25  C   UNL     1      42.226  -9.872  10.312  1.00  0.00     0.038 A 
HETATM   26  C   UNL     1      42.790  -9.823  11.590  1.00  0.00     0.003 A 
HETATM   27  C   UNL     1      44.038 -10.398  11.832  1.00  0.00     0.002 A 
HETATM   28  C   UNL     1      44.732 -11.025  10.796  1.00  0.00     0.026 A 
BRANCH  24  29
HETATM   29  O   UNL     1      42.463 -10.621   7.978  1.00  0.00    -0.354 OA
HETATM   30  C   UNL     1      41.118 -10.237   7.724  1.00  0.00     0.210 C 
ENDBRANCH  24  29
ENDBRANCH  21  23
ENDBRANCH  20  21
ENDBRANCH  17  20
ENDBRANCH   1  16
TORSDOF 8
ENDMDL
MODEL 6
REMARK VINA RESULT:      -7.1      3.301      6.216
REMARK  8 active torsions:
REMARK  status: ('A' for Active; 'I' for Inactive)
REMARK    1  A    between atoms: C_2  and  N_3 
REMARK    2  A    between atoms: C_2  and  C_17 
REMARK    3  A    between atoms: N_3  and  N_4 
REMARK       I    between atoms: N_4  and  C_5 
REMARK    4  A    between atoms: C_5  and  C_6 
REMARK    5  A    between atoms: C_6  and  N_7 
REMARK    6  A    between atoms: N_7  and  C_8 
REMARK    7  A    between atoms: C_9  and  O_10 
REMARK       I    between atoms: C_17  and  N_18 
REMARK    8  A    between atoms: N_18  and  C_19 
ROOT
HETATM    1  N   UNL     1      40.198 -15.459   4.216  1.00  0.00    -0.225 NA
HETATM    2  H   UNL     1      39.303 -15.891   3.941  1.00  0.00     0.147 HD
ENDROOT
BRANCH   1   3
HETATM    3  C   UNL     1      40.587 -14.564   3.082  1.00  0.00     0.165 C 
HETATM    4  C   UNL     1      42.104 -14.406   3.082  1.00  0.00     0.038 C 
BRANCH   3   5
HETATM    5  C   UNL     1      40.138 -15.149   1.729  1.00  0.00     0.241 C 
HETATM    6  N   UNL     1      40.347 -14.280   0.671  1.00  0.00    -0.326 N 
HETATM    7  H   UNL     1      40.809 -13.417   0.946  1.00  0.00     0.169 HD
HETATM    8  O   UNL     1      39.615 -16.258   1.664  1.00  0.00    -0.271 OA
BRANCH   6   9
HETATM    9  C   UNL     1      40.136 -14.508  -0.698  1.00  0.00     0.036 A 
HETATM   10  C   UNL     1      39.039 -14.016  -1.410  1.00  0.00     0.053 A 
HETATM   11  C   UNL     1      38.894 -14.320  -2.764  1.00  0.00     0.036 A 
HETATM   12 CL   UNL     1      37.534 -13.721  -3.634  1.00  0.00    -0.084 Cl
HETATM   13  C   UNL     1      39.833 -15.110  -3.422  1.00  0.00     0.024 A 
HETATM   14  C   UNL     1      40.934 -15.597  -2.721  1.00  0.00     0.004 A 
HETATM   15  C   UNL     1      41.085 -15.294  -1.365  1.00  0.00     0.029 A 
ENDBRANCH   6   9
ENDBRANCH   3   5
ENDBRANCH   1   3
BRANCH   1  16
HETATM   16  N   UNL     1      41.124 -16.535   4.360  1.00  0.00    -0.290 N 
HETATM   17  C   UNL     1      41.348 -17.072   5.626  1.00  0.00     0.245 C 
HETATM   18  O   UNL     1      40.736 -16.702   6.628  1.00  0.00    -0.271 OA
HETATM   19  H   UNL     1      41.869 -16.632   3.672  1.00  0.00     0.183 HD
BRANCH  17  20
HETATM   20  C   UNL     1      42.474 -18.107   5.668  1.00  0.00     0.196 C 
BRANCH  20  21
HETATM   21  N   UNL     1      43.394 -17.857   4.546  1.00  0.00    -0.282 NA
HETATM   22  H   UNL     1      44.300 -17.555   4.931  1.00  0.00     0.128 HD
BRANCH  21  23
HETATM   23  C   UNL     1      43.686 -19.068   3.852  1.00  0.00     0.042 A 
HETATM   24  C   UNL     1      43.213 -19.248   2.532  1.00  0.00     0.089 A 
HETATM   25  C   UNL     1      43.531 -20.415   1.837  1.00  0.00     0.038 A 
HETATM   26  C   UNL     1      44.322 -21.395   2.442  1.00  0.00     0.003 A 
HETATM   27  C   UNL     1      44.799 -21.214   3.741  1.00  0.00     0.002 A 
HETATM   28  C   UNL     1      44.485 -20.050   4.444  1.00  0.00     0.026 A 
BRANCH  24  29
HETATM   29  O   UNL     1      42.456 -18.209   2.046  1.00  0.00    -0.354 OA
HETATM   30  C   UNL     1      43.061 -17.374   1.067  1.00  0.00     0.210 C 
ENDBRANCH  24  29
ENDBRANCH  21  23
ENDBRANCH  20  21
ENDBRANCH  17  20
ENDBRANCH   1  16
TORSDOF 8
ENDMDL
MODEL 7
REMARK VINA RESULT:      -7.1      2.207      5.609
REMARK  8 active torsions:
REMARK  status: ('A' for Active; 'I' for Inactive)
REMARK    1  A    between atoms: C_2  and  N_3 
REMARK    2  A    between atoms: C_2  and  C_17 
REMARK    3  A    between atoms: N_3  and  N_4 
REMARK       I    between atoms: N_4  and  C_5 
REMARK    4  A    between atoms: C_5  and  C_6 
REMARK    5  A    between atoms: C_6  and  N_7 
REMARK    6  A    between atoms: N_7  and  C_8 
REMARK    7  A    between atoms: C_9  and  O_10 
REMARK       I    between atoms: C_17  and  N_18 
REMARK    8  A    between atoms: N_18  and  C_19 
ROOT
HETATM    1  N   UNL     1      40.144 -15.251   4.426  1.00  0.00    -0.225 NA
HETATM    2  H   UNL     1      40.057 -14.271   4.735  1.00  0.00     0.147 HD
ENDROOT
BRANCH   1   3
HETATM    3  C   UNL     1      41.607 -15.564   4.462  1.00  0.00     0.165 C 
HETATM    4  C   UNL     1      42.204 -14.960   5.729  1.00  0.00     0.038 C 
BRANCH   3   5
HETATM    5  C   UNL     1      41.852 -17.085   4.462  1.00  0.00     0.241 C 
HETATM    6  N   UNL     1      43.081 -17.432   3.925  1.00  0.00    -0.326 N 
HETATM    7  H   UNL     1      43.647 -16.628   3.666  1.00  0.00     0.169 HD
HETATM    8  O   UNL     1      40.991 -17.864   4.864  1.00  0.00    -0.271 OA
BRANCH   6   9
HETATM    9  C   UNL     1      43.666 -18.705   3.841  1.00  0.00     0.036 A 
HETATM   10  C   UNL     1      43.574 -19.532   2.719  1.00  0.00     0.053 A 
HETATM   11  C   UNL     1      44.162 -20.798   2.735  1.00  0.00     0.036 A 
HETATM   12 CL   UNL     1      44.035 -21.817   1.354  1.00  0.00    -0.084 Cl
HETATM   13  C   UNL     1      44.846 -21.251   3.860  1.00  0.00     0.024 A 
HETATM   14  C   UNL     1      44.950 -20.429   4.980  1.00  0.00     0.004 A 
HETATM   15  C   UNL     1      44.364 -19.160   4.968  1.00  0.00     0.029 A 
ENDBRANCH   6   9
ENDBRANCH   3   5
ENDBRANCH   1   3
BRANCH   1  16
HETATM   16  N   UNL     1      39.645 -15.286   3.090  1.00  0.00    -0.290 N 
HETATM   17  C   UNL     1      39.421 -14.086   2.418  1.00  0.00     0.245 C 
HETATM   18  O   UNL     1      39.691 -12.987   2.902  1.00  0.00    -0.271 OA
HETATM   19  H   UNL     1      39.105 -16.097   2.793  1.00  0.00     0.183 HD
BRANCH  17  20
HETATM   20  C   UNL     1      38.740 -14.257   1.059  1.00  0.00     0.196 C 
BRANCH  20  21
HETATM   21  N   UNL     1      39.467 -13.459   0.057  1.00  0.00    -0.282 NA
HETATM   22  H   UNL     1      40.436 -13.334   0.384  1.00  0.00     0.128 HD
BRANCH  21  23
HETATM   23  C   UNL     1      39.592 -14.176  -1.168  1.00  0.00     0.042 A 
HETATM   24  C   UNL     1      40.736 -14.972  -1.398  1.00  0.00     0.089 A 
HETATM   25  C   UNL     1      40.843 -15.706  -2.580  1.00  0.00     0.038 A 
HETATM   26  C   UNL     1      39.815 -15.658  -3.526  1.00  0.00     0.003 A 
HETATM   27  C   UNL     1      38.681 -14.880  -3.297  1.00  0.00     0.002 A 
HETATM   28  C   UNL     1      38.566 -14.142  -2.118  1.00  0.00     0.026 A 
BRANCH  24  29
HETATM   29  O   UNL     1      41.668 -14.944  -0.388  1.00  0.00    -0.354 OA
HETATM   30  C   UNL     1      41.892 -16.159   0.316  1.00  0.00     0.210 C 
ENDBRANCH  24  29
ENDBRANCH  21  23
ENDBRANCH  20  21
ENDBRANCH  17  20
ENDBRANCH   1  16
TORSDOF 8
ENDMDL
MODEL 8
REMARK VINA RESULT:      -7.1      2.893      5.721
REMARK  8 active torsions:
REMARK  status: ('A' for Active; 'I' for Inactive)
REMARK    1  A    between atoms: C_2  and  N_3 
REMARK    2  A    between atoms: C_2  and  C_17 
REMARK    3  A    between atoms: N_3  and  N_4 
REMARK       I    between atoms: N_4  and  C_5 
REMARK    4  A    between atoms: C_5  and  C_6 
REMARK    5  A    between atoms: C_6  and  N_7 
REMARK    6  A    between atoms: N_7  and  C_8 
REMARK    7  A    between atoms: C_9  and  O_10 
REMARK       I    between atoms: C_17  and  N_18 
REMARK    8  A    between atoms: N_18  and  C_19 
ROOT
HETATM    1  N   UNL     1      40.058 -15.054   6.425  1.00  0.00    -0.225 NA
HETATM    2  H   UNL     1      39.235 -15.238   7.019  1.00  0.00     0.147 HD
ENDROOT
BRANCH   1   3
HETATM    3  C   UNL     1      39.586 -14.133   5.344  1.00  0.00     0.165 C 
HETATM    4  C   UNL     1      39.666 -12.698   5.857  1.00  0.00     0.038 C 
BRANCH   3   5
HETATM    5  C   UNL     1      40.453 -14.268   4.078  1.00  0.00     0.241 C 
HETATM    6  N   UNL     1      39.797 -14.912   3.043  1.00  0.00    -0.326 N 
HETATM    7  H   UNL     1      38.833 -15.147   3.264  1.00  0.00     0.169 HD
HETATM    8  O   UNL     1      41.614 -13.868   4.063  1.00  0.00    -0.271 OA
BRANCH   6   9
HETATM    9  C   UNL     1      40.246 -15.135   1.732  1.00  0.00     0.036 A 
HETATM   10  C   UNL     1      39.974 -14.282   0.660  1.00  0.00     0.053 A 
HETATM   11  C   UNL     1      40.435 -14.600  -0.619  1.00  0.00     0.036 A 
HETATM   12 CL   UNL     1      40.089 -13.551  -1.939  1.00  0.00    -0.084 Cl
HETATM   13  C   UNL     1      41.168 -15.763  -0.843  1.00  0.00     0.024 A 
HETATM   14  C   UNL     1      41.450 -16.615   0.223  1.00  0.00     0.004 A 
HETATM   15  C   UNL     1      40.992 -16.300   1.504  1.00  0.00     0.029 A 
ENDBRANCH   6   9
ENDBRANCH   3   5
ENDBRANCH   1   3
BRANCH   1  16
HETATM   16  N   UNL     1      40.444 -16.318   5.889  1.00  0.00    -0.290 N 
HETATM   17  C   UNL     1      41.740 -16.781   6.107  1.00  0.00     0.245 C 
HETATM   18  O   UNL     1      42.559 -16.175   6.797  1.00  0.00    -0.271 OA
HETATM   19  H   UNL     1      39.954 -16.670   5.067  1.00  0.00     0.183 HD
BRANCH  17  20
HETATM   20  C   UNL     1      42.073 -18.068   5.350  1.00  0.00     0.196 C 
BRANCH  20  21
HETATM   21  N   UNL     1      43.456 -17.985   4.853  1.00  0.00    -0.282 NA
HETATM   22  H   UNL     1      44.095 -18.131   5.648  1.00  0.00     0.128 HD
BRANCH  21  23
HETATM   23  C   UNL     1      43.740 -19.061   3.963  1.00  0.00     0.042 A 
HETATM   24  C   UNL     1      44.359 -20.232   4.456  1.00  0.00     0.089 A 
HETATM   25  C   UNL     1      44.602 -21.302   3.596  1.00  0.00     0.038 A 
HETATM   26  C   UNL     1      44.226 -21.217   2.253  1.00  0.00     0.003 A 
HETATM   27  C   UNL     1      43.606 -20.066   1.765  1.00  0.00     0.002 A 
HETATM   28  C   UNL     1      43.359 -18.990   2.619  1.00  0.00     0.026 A 
BRANCH  24  29
HETATM   29  O   UNL     1      44.669 -20.196   5.795  1.00  0.00    -0.354 OA
HETATM   30  C   UNL     1      43.931 -21.058   6.651  1.00  0.00     0.210 C 
ENDBRANCH  24  29
ENDBRANCH  21  23
ENDBRANCH  20  21
ENDBRANCH  17  20
ENDBRANCH   1  16
TORSDOF 8
ENDMDL
MODEL 9
REMARK VINA RESULT:      -7.0      3.886      5.200
REMARK  8 active torsions:
REMARK  status: ('A' for Active; 'I' for Inactive)
REMARK    1  A    between atoms: C_2  and  N_3 
REMARK    2  A    between atoms: C_2  and  C_17 
REMARK    3  A    between atoms: N_3  and  N_4 
REMARK       I    between atoms: N_4  and  C_5 
REMARK    4  A    between atoms: C_5  and  C_6 
REMARK    5  A    between atoms: C_6  and  N_7 
REMARK    6  A    between atoms: N_7  and  C_8 
REMARK    7  A    between atoms: C_9  and  O_10 
REMARK       I    between atoms: C_17  and  N_18 
REMARK    8  A    between atoms: N_18  and  C_19 
ROOT
HETATM    1  N   UNL     1      39.498 -13.236   6.913  1.00  0.00    -0.225 NA
HETATM    2  H   UNL     1      39.830 -14.027   7.485  1.00  0.00     0.147 HD
ENDROOT
BRANCH   1   3
HETATM    3  C   UNL     1      39.589 -13.692   5.490  1.00  0.00     0.165 C 
HETATM    4  C   UNL     1      39.480 -12.474   4.579  1.00  0.00     0.038 C 
BRANCH   3   5
HETATM    5  C   UNL     1      40.924 -14.411   5.219  1.00  0.00     0.241 C 
HETATM    6  N   UNL     1      40.754 -15.715   4.787  1.00  0.00    -0.326 N 
HETATM    7  H   UNL     1      39.779 -15.975   4.666  1.00  0.00     0.169 HD
HETATM    8  O   UNL     1      41.996 -13.850   5.428  1.00  0.00    -0.271 OA
BRANCH   6   9
HETATM    9  C   UNL     1      41.735 -16.631   4.372  1.00  0.00     0.036 A 
HETATM   10  C   UNL     1      42.474 -16.500   3.194  1.00  0.00     0.053 A 
HETATM   11  C   UNL     1      43.408 -17.477   2.845  1.00  0.00     0.036 A 
HETATM   12 CL   UNL     1      44.308 -17.317   1.386  1.00  0.00    -0.084 Cl
HETATM   13  C   UNL     1      43.617 -18.587   3.660  1.00  0.00     0.024 A 
HETATM   14  C   UNL     1      42.890 -18.719   4.841  1.00  0.00     0.004 A 
HETATM   15  C   UNL     1      41.955 -17.743   5.195  1.00  0.00     0.029 A 
ENDBRANCH   6   9
ENDBRANCH   3   5
ENDBRANCH   1   3
BRANCH   1  16
HETATM   16  N   UNL     1      40.402 -12.162   7.165  1.00  0.00    -0.290 N 
HETATM   17  C   UNL     1      39.967 -11.071   7.914  1.00  0.00     0.245 C 
HETATM   18  O   UNL     1      38.849 -11.013   8.425  1.00  0.00    -0.271 OA
HETATM   19  H   UNL     1      41.168 -12.006   6.512  1.00  0.00     0.183 HD
BRANCH  17  20
HETATM   20  C   UNL     1      40.976  -9.923   7.978  1.00  0.00     0.196 C 
BRANCH  20  21
HETATM   21  N   UNL     1      42.335 -10.486   8.057  1.00  0.00    -0.282 NA
HETATM   22  H   UNL     1      42.969  -9.876   7.521  1.00  0.00     0.128 HD
BRANCH  21  23
HETATM   23  C   UNL     1      42.829 -10.431   9.393  1.00  0.00     0.042 A 
HETATM   24  C   UNL     1      43.948 -11.214   9.756  1.00  0.00     0.089 A 
HETATM   25  C   UNL     1      44.459 -11.132  11.052  1.00  0.00     0.038 A 
HETATM   26  C   UNL     1      43.869 -10.272  11.981  1.00  0.00     0.003 A 
HETATM   27  C   UNL     1      42.770  -9.491  11.622  1.00  0.00     0.002 A 
HETATM   28  C   UNL     1      42.252  -9.567  10.328  1.00  0.00     0.026 A 
BRANCH  24  29
HETATM   29  O   UNL     1      44.444 -12.009   8.750  1.00  0.00    -0.354 OA
HETATM   30  C   UNL     1      45.851 -12.208   8.720  1.00  0.00     0.210 C 
ENDBRANCH  24  29
ENDBRANCH  21  23
ENDBRANCH  20  21
ENDBRANCH  17  20
ENDBRANCH   1  16
TORSDOF 8
ENDMDL
MODEL 10
REMARK VINA RESULT:      -7.0      2.871      6.335
REMARK  8 active torsions:
REMARK  status: ('A' for Active; 'I' for Inactive)
REMARK    1  A    between atoms: C_2  and  N_3 
REMARK    2  A    between atoms: C_2  and  C_17 
REMARK    3  A    between atoms: N_3  and  N_4 
REMARK       I    between atoms: N_4  and  C_5 
REMARK    4  A    between atoms: C_5  and  C_6 
REMARK    5  A    between atoms: C_6  and  N_7 
REMARK    6  A    between atoms: N_7  and  C_8 
REMARK    7  A    between atoms: C_9  and  O_10 
REMARK       I    between atoms: C_17  and  N_18 
REMARK    8  A    between atoms: N_18  and  C_19 
ROOT
HETATM    1  N   UNL     1      42.445 -15.744   5.201  1.00  0.00    -0.225 NA
HETATM    2  H   UNL     1      42.553 -15.396   6.166  1.00  0.00     0.147 HD
ENDROOT
BRANCH   1   3
HETATM    3  C   UNL     1      40.970 -15.835   4.961  1.00  0.00     0.165 C 
HETATM    4  C   UNL     1      40.306 -14.581   5.523  1.00  0.00     0.038 C 
BRANCH   3   5
HETATM    5  C   UNL     1      40.655 -15.944   3.457  1.00  0.00     0.241 C 
HETATM    6  N   UNL     1      40.096 -14.788   2.939  1.00  0.00    -0.326 N 
HETATM    7  H   UNL     1      40.031 -14.034   3.619  1.00  0.00     0.169 HD
HETATM    8  O   UNL     1      40.857 -16.989   2.845  1.00  0.00    -0.271 OA
BRANCH   6   9
HETATM    9  C   UNL     1      39.762 -14.504   1.606  1.00  0.00     0.036 A 
HETATM   10  C   UNL     1      40.697 -14.398   0.574  1.00  0.00     0.053 A 
HETATM   11  C   UNL     1      40.277 -14.080  -0.719  1.00  0.00     0.036 A 
HETATM   12 CL   UNL     1      41.434 -13.940  -1.985  1.00  0.00    -0.084 Cl
HETATM   13  C   UNL     1      38.928 -13.866  -0.997  1.00  0.00     0.024 A 
HETATM   14  C   UNL     1      37.989 -13.978   0.026  1.00  0.00     0.004 A 
HETATM   15  C   UNL     1      38.405 -14.298   1.320  1.00  0.00     0.029 A 
ENDBRANCH   6   9
ENDBRANCH   3   5
ENDBRANCH   1   3
BRANCH   1  16
HETATM   16  N   UNL     1      43.048 -17.036   5.180  1.00  0.00    -0.290 N 
HETATM   17  C   UNL     1      43.026 -17.814   6.336  1.00  0.00     0.245 C 
HETATM   18  O   UNL     1      42.455 -17.463   7.368  1.00  0.00    -0.271 OA
HETATM   19  H   UNL     1      43.794 -17.215   4.510  1.00  0.00     0.183 HD
BRANCH  17  20
HETATM   20  C   UNL     1      43.840 -19.104   6.228  1.00  0.00     0.196 C 
BRANCH  20  21
HETATM   21  N   UNL     1      44.779 -18.984   5.100  1.00  0.00    -0.282 NA
HETATM   22  H   UNL     1      45.726 -19.204   5.441  1.00  0.00     0.128 HD
BRANCH  21  23
HETATM   23  C   UNL     1      44.515 -19.978   4.113  1.00  0.00     0.042 A 
HETATM   24  C   UNL     1      44.056 -19.588   2.834  1.00  0.00     0.089 A 
HETATM   25  C   UNL     1      43.835 -20.556   1.854  1.00  0.00     0.038 A 
HETATM   26  C   UNL     1      44.077 -21.903   2.135  1.00  0.00     0.003 A 
HETATM   27  C   UNL     1      44.539 -22.288   3.394  1.00  0.00     0.002 A 
HETATM   28  C   UNL     1      44.762 -21.328   4.381  1.00  0.00     0.026 A 
BRANCH  24  29
HETATM   29  O   UNL     1      43.868 -18.235   2.679  1.00  0.00    -0.354 OA
HETATM   30  C   UNL     1      43.948 -17.721   1.356  1.00  0.00     0.210 C 
ENDBRANCH  24  29
ENDBRANCH  21  23
ENDBRANCH  20  21
ENDBRANCH  17  20
ENDBRANCH   1  16
TORSDOF 8
ENDMDL
