MODEL 1
REMARK VINA RESULT:      -9.7      0.000      0.000
REMARK  5 active torsions:
REMARK  status: ('A' for Active; 'I' for Inactive)
REMARK    1  A    between atoms: C_3  and  O_4 
REMARK    2  A    between atoms: C_8  and  C_9 
REMARK       I    between atoms: N_10  and  C_11 
REMARK    3  A    between atoms: C_11  and  C_12 
REMARK    4  A    between atoms: C_12  and  C_13 
REMARK    5  A    between atoms: C_13  and  C_14 
ROOT
HETATM    1  C   UNL     1      41.325 -16.624   4.174  1.00  0.00     0.171 C 
HETATM    2  N   UNL     1      41.790 -15.770   5.296  1.00  0.00    -0.338 N 
HETATM    3  C   UNL     1      43.046 -15.156   5.199  1.00  0.00     0.221 C 
HETATM    4  O   UNL     1      43.897 -15.493   4.375  1.00  0.00    -0.273 OA
HETATM    5  C   UNL     1      40.665 -15.075   5.958  1.00  0.00     0.131 C 
HETATM    6  C   UNL     1      40.042 -14.004   5.024  1.00  0.00     0.061 C 
HETATM    7  C   UNL     1      40.017 -14.492   3.605  1.00  0.00    -0.019 A 
HETATM    8  C   UNL     1      40.626 -15.680   3.224  1.00  0.00     0.044 A 
HETATM    9  N   UNL     1      40.404 -15.852   1.886  1.00  0.00    -0.356 N 
HETATM   10  H   UNL     1      40.701 -16.648   1.337  1.00  0.00     0.166 HD
HETATM   11  C   UNL     1      39.759 -14.745   1.372  1.00  0.00     0.043 A 
HETATM   12  C   UNL     1      39.490 -13.882   2.438  1.00  0.00    -0.001 A 
HETATM   13  C   UNL     1      39.397 -14.446   0.054  1.00  0.00     0.030 A 
HETATM   14  C   UNL     1      38.738 -13.233  -0.180  1.00  0.00     0.002 A 
HETATM   15  C   UNL     1      38.449 -12.359   0.865  1.00  0.00     0.001 A 
HETATM   16  C   UNL     1      38.818 -12.671   2.179  1.00  0.00     0.014 A 
ENDROOT
BRANCH   1  17
HETATM   17  C   UNL     1      42.280 -17.679   3.640  1.00  0.00    -0.029 A 
HETATM   18  C   UNL     1      42.562 -17.862   2.279  1.00  0.00     0.012 A 
HETATM   19  C   UNL     1      43.439 -18.867   1.850  1.00  0.00     0.038 A 
HETATM   20  C   UNL     1      44.066 -19.701   2.776  1.00  0.00     0.074 A 
HETATM   21  C   UNL     1      43.846 -19.505   4.147  1.00  0.00    -0.028 A 
HETATM   22  C   UNL     1      44.579 -20.325   5.170  1.00  0.00     0.051 C 
HETATM   23  C   UNL     1      42.957 -18.501   4.562  1.00  0.00     0.019 A 
BRANCH  20  24
HETATM   24  O   UNL     1      44.949 -20.695   2.439  1.00  0.00    -0.355 OA
HETATM   25  C   UNL     1      44.382 -21.833   1.801  1.00  0.00     0.210 C 
ENDBRANCH  20  24
ENDBRANCH   1  17
BRANCH   3  26
HETATM   26  C   UNL     1      43.386 -14.067   6.214  1.00  0.00     0.108 C 
BRANCH  26  27
HETATM   27  C   UNL     1      44.698 -14.353   6.956  1.00  0.00     0.051 C 
BRANCH  27  28
HETATM   28  C   UNL     1      45.191 -13.186   7.754  1.00  0.00    -0.021 A 
HETATM   29  C   UNL     1      44.583 -12.540   8.813  1.00  0.00     0.120 A 
HETATM   30  N   UNL     1      45.431 -11.548   9.205  1.00  0.00    -0.285 N 
HETATM   31  C   UNL     1      45.229 -10.614  10.285  1.00  0.00     0.179 C 
HETATM   32  N   UNL     1      46.553 -11.485   8.467  1.00  0.00    -0.185 NA
HETATM   33  C   UNL     1      46.400 -12.470   7.578  1.00  0.00     0.147 A 
ENDBRANCH  27  28
ENDBRANCH  26  27
ENDBRANCH   3  26
TORSDOF 5
ENDMDL
MODEL 2
REMARK VINA RESULT:      -9.6      3.049      6.556
REMARK  5 active torsions:
REMARK  status: ('A' for Active; 'I' for Inactive)
REMARK    1  A    between atoms: C_3  and  O_4 
REMARK    2  A    between atoms: C_8  and  C_9 
REMARK       I    between atoms: N_10  and  C_11 
REMARK    3  A    between atoms: C_11  and  C_12 
REMARK    4  A    between atoms: C_12  and  C_13 
REMARK    5  A    between atoms: C_13  and  C_14 
ROOT
HETATM    1  C   UNL     1      43.362 -16.571   3.069  1.00  0.00     0.171 C 
HETATM    2  N   UNL     1      42.814 -16.110   4.370  1.00  0.00    -0.338 N 
HETATM    3  C   UNL     1      41.445 -16.275   4.620  1.00  0.00     0.221 C 
HETATM    4  O   UNL     1      40.625 -16.525   3.736  1.00  0.00    -0.273 OA
HETATM    5  C   UNL     1      43.800 -16.259   5.462  1.00  0.00     0.131 C 
HETATM    6  C   UNL     1      44.063 -17.754   5.778  1.00  0.00     0.061 C 
HETATM    7  C   UNL     1      44.071 -18.567   4.517  1.00  0.00    -0.019 A 
HETATM    8  C   UNL     1      43.727 -18.021   3.287  1.00  0.00     0.044 A 
HETATM    9  N   UNL     1      43.859 -19.001   2.344  1.00  0.00    -0.356 N 
HETATM   10  H   UNL     1      43.709 -18.887   1.350  1.00  0.00     0.166 HD
HETATM   11  C   UNL     1      44.173 -20.199   2.954  1.00  0.00     0.043 A 
HETATM   12  C   UNL     1      44.329 -19.948   4.320  1.00  0.00    -0.001 A 
HETATM   13  C   UNL     1      44.331 -21.476   2.403  1.00  0.00     0.030 A 
HETATM   14  C   UNL     1      44.661 -22.522   3.272  1.00  0.00     0.002 A 
HETATM   15  C   UNL     1      44.831 -22.298   4.636  1.00  0.00     0.001 A 
HETATM   16  C   UNL     1      44.670 -21.016   5.173  1.00  0.00     0.014 A 
ENDROOT
BRANCH   1  17
HETATM   17  C   UNL     1      42.638 -16.147   1.801  1.00  0.00    -0.029 A 
HETATM   18  C   UNL     1      42.090 -17.045   0.875  1.00  0.00     0.012 A 
HETATM   19  C   UNL     1      41.451 -16.590  -0.285  1.00  0.00     0.038 A 
HETATM   20  C   UNL     1      41.330 -15.222  -0.535  1.00  0.00     0.074 A 
HETATM   21  C   UNL     1      41.818 -14.300   0.401  1.00  0.00    -0.028 A 
HETATM   22  C   UNL     1      41.619 -12.823   0.205  1.00  0.00     0.051 C 
HETATM   23  C   UNL     1      42.466 -14.771   1.555  1.00  0.00     0.019 A 
BRANCH  20  24
HETATM   24  O   UNL     1      40.704 -14.696  -1.636  1.00  0.00    -0.355 OA
HETATM   25  C   UNL     1      40.916 -15.393  -2.858  1.00  0.00     0.210 C 
ENDBRANCH  20  24
ENDBRANCH   1  17
BRANCH   3  26
HETATM   26  C   UNL     1      40.953 -16.064   6.051  1.00  0.00     0.108 C 
BRANCH  26  27
HETATM   27  C   UNL     1      39.998 -14.870   6.166  1.00  0.00     0.051 C 
BRANCH  27  28
HETATM   28  C   UNL     1      40.511 -13.635   5.493  1.00  0.00    -0.021 A 
HETATM   29  C   UNL     1      39.976 -12.945   4.423  1.00  0.00     0.120 A 
HETATM   30  N   UNL     1      40.803 -11.888   4.186  1.00  0.00    -0.285 N 
HETATM   31  C   UNL     1      40.645 -10.877   3.171  1.00  0.00     0.179 C 
HETATM   32  N   UNL     1      41.858 -11.841   5.019  1.00  0.00    -0.185 NA
HETATM   33  C   UNL     1      41.687 -12.910   5.801  1.00  0.00     0.147 A 
ENDBRANCH  27  28
ENDBRANCH  26  27
ENDBRANCH   3  26
TORSDOF 5
ENDMDL
MODEL 3
REMARK VINA RESULT:      -9.5      1.976      3.072
REMARK  5 active torsions:
REMARK  status: ('A' for Active; 'I' for Inactive)
REMARK    1  A    between atoms: C_3  and  O_4 
REMARK    2  A    between atoms: C_8  and  C_9 
REMARK       I    between atoms: N_10  and  C_11 
REMARK    3  A    between atoms: C_11  and  C_12 
REMARK    4  A    between atoms: C_12  and  C_13 
REMARK    5  A    between atoms: C_13  and  C_14 
ROOT
HETATM    1  C   UNL     1      41.222 -16.217   2.158  1.00  0.00     0.171 C 
HETATM    2  N   UNL     1      41.366 -15.021   3.027  1.00  0.00    -0.338 N 
HETATM    3  C   UNL     1      42.631 -14.431   3.156  1.00  0.00     0.221 C 
HETATM    4  O   UNL     1      43.673 -14.993   2.818  1.00  0.00    -0.273 OA
HETATM    5  C   UNL     1      40.146 -14.186   3.015  1.00  0.00     0.131 C 
HETATM    6  C   UNL     1      39.945 -13.511   1.633  1.00  0.00     0.061 C 
HETATM    7  C   UNL     1      40.341 -14.444   0.527  1.00  0.00    -0.019 A 
HETATM    8  C   UNL     1      40.944 -15.668   0.778  1.00  0.00     0.044 A 
HETATM    9  N   UNL     1      41.154 -16.285  -0.425  1.00  0.00    -0.356 N 
HETATM   10  H   UNL     1      41.548 -17.207  -0.554  1.00  0.00     0.166 HD
HETATM   11  C   UNL     1      40.799 -15.435  -1.454  1.00  0.00     0.043 A 
HETATM   12  C   UNL     1      40.269 -14.276  -0.880  1.00  0.00    -0.001 A 
HETATM   13  C   UNL     1      40.907 -15.606  -2.839  1.00  0.00     0.030 A 
HETATM   14  C   UNL     1      40.456 -14.564  -3.658  1.00  0.00     0.002 A 
HETATM   15  C   UNL     1      39.915 -13.403  -3.113  1.00  0.00     0.001 A 
HETATM   16  C   UNL     1      39.814 -13.246  -1.726  1.00  0.00     0.014 A 
ENDROOT
BRANCH   1  17
HETATM   17  C   UNL     1      42.213 -17.355   2.344  1.00  0.00    -0.029 A 
HETATM   18  C   UNL     1      42.976 -17.905   1.305  1.00  0.00     0.012 A 
HETATM   19  C   UNL     1      43.859 -18.968   1.540  1.00  0.00     0.038 A 
HETATM   20  C   UNL     1      44.009 -19.493   2.824  1.00  0.00     0.074 A 
HETATM   21  C   UNL     1      43.300 -18.924   3.892  1.00  0.00    -0.028 A 
HETATM   22  C   UNL     1      43.511 -19.406   5.300  1.00  0.00     0.051 C 
HETATM   23  C   UNL     1      42.411 -17.867   3.641  1.00  0.00     0.019 A 
BRANCH  20  24
HETATM   24  O   UNL     1      44.863 -20.518   3.139  1.00  0.00    -0.355 OA
HETATM   25  C   UNL     1      44.522 -21.791   2.603  1.00  0.00     0.210 C 
ENDBRANCH  20  24
ENDBRANCH   1  17
BRANCH   3  26
HETATM   26  C   UNL     1      42.709 -13.054   3.813  1.00  0.00     0.108 C 
BRANCH  26  27
HETATM   27  C   UNL     1      42.253 -13.082   5.277  1.00  0.00     0.051 C 
BRANCH  27  28
HETATM   28  C   UNL     1      42.974 -14.104   6.101  1.00  0.00    -0.021 A 
HETATM   29  C   UNL     1      42.516 -15.319   6.571  1.00  0.00     0.120 A 
HETATM   30  N   UNL     1      43.546 -15.885   7.262  1.00  0.00    -0.285 N 
HETATM   31  C   UNL     1      43.542 -17.165   7.924  1.00  0.00     0.179 C 
HETATM   32  N   UNL     1      44.650 -15.118   7.293  1.00  0.00    -0.185 NA
HETATM   33  C   UNL     1      44.297 -14.031   6.601  1.00  0.00     0.147 A 
ENDBRANCH  27  28
ENDBRANCH  26  27
ENDBRANCH   3  26
TORSDOF 5
ENDMDL
MODEL 4
REMARK VINA RESULT:      -9.3      2.914      8.503
REMARK  5 active torsions:
REMARK  status: ('A' for Active; 'I' for Inactive)
REMARK    1  A    between atoms: C_3  and  O_4 
REMARK    2  A    between atoms: C_8  and  C_9 
REMARK       I    between atoms: N_10  and  C_11 
REMARK    3  A    between atoms: C_11  and  C_12 
REMARK    4  A    between atoms: C_12  and  C_13 
REMARK    5  A    between atoms: C_13  and  C_14 
ROOT
HETATM    1  C   UNL     1      41.296 -15.729   3.639  1.00  0.00     0.171 C 
HETATM    2  N   UNL     1      41.042 -15.323   2.233  1.00  0.00    -0.338 N 
HETATM    3  C   UNL     1      41.969 -14.486   1.596  1.00  0.00     0.221 C 
HETATM    4  O   UNL     1      42.830 -13.851   2.205  1.00  0.00    -0.273 OA
HETATM    5  C   UNL     1      40.344 -16.383   1.475  1.00  0.00     0.131 C 
HETATM    6  C   UNL     1      41.265 -17.612   1.255  1.00  0.00     0.061 C 
HETATM    7  C   UNL     1      42.113 -17.860   2.467  1.00  0.00    -0.019 A 
HETATM    8  C   UNL     1      42.136 -16.980   3.541  1.00  0.00     0.044 A 
HETATM    9  N   UNL     1      42.978 -17.498   4.486  1.00  0.00    -0.356 N 
HETATM   10  H   UNL     1      43.168 -17.092   5.393  1.00  0.00     0.166 HD
HETATM   11  C   UNL     1      43.586 -18.638   3.997  1.00  0.00     0.043 A 
HETATM   12  C   UNL     1      43.045 -18.895   2.735  1.00  0.00    -0.001 A 
HETATM   13  C   UNL     1      44.565 -19.454   4.576  1.00  0.00     0.030 A 
HETATM   14  C   UNL     1      45.000 -20.565   3.843  1.00  0.00     0.002 A 
HETATM   15  C   UNL     1      44.470 -20.849   2.587  1.00  0.00     0.001 A 
HETATM   16  C   UNL     1      43.492 -20.025   2.021  1.00  0.00     0.014 A 
ENDROOT
BRANCH   1  17
HETATM   17  C   UNL     1      41.655 -14.642   4.640  1.00  0.00    -0.029 A 
HETATM   18  C   UNL     1      40.807 -13.579   4.978  1.00  0.00     0.012 A 
HETATM   19  C   UNL     1      41.205 -12.599   5.896  1.00  0.00     0.038 A 
HETATM   20  C   UNL     1      42.457 -12.669   6.508  1.00  0.00     0.074 A 
HETATM   21  C   UNL     1      43.304 -13.752   6.231  1.00  0.00    -0.028 A 
HETATM   22  C   UNL     1      44.617 -13.906   6.945  1.00  0.00     0.051 C 
HETATM   23  C   UNL     1      42.895 -14.722   5.302  1.00  0.00     0.019 A 
BRANCH  20  24
HETATM   24  O   UNL     1      42.915 -11.761   7.428  1.00  0.00    -0.355 OA
HETATM   25  C   UNL     1      41.990 -10.747   7.805  1.00  0.00     0.210 C 
ENDBRANCH  20  24
ENDBRANCH   1  17
BRANCH   3  26
HETATM   26  C   UNL     1      41.847 -14.311   0.084  1.00  0.00     0.108 C 
BRANCH  26  27
HETATM   27  C   UNL     1      40.687 -13.386  -0.302  1.00  0.00     0.051 C 
BRANCH  27  28
HETATM   28  C   UNL     1      39.797 -13.963  -1.359  1.00  0.00    -0.021 A 
HETATM   29  C   UNL     1      40.126 -14.803  -2.406  1.00  0.00     0.120 A 
HETATM   30  N   UNL     1      38.970 -15.053  -3.084  1.00  0.00    -0.285 N 
HETATM   31  C   UNL     1      38.815 -15.890  -4.247  1.00  0.00     0.179 C 
HETATM   32  N   UNL     1      37.902 -14.424  -2.565  1.00  0.00    -0.185 NA
HETATM   33  C   UNL     1      38.407 -13.750  -1.528  1.00  0.00     0.147 A 
ENDBRANCH  27  28
ENDBRANCH  26  27
ENDBRANCH   3  26
TORSDOF 5
ENDMDL
MODEL 5
REMARK VINA RESULT:      -9.2      2.639      3.494
REMARK  5 active torsions:
REMARK  status: ('A' for Active; 'I' for Inactive)
REMARK    1  A    between atoms: C_3  and  O_4 
REMARK    2  A    between atoms: C_8  and  C_9 
REMARK       I    between atoms: N_10  and  C_11 
REMARK    3  A    between atoms: C_11  and  C_12 
REMARK    4  A    between atoms: C_12  and  C_13 
REMARK    5  A    between atoms: C_13  and  C_14 
ROOT
HETATM    1  C   UNL     1      41.015 -16.113   2.207  1.00  0.00     0.171 C 
HETATM    2  N   UNL     1      41.059 -14.908   3.074  1.00  0.00    -0.338 N 
HETATM    3  C   UNL     1      42.289 -14.266   3.272  1.00  0.00     0.221 C 
HETATM    4  O   UNL     1      43.372 -14.787   3.001  1.00  0.00    -0.273 OA
HETATM    5  C   UNL     1      39.810 -14.123   2.983  1.00  0.00     0.131 C 
HETATM    6  C   UNL     1      39.664 -13.464   1.586  1.00  0.00     0.061 C 
HETATM    7  C   UNL     1      40.161 -14.387   0.513  1.00  0.00    -0.019 A 
HETATM    8  C   UNL     1      40.798 -15.585   0.809  1.00  0.00     0.044 A 
HETATM    9  N   UNL     1      41.103 -16.199  -0.374  1.00  0.00    -0.356 N 
HETATM   10  H   UNL     1      41.541 -17.105  -0.472  1.00  0.00     0.166 HD
HETATM   11  C   UNL     1      40.776 -15.371  -1.429  1.00  0.00     0.043 A 
HETATM   12  C   UNL     1      40.167 -14.231  -0.897  1.00  0.00    -0.001 A 
HETATM   13  C   UNL     1      40.972 -15.545  -2.804  1.00  0.00     0.030 A 
HETATM   14  C   UNL     1      40.530 -14.528  -3.657  1.00  0.00     0.002 A 
HETATM   15  C   UNL     1      39.911 -13.386  -3.154  1.00  0.00     0.001 A 
HETATM   16  C   UNL     1      39.722 -13.225  -1.777  1.00  0.00     0.014 A 
ENDROOT
BRANCH   1  17
HETATM   17  C   UNL     1      42.038 -17.209   2.461  1.00  0.00    -0.029 A 
HETATM   18  C   UNL     1      42.855 -17.763   1.466  1.00  0.00     0.012 A 
HETATM   19  C   UNL     1      43.765 -18.785   1.762  1.00  0.00     0.038 A 
HETATM   20  C   UNL     1      43.890 -19.266   3.066  1.00  0.00     0.074 A 
HETATM   21  C   UNL     1      43.126 -18.692   4.092  1.00  0.00    -0.028 A 
HETATM   22  C   UNL     1      43.306 -19.123   5.521  1.00  0.00     0.051 C 
HETATM   23  C   UNL     1      42.210 -17.675   3.779  1.00  0.00     0.019 A 
BRANCH  20  24
HETATM   24  O   UNL     1      44.768 -20.250   3.441  1.00  0.00    -0.355 OA
HETATM   25  C   UNL     1      44.568 -21.520   2.830  1.00  0.00     0.210 C 
ENDBRANCH  20  24
ENDBRANCH   1  17
BRANCH   3  26
HETATM   26  C   UNL     1      42.273 -12.883   3.921  1.00  0.00     0.108 C 
BRANCH  26  27
HETATM   27  C   UNL     1      42.336 -12.959   5.452  1.00  0.00     0.051 C 
BRANCH  27  28
HETATM   28  C   UNL     1      41.219 -12.225   6.126  1.00  0.00    -0.021 A 
HETATM   29  C   UNL     1      41.227 -10.964   6.692  1.00  0.00     0.120 A 
HETATM   30  N   UNL     1      39.970 -10.742   7.169  1.00  0.00    -0.285 N 
HETATM   31  C   UNL     1      39.496  -9.554   7.833  1.00  0.00     0.179 C 
HETATM   32  N   UNL     1      39.135 -11.777   6.970  1.00  0.00    -0.185 NA
HETATM   33  C   UNL     1      39.898 -12.681   6.351  1.00  0.00     0.147 A 
ENDBRANCH  27  28
ENDBRANCH  26  27
ENDBRANCH   3  26
TORSDOF 5
ENDMDL
MODEL 6
REMARK VINA RESULT:      -9.0      2.962      7.789
REMARK  5 active torsions:
REMARK  status: ('A' for Active; 'I' for Inactive)
REMARK    1  A    between atoms: C_3  and  O_4 
REMARK    2  A    between atoms: C_8  and  C_9 
REMARK       I    between atoms: N_10  and  C_11 
REMARK    3  A    between atoms: C_11  and  C_12 
REMARK    4  A    between atoms: C_12  and  C_13 
REMARK    5  A    between atoms: C_13  and  C_14 
ROOT
HETATM    1  C   UNL     1      41.965 -15.740   4.369  1.00  0.00     0.171 C 
HETATM    2  N   UNL     1      41.538 -15.080   3.109  1.00  0.00    -0.338 N 
HETATM    3  C   UNL     1      42.467 -14.292   2.414  1.00  0.00     0.221 C 
HETATM    4  O   UNL     1      43.519 -13.893   2.915  1.00  0.00    -0.273 OA
HETATM    5  C   UNL     1      40.546 -15.892   2.374  1.00  0.00     0.131 C 
HETATM    6  C   UNL     1      41.188 -17.188   1.814  1.00  0.00     0.061 C 
HETATM    7  C   UNL     1      42.183 -17.747   2.787  1.00  0.00    -0.019 A 
HETATM    8  C   UNL     1      42.547 -17.066   3.941  1.00  0.00     0.044 A 
HETATM    9  N   UNL     1      43.442 -17.844   4.621  1.00  0.00    -0.356 N 
HETATM   10  H   UNL     1      43.857 -17.622   5.516  1.00  0.00     0.166 HD
HETATM   11  C   UNL     1      43.748 -18.965   3.875  1.00  0.00     0.043 A 
HETATM   12  C   UNL     1      42.956 -18.935   2.724  1.00  0.00    -0.001 A 
HETATM   13  C   UNL     1      44.660 -19.996   4.132  1.00  0.00     0.030 A 
HETATM   14  C   UNL     1      44.761 -21.024   3.188  1.00  0.00     0.002 A 
HETATM   15  C   UNL     1      43.976 -21.023   2.037  1.00  0.00     0.001 A 
HETATM   16  C   UNL     1      43.069 -19.986   1.793  1.00  0.00     0.014 A 
ENDROOT
BRANCH   1  17
HETATM   17  C   UNL     1      42.676 -14.892   5.411  1.00  0.00    -0.029 A 
HETATM   18  C   UNL     1      43.895 -15.244   6.007  1.00  0.00     0.012 A 
HETATM   19  C   UNL     1      44.490 -14.427   6.977  1.00  0.00     0.038 A 
HETATM   20  C   UNL     1      43.886 -13.229   7.360  1.00  0.00     0.074 A 
HETATM   21  C   UNL     1      42.696 -12.823   6.739  1.00  0.00    -0.028 A 
HETATM   22  C   UNL     1      42.072 -11.494   7.062  1.00  0.00     0.051 C 
HETATM   23  C   UNL     1      42.105 -13.658   5.777  1.00  0.00     0.019 A 
BRANCH  20  24
HETATM   24  O   UNL     1      44.412 -12.365   8.286  1.00  0.00    -0.355 OA
HETATM   25  C   UNL     1      45.814 -12.472   8.502  1.00  0.00     0.210 C 
ENDBRANCH  20  24
ENDBRANCH   1  17
BRANCH   3  26
HETATM   26  C   UNL     1      42.110 -13.859   0.994  1.00  0.00     0.108 C 
BRANCH  26  27
HETATM   27  C   UNL     1      41.989 -12.336   0.864  1.00  0.00     0.051 C 
BRANCH  27  28
HETATM   28  C   UNL     1      42.287 -11.835  -0.515  1.00  0.00    -0.021 A 
HETATM   29  C   UNL     1      41.956 -12.398  -1.733  1.00  0.00     0.120 A 
HETATM   30  N   UNL     1      42.441 -11.563  -2.695  1.00  0.00    -0.285 N 
HETATM   31  C   UNL     1      42.327 -11.730  -4.122  1.00  0.00     0.179 C 
HETATM   32  N   UNL     1      43.084 -10.493  -2.195  1.00  0.00    -0.185 NA
HETATM   33  C   UNL     1      43.003 -10.667  -0.873  1.00  0.00     0.147 A 
ENDBRANCH  27  28
ENDBRANCH  26  27
ENDBRANCH   3  26
TORSDOF 5
ENDMDL
MODEL 7
REMARK VINA RESULT:      -8.9      3.003      6.282
REMARK  5 active torsions:
REMARK  status: ('A' for Active; 'I' for Inactive)
REMARK    1  A    between atoms: C_3  and  O_4 
REMARK    2  A    between atoms: C_8  and  C_9 
REMARK       I    between atoms: N_10  and  C_11 
REMARK    3  A    between atoms: C_11  and  C_12 
REMARK    4  A    between atoms: C_12  and  C_13 
REMARK    5  A    between atoms: C_13  and  C_14 
ROOT
HETATM    1  C   UNL     1      42.752 -14.871   2.815  1.00  0.00     0.171 C 
HETATM    2  N   UNL     1      42.056 -14.336   4.013  1.00  0.00    -0.338 N 
HETATM    3  C   UNL     1      40.692 -14.612   4.179  1.00  0.00     0.221 C 
HETATM    4  O   UNL     1      39.976 -15.034   3.270  1.00  0.00    -0.273 OA
HETATM    5  C   UNL     1      42.956 -14.270   5.185  1.00  0.00     0.131 C 
HETATM    6  C   UNL     1      43.329 -15.691   5.683  1.00  0.00     0.061 C 
HETATM    7  C   UNL     1      43.519 -16.624   4.524  1.00  0.00    -0.019 A 
HETATM    8  C   UNL     1      43.230 -16.246   3.220  1.00  0.00     0.044 A 
HETATM    9  N   UNL     1      43.531 -17.300   2.403  1.00  0.00    -0.356 N 
HETATM   10  H   UNL     1      43.455 -17.306   1.395  1.00  0.00     0.166 HD
HETATM   11  C   UNL     1      43.903 -18.390   3.164  1.00  0.00     0.043 A 
HETATM   12  C   UNL     1      43.919 -17.985   4.502  1.00  0.00    -0.001 A 
HETATM   13  C   UNL     1      44.224 -19.695   2.771  1.00  0.00     0.030 A 
HETATM   14  C   UNL     1      44.575 -20.607   3.773  1.00  0.00     0.002 A 
HETATM   15  C   UNL     1      44.608 -20.226   5.113  1.00  0.00     0.001 A 
HETATM   16  C   UNL     1      44.284 -18.919   5.491  1.00  0.00     0.014 A 
ENDROOT
BRANCH   1  17
HETATM   17  C   UNL     1      42.100 -14.656   1.459  1.00  0.00    -0.029 A 
HETATM   18  C   UNL     1      41.671 -15.696   0.623  1.00  0.00     0.012 A 
HETATM   19  C   UNL     1      41.094 -15.431  -0.625  1.00  0.00     0.038 A 
HETATM   20  C   UNL     1      40.919 -14.116  -1.059  1.00  0.00     0.074 A 
HETATM   21  C   UNL     1      41.287 -13.055  -0.220  1.00  0.00    -0.028 A 
HETATM   22  C   UNL     1      41.024 -11.630  -0.619  1.00  0.00     0.051 C 
HETATM   23  C   UNL     1      41.874 -13.336   1.025  1.00  0.00     0.019 A 
BRANCH  20  24
HETATM   24  O   UNL     1      40.347 -13.772  -2.257  1.00  0.00    -0.355 OA
HETATM   25  C   UNL     1      41.087 -14.131  -3.418  1.00  0.00     0.210 C 
ENDBRANCH  20  24
ENDBRANCH   1  17
BRANCH   3  26
HETATM   26  C   UNL     1      40.064 -14.305   5.537  1.00  0.00     0.108 C 
BRANCH  26  27
HETATM   27  C   UNL     1      39.413 -12.917   5.576  1.00  0.00     0.051 C 
BRANCH  27  28
HETATM   28  C   UNL     1      39.919 -12.058   6.693  1.00  0.00    -0.021 A 
HETATM   29  C   UNL     1      39.342 -11.807   7.923  1.00  0.00     0.120 A 
HETATM   30  N   UNL     1      40.189 -10.971   8.588  1.00  0.00    -0.285 N 
HETATM   31  C   UNL     1      40.014 -10.445   9.919  1.00  0.00     0.179 C 
HETATM   32  N   UNL     1      41.280 -10.641   7.875  1.00  0.00    -0.185 NA
HETATM   33  C   UNL     1      41.107 -11.288   6.720  1.00  0.00     0.147 A 
ENDBRANCH  27  28
ENDBRANCH  26  27
ENDBRANCH   3  26
TORSDOF 5
ENDMDL
MODEL 8
REMARK VINA RESULT:      -8.8      2.823      7.812
REMARK  5 active torsions:
REMARK  status: ('A' for Active; 'I' for Inactive)
REMARK    1  A    between atoms: C_3  and  O_4 
REMARK    2  A    between atoms: C_8  and  C_9 
REMARK       I    between atoms: N_10  and  C_11 
REMARK    3  A    between atoms: C_11  and  C_12 
REMARK    4  A    between atoms: C_12  and  C_13 
REMARK    5  A    between atoms: C_13  and  C_14 
ROOT
HETATM    1  C   UNL     1      41.251 -15.784   3.695  1.00  0.00     0.171 C 
HETATM    2  N   UNL     1      40.960 -15.392   2.293  1.00  0.00    -0.338 N 
HETATM    3  C   UNL     1      41.861 -14.546   1.630  1.00  0.00     0.221 C 
HETATM    4  O   UNL     1      42.726 -13.894   2.216  1.00  0.00    -0.273 OA
HETATM    5  C   UNL     1      40.262 -16.468   1.557  1.00  0.00     0.131 C 
HETATM    6  C   UNL     1      41.196 -17.684   1.325  1.00  0.00     0.061 C 
HETATM    7  C   UNL     1      42.074 -17.911   2.520  1.00  0.00    -0.019 A 
HETATM    8  C   UNL     1      42.107 -17.024   3.588  1.00  0.00     0.044 A 
HETATM    9  N   UNL     1      42.977 -17.522   4.517  1.00  0.00    -0.356 N 
HETATM   10  H   UNL     1      43.181 -17.107   5.417  1.00  0.00     0.166 HD
HETATM   11  C   UNL     1      43.591 -18.656   4.024  1.00  0.00     0.043 A 
HETATM   12  C   UNL     1      43.027 -18.931   2.775  1.00  0.00    -0.001 A 
HETATM   13  C   UNL     1      44.595 -19.454   4.586  1.00  0.00     0.030 A 
HETATM   14  C   UNL     1      45.030 -20.563   3.852  1.00  0.00     0.002 A 
HETATM   15  C   UNL     1      44.478 -20.864   2.609  1.00  0.00     0.001 A 
HETATM   16  C   UNL     1      43.475 -20.058   2.059  1.00  0.00     0.014 A 
ENDROOT
BRANCH   1  17
HETATM   17  C   UNL     1      41.615 -14.685   4.681  1.00  0.00    -0.029 A 
HETATM   18  C   UNL     1      40.755 -13.637   5.036  1.00  0.00     0.012 A 
HETATM   19  C   UNL     1      41.159 -12.644   5.938  1.00  0.00     0.038 A 
HETATM   20  C   UNL     1      42.427 -12.687   6.517  1.00  0.00     0.074 A 
HETATM   21  C   UNL     1      43.287 -13.755   6.224  1.00  0.00    -0.028 A 
HETATM   22  C   UNL     1      44.622 -13.880   6.904  1.00  0.00     0.051 C 
HETATM   23  C   UNL     1      42.873 -14.738   5.310  1.00  0.00     0.019 A 
BRANCH  20  24
HETATM   24  O   UNL     1      42.891 -11.765   7.420  1.00  0.00    -0.355 OA
HETATM   25  C   UNL     1      41.961 -10.762   7.809  1.00  0.00     0.210 C 
ENDBRANCH  20  24
ENDBRANCH   1  17
BRANCH   3  26
HETATM   26  C   UNL     1      41.704 -14.384   0.120  1.00  0.00     0.108 C 
BRANCH  26  27
HETATM   27  C   UNL     1      41.216 -12.982  -0.266  1.00  0.00     0.051 C 
BRANCH  27  28
HETATM   28  C   UNL     1      39.768 -12.755   0.039  1.00  0.00    -0.021 A 
HETATM   29  C   UNL     1      39.172 -11.679   0.668  1.00  0.00     0.120 A 
HETATM   30  N   UNL     1      37.834 -11.937   0.702  1.00  0.00    -0.285 N 
HETATM   31  C   UNL     1      36.805 -11.092   1.253  1.00  0.00     0.179 C 
HETATM   32  N   UNL     1      37.506 -13.119   0.152  1.00  0.00    -0.185 NA
HETATM   33  C   UNL     1      38.682 -13.621  -0.236  1.00  0.00     0.147 A 
ENDBRANCH  27  28
ENDBRANCH  26  27
ENDBRANCH   3  26
TORSDOF 5
ENDMDL
MODEL 9
REMARK VINA RESULT:      -8.7      1.369      2.075
REMARK  5 active torsions:
REMARK  status: ('A' for Active; 'I' for Inactive)
REMARK    1  A    between atoms: C_3  and  O_4 
REMARK    2  A    between atoms: C_8  and  C_9 
REMARK       I    between atoms: N_10  and  C_11 
REMARK    3  A    between atoms: C_11  and  C_12 
REMARK    4  A    between atoms: C_12  and  C_13 
REMARK    5  A    between atoms: C_13  and  C_14 
ROOT
HETATM    1  C   UNL     1      41.502 -16.809   4.426  1.00  0.00     0.171 C 
HETATM    2  N   UNL     1      41.626 -15.634   5.326  1.00  0.00    -0.338 N 
HETATM    3  C   UNL     1      42.883 -15.033   5.479  1.00  0.00     0.221 C 
HETATM    4  O   UNL     1      43.934 -15.575   5.135  1.00  0.00    -0.273 OA
HETATM    5  C   UNL     1      40.397 -14.812   5.325  1.00  0.00     0.131 C 
HETATM    6  C   UNL     1      40.198 -14.105   3.959  1.00  0.00     0.061 C 
HETATM    7  C   UNL     1      40.613 -15.005   2.833  1.00  0.00    -0.019 A 
HETATM    8  C   UNL     1      41.228 -16.229   3.058  1.00  0.00     0.044 A 
HETATM    9  N   UNL     1      41.454 -16.813   1.843  1.00  0.00    -0.356 N 
HETATM   10  H   UNL     1      41.860 -17.727   1.693  1.00  0.00     0.166 HD
HETATM   11  C   UNL     1      41.097 -15.942   0.832  1.00  0.00     0.043 A 
HETATM   12  C   UNL     1      40.550 -14.804   1.430  1.00  0.00    -0.001 A 
HETATM   13  C   UNL     1      41.217 -16.077  -0.556  1.00  0.00     0.030 A 
HETATM   14  C   UNL     1      40.761 -15.021  -1.353  1.00  0.00     0.002 A 
HETATM   15  C   UNL     1      40.203 -13.879  -0.783  1.00  0.00     0.001 A 
HETATM   16  C   UNL     1      40.089 -13.758   0.606  1.00  0.00     0.014 A 
ENDROOT
BRANCH   1  17
HETATM   17  C   UNL     1      42.504 -17.940   4.592  1.00  0.00    -0.029 A 
HETATM   18  C   UNL     1      42.864 -18.492   5.828  1.00  0.00     0.012 A 
HETATM   19  C   UNL     1      43.809 -19.522   5.914  1.00  0.00     0.038 A 
HETATM   20  C   UNL     1      44.403 -20.036   4.761  1.00  0.00     0.074 A 
HETATM   21  C   UNL     1      44.019 -19.543   3.506  1.00  0.00    -0.028 A 
HETATM   22  C   UNL     1      44.571 -20.140   2.242  1.00  0.00     0.051 C 
HETATM   23  C   UNL     1      43.079 -18.502   3.435  1.00  0.00     0.019 A 
BRANCH  20  24
HETATM   24  O   UNL     1      45.321 -21.054   4.758  1.00  0.00    -0.355 OA
HETATM   25  C   UNL     1      44.861 -22.300   5.268  1.00  0.00     0.210 C 
ENDBRANCH  20  24
ENDBRANCH   1  17
BRANCH   3  26
HETATM   26  C   UNL     1      42.941 -13.672   6.171  1.00  0.00     0.108 C 
BRANCH  26  27
HETATM   27  C   UNL     1      44.143 -13.551   7.116  1.00  0.00     0.051 C 
BRANCH  27  28
HETATM   28  C   UNL     1      43.977 -12.480   8.148  1.00  0.00    -0.021 A 
HETATM   29  C   UNL     1      44.643 -12.322   9.348  1.00  0.00     0.120 A 
HETATM   30  N   UNL     1      44.144 -11.192   9.926  1.00  0.00    -0.285 N 
HETATM   31  C   UNL     1      44.543 -10.618  11.187  1.00  0.00     0.179 C 
HETATM   32  N   UNL     1      43.183 -10.601   9.195  1.00  0.00    -0.185 NA
HETATM   33  C   UNL     1      43.072 -11.391   8.124  1.00  0.00     0.147 A 
ENDBRANCH  27  28
ENDBRANCH  26  27
ENDBRANCH   3  26
TORSDOF 5
ENDMDL
MODEL 10
REMARK VINA RESULT:      -8.4      2.763      7.047
REMARK  5 active torsions:
REMARK  status: ('A' for Active; 'I' for Inactive)
REMARK    1  A    between atoms: C_3  and  O_4 
REMARK    2  A    between atoms: C_8  and  C_9 
REMARK       I    between atoms: N_10  and  C_11 
REMARK    3  A    between atoms: C_11  and  C_12 
REMARK    4  A    between atoms: C_12  and  C_13 
REMARK    5  A    between atoms: C_13  and  C_14 
ROOT
HETATM    1  C   UNL     1      41.773 -15.749   4.228  1.00  0.00     0.171 C 
HETATM    2  N   UNL     1      41.324 -15.158   2.942  1.00  0.00    -0.338 N 
HETATM    3  C   UNL     1      42.217 -14.352   2.222  1.00  0.00     0.221 C 
HETATM    4  O   UNL     1      43.245 -13.883   2.713  1.00  0.00    -0.273 OA
HETATM    5  C   UNL     1      40.377 -16.045   2.233  1.00  0.00     0.131 C 
HETATM    6  C   UNL     1      41.086 -17.327   1.725  1.00  0.00     0.061 C 
HETATM    7  C   UNL     1      42.100 -17.801   2.723  1.00  0.00    -0.019 A 
HETATM    8  C   UNL     1      42.423 -17.060   3.852  1.00  0.00     0.044 A 
HETATM    9  N   UNL     1      43.351 -17.767   4.565  1.00  0.00    -0.356 N 
HETATM   10  H   UNL     1      43.748 -17.492   5.453  1.00  0.00     0.166 HD
HETATM   11  C   UNL     1      43.716 -18.899   3.863  1.00  0.00     0.043 A 
HETATM   12  C   UNL     1      42.931 -18.950   2.708  1.00  0.00    -0.001 A 
HETATM   13  C   UNL     1      44.676 -19.873   4.163  1.00  0.00     0.030 A 
HETATM   14  C   UNL     1      44.833 -20.929   3.258  1.00  0.00     0.002 A 
HETATM   15  C   UNL     1      44.057 -21.010   2.105  1.00  0.00     0.001 A 
HETATM   16  C   UNL     1      43.102 -20.029   1.818  1.00  0.00     0.014 A 
ENDROOT
BRANCH   1  17
HETATM   17  C   UNL     1      42.435 -14.829   5.241  1.00  0.00    -0.029 A 
HETATM   18  C   UNL     1      43.674 -15.089   5.841  1.00  0.00     0.012 A 
HETATM   19  C   UNL     1      44.222 -14.209   6.783  1.00  0.00     0.038 A 
HETATM   20  C   UNL     1      43.548 -13.038   7.133  1.00  0.00     0.074 A 
HETATM   21  C   UNL     1      42.334 -12.723   6.506  1.00  0.00    -0.028 A 
HETATM   22  C   UNL     1      41.633 -11.425   6.792  1.00  0.00     0.051 C 
HETATM   23  C   UNL     1      41.792 -13.620   5.571  1.00  0.00     0.019 A 
BRANCH  20  24
HETATM   24  O   UNL     1      44.024 -12.117   8.031  1.00  0.00    -0.355 OA
HETATM   25  C   UNL     1      45.230 -12.472   8.697  1.00  0.00     0.210 C 
ENDBRANCH  20  24
ENDBRANCH   1  17
BRANCH   3  26
HETATM   26  C   UNL     1      41.849 -13.990   0.785  1.00  0.00     0.108 C 
BRANCH  26  27
HETATM   27  C   UNL     1      40.477 -13.311   0.690  1.00  0.00     0.051 C 
BRANCH  27  28
HETATM   28  C   UNL     1      40.298 -12.201   1.679  1.00  0.00    -0.021 A 
HETATM   29  C   UNL     1      39.377 -12.092   2.703  1.00  0.00     0.120 A 
HETATM   30  N   UNL     1      39.623 -10.905   3.325  1.00  0.00    -0.285 N 
HETATM   31  C   UNL     1      38.921 -10.364   4.462  1.00  0.00     0.179 C 
HETATM   32  N   UNL     1      40.635 -10.214   2.772  1.00  0.00    -0.185 NA
HETATM   33  C   UNL     1      41.034 -10.994   1.764  1.00  0.00     0.147 A 
ENDBRANCH  27  28
ENDBRANCH  26  27
ENDBRANCH   3  26
TORSDOF 5
ENDMDL
