MODEL 1
REMARK VINA RESULT:      -8.8      0.000      0.000
REMARK  7 active torsions:
REMARK  status: ('A' for Active; 'I' for Inactive)
REMARK    1  A    between atoms: C_2  and  N_3 
REMARK    2  A    between atoms: N_3  and  N_4 
REMARK       I    between atoms: N_4  and  C_5 
REMARK    3  A    between atoms: C_5  and  C_6 
REMARK    4  A    between atoms: C_6  and  C_7 
REMARK    5  A    between atoms: C_7  and  C_8 
REMARK    6  A    between atoms: C_8  and  N_9 
REMARK       I    between atoms: N_9  and  C_10 
REMARK       I    between atoms: C_10  and  N_11 
REMARK    7  A    between atoms: N_11  and  C_12 
ROOT
HETATM    1  C   UNL     1      43.758 -17.975   3.633  1.00  0.00     0.068 A 
HETATM    2  C   UNL     1      44.289 -19.001   4.408  1.00  0.00     0.124 A 
HETATM    3  N   UNL     1      44.512 -20.228   3.903  1.00  0.00    -0.223 NA
HETATM    4  C   UNL     1      44.179 -20.449   2.618  1.00  0.00     0.129 A 
HETATM    5 CL   UNL     1      44.498 -22.038   2.060  1.00  0.00    -0.062 Cl
HETATM    6  C   UNL     1      43.632 -19.504   1.777  1.00  0.00     0.067 A 
HETATM    7  C   UNL     1      43.420 -18.237   2.305  1.00  0.00     0.051 A 
HETATM    8  C   UNL     1      42.862 -17.201   1.489  1.00  0.00     0.099 C 
HETATM    9  N   UNL     1      42.408 -16.366   0.827  1.00  0.00    -0.191 NA
ENDROOT
BRANCH   2  10
HETATM   10  N   UNL     1      44.698 -18.785   5.741  1.00  0.00    -0.186 NA
HETATM   11  H   UNL     1      44.087 -19.389   6.312  1.00  0.00     0.154 HD
BRANCH  10  12
HETATM   12  N   UNL     1      44.628 -17.432   6.148  1.00  0.00    -0.286 N 
HETATM   13  C   UNL     1      43.639 -17.128   7.069  1.00  0.00     0.232 C 
HETATM   14  O   UNL     1      42.728 -17.898   7.363  1.00  0.00    -0.272 OA
HETATM   15  H   UNL     1      45.529 -16.965   6.222  1.00  0.00     0.184 HD
BRANCH  13  16
HETATM   16  C   UNL     1      43.797 -15.775   7.727  1.00  0.00     0.106 C 
BRANCH  16  17
HETATM   17  C   UNL     1      44.407 -14.741   6.786  1.00  0.00     0.029 C 
BRANCH  17  18
HETATM   18  C   UNL     1      45.035 -13.593   7.572  1.00  0.00     0.125 C 
BRANCH  18  19
HETATM   19  N   UNL     1      44.041 -12.836   8.303  1.00  0.00    -0.343 N 
HETATM   20  C   UNL     1      44.239 -12.481   9.616  1.00  0.00     0.316 C 
HETATM   21  N   UNL     1      43.178 -11.750  10.085  1.00  0.00    -0.339 N 
HETATM   22  O   UNL     1      45.232 -12.787  10.259  1.00  0.00    -0.248 OA
HETATM   23  H   UNL     1      42.314 -11.916   9.593  1.00  0.00     0.164 HD
HETATM   24  H   UNL     1      43.412 -12.252   7.773  1.00  0.00     0.164 HD
BRANCH  21  25
HETATM   25  C   UNL     1      43.037 -11.310  11.468  1.00  0.00     0.086 C 
HETATM   26  C   UNL     1      41.587 -11.322  11.968  1.00  0.00     0.025 C 
HETATM   27  C   UNL     1      41.510 -10.923  13.441  1.00  0.00     0.002 C 
HETATM   28  C   UNL     1      42.184  -9.577  13.700  1.00  0.00     0.000 C 
HETATM   29  C   UNL     1      43.624  -9.559  13.191  1.00  0.00     0.002 C 
HETATM   30  C   UNL     1      43.707  -9.953  11.718  1.00  0.00     0.025 C 
ENDBRANCH  21  25
ENDBRANCH  18  19
ENDBRANCH  17  18
ENDBRANCH  16  17
ENDBRANCH  13  16
ENDBRANCH  10  12
ENDBRANCH   2  10
TORSDOF 7
ENDMDL
MODEL 2
REMARK VINA RESULT:      -8.5      3.397     11.044
REMARK  7 active torsions:
REMARK  status: ('A' for Active; 'I' for Inactive)
REMARK    1  A    between atoms: C_2  and  N_3 
REMARK    2  A    between atoms: N_3  and  N_4 
REMARK       I    between atoms: N_4  and  C_5 
REMARK    3  A    between atoms: C_5  and  C_6 
REMARK    4  A    between atoms: C_6  and  C_7 
REMARK    5  A    between atoms: C_7  and  C_8 
REMARK    6  A    between atoms: C_8  and  N_9 
REMARK       I    between atoms: N_9  and  C_10 
REMARK       I    between atoms: C_10  and  N_11 
REMARK    7  A    between atoms: N_11  and  C_12 
ROOT
HETATM    1  C   UNL     1      43.747 -11.162  11.927  1.00  0.00     0.068 A 
HETATM    2  C   UNL     1      43.724 -11.573  10.599  1.00  0.00     0.124 A 
HETATM    3  N   UNL     1      42.906 -11.004   9.695  1.00  0.00    -0.223 NA
HETATM    4  C   UNL     1      42.079 -10.031  10.121  1.00  0.00     0.129 A 
HETATM    5 CL   UNL     1      41.073  -9.364   8.903  1.00  0.00    -0.062 Cl
HETATM    6  C   UNL     1      42.015  -9.569  11.417  1.00  0.00     0.067 A 
HETATM    7  C   UNL     1      42.875 -10.154  12.338  1.00  0.00     0.051 A 
HETATM    8  C   UNL     1      42.871  -9.721  13.703  1.00  0.00     0.099 C 
HETATM    9  N   UNL     1      42.864  -9.369  14.807  1.00  0.00    -0.191 NA
ENDROOT
BRANCH   2  10
HETATM   10  N   UNL     1      44.616 -12.552  10.111  1.00  0.00    -0.186 NA
HETATM   11  H   UNL     1      45.539 -12.092  10.098  1.00  0.00     0.154 HD
BRANCH  10  12
HETATM   12  N   UNL     1      44.265 -13.061   8.839  1.00  0.00    -0.286 N 
HETATM   13  C   UNL     1      45.292 -13.130   7.911  1.00  0.00     0.232 C 
HETATM   14  O   UNL     1      46.383 -12.589   8.068  1.00  0.00    -0.272 OA
HETATM   15  H   UNL     1      43.569 -13.803   8.857  1.00  0.00     0.184 HD
BRANCH  13  16
HETATM   16  C   UNL     1      44.975 -13.973   6.695  1.00  0.00     0.106 C 
BRANCH  16  17
HETATM   17  C   UNL     1      44.174 -15.221   7.048  1.00  0.00     0.029 C 
BRANCH  17  18
HETATM   18  C   UNL     1      43.040 -15.440   6.051  1.00  0.00     0.125 C 
BRANCH  18  19
HETATM   19  N   UNL     1      43.459 -16.260   4.933  1.00  0.00    -0.343 N 
HETATM   20  C   UNL     1      43.216 -17.612   4.911  1.00  0.00     0.316 C 
HETATM   21  N   UNL     1      43.680 -18.168   3.746  1.00  0.00    -0.339 N 
HETATM   22  O   UNL     1      42.663 -18.218   5.817  1.00  0.00    -0.248 OA
HETATM   23  H   UNL     1      44.423 -17.647   3.309  1.00  0.00     0.164 HD
HETATM   24  H   UNL     1      43.567 -15.812   4.036  1.00  0.00     0.164 HD
BRANCH  21  25
HETATM   25  C   UNL     1      43.666 -19.598   3.462  1.00  0.00     0.086 C 
HETATM   26  C   UNL     1      44.853 -20.354   4.072  1.00  0.00     0.025 C 
HETATM   27  C   UNL     1      44.747 -21.855   3.804  1.00  0.00     0.002 C 
HETATM   28  C   UNL     1      44.593 -22.155   2.314  1.00  0.00     0.000 C 
HETATM   29  C   UNL     1      43.420 -21.393   1.702  1.00  0.00     0.002 C 
HETATM   30  C   UNL     1      43.523 -19.892   1.963  1.00  0.00     0.025 C 
ENDBRANCH  21  25
ENDBRANCH  18  19
ENDBRANCH  17  18
ENDBRANCH  16  17
ENDBRANCH  13  16
ENDBRANCH  10  12
ENDBRANCH   2  10
TORSDOF 7
ENDMDL
MODEL 3
REMARK VINA RESULT:      -8.5      4.642      9.032
REMARK  7 active torsions:
REMARK  status: ('A' for Active; 'I' for Inactive)
REMARK    1  A    between atoms: C_2  and  N_3 
REMARK    2  A    between atoms: N_3  and  N_4 
REMARK       I    between atoms: N_4  and  C_5 
REMARK    3  A    between atoms: C_5  and  C_6 
REMARK    4  A    between atoms: C_6  and  C_7 
REMARK    5  A    between atoms: C_7  and  C_8 
REMARK    6  A    between atoms: C_8  and  N_9 
REMARK       I    between atoms: N_9  and  C_10 
REMARK       I    between atoms: C_10  and  N_11 
REMARK    7  A    between atoms: N_11  and  C_12 
ROOT
HETATM    1  C   UNL     1      42.673 -15.121   6.123  1.00  0.00     0.068 A 
HETATM    2  C   UNL     1      41.766 -16.174   6.073  1.00  0.00     0.124 A 
HETATM    3  N   UNL     1      42.094 -17.412   6.484  1.00  0.00    -0.223 NA
HETATM    4  C   UNL     1      43.350 -17.616   6.927  1.00  0.00     0.129 A 
HETATM    5 CL   UNL     1      43.679 -19.221   7.430  1.00  0.00    -0.062 Cl
HETATM    6  C   UNL     1      44.323 -16.642   6.997  1.00  0.00     0.067 A 
HETATM    7  C   UNL     1      43.968 -15.364   6.584  1.00  0.00     0.051 A 
HETATM    8  C   UNL     1      44.923 -14.300   6.635  1.00  0.00     0.099 C 
HETATM    9  N   UNL     1      45.700 -13.441   6.675  1.00  0.00    -0.191 NA
ENDROOT
BRANCH   2  10
HETATM   10  N   UNL     1      40.429 -15.980   5.666  1.00  0.00    -0.186 NA
HETATM   11  H   UNL     1      39.906 -16.770   6.073  1.00  0.00     0.154 HD
BRANCH  10  12
HETATM   12  N   UNL     1      40.265 -15.909   4.262  1.00  0.00    -0.286 N 
HETATM   13  C   UNL     1      40.006 -14.650   3.746  1.00  0.00     0.232 C 
HETATM   14  O   UNL     1      39.709 -13.682   4.442  1.00  0.00    -0.272 OA
HETATM   15  H   UNL     1      40.860 -16.544   3.734  1.00  0.00     0.184 HD
BRANCH  13  16
HETATM   16  C   UNL     1      40.166 -14.548   2.245  1.00  0.00     0.106 C 
BRANCH  16  17
HETATM   17  C   UNL     1      41.617 -14.328   1.831  1.00  0.00     0.029 C 
BRANCH  17  18
HETATM   18  C   UNL     1      41.999 -15.250   0.676  1.00  0.00     0.125 C 
BRANCH  18  19
HETATM   19  N   UNL     1      41.928 -16.645   1.058  1.00  0.00    -0.343 N 
HETATM   20  C   UNL     1      43.032 -17.310   1.532  1.00  0.00     0.316 C 
HETATM   21  N   UNL     1      42.716 -18.606   1.851  1.00  0.00    -0.339 N 
HETATM   22  O   UNL     1      44.137 -16.800   1.644  1.00  0.00    -0.248 OA
HETATM   23  H   UNL     1      41.917 -18.969   1.355  1.00  0.00     0.164 HD
HETATM   24  H   UNL     1      41.032 -17.008   1.343  1.00  0.00     0.164 HD
BRANCH  21  25
HETATM   25  C   UNL     1      43.690 -19.601   2.284  1.00  0.00     0.086 C 
HETATM   26  C   UNL     1      43.346 -21.028   1.838  1.00  0.00     0.025 C 
HETATM   27  C   UNL     1      44.435 -22.014   2.256  1.00  0.00     0.002 C 
HETATM   28  C   UNL     1      44.716 -21.945   3.755  1.00  0.00     0.000 C 
HETATM   29  C   UNL     1      45.047 -20.524   4.205  1.00  0.00     0.002 C 
HETATM   30  C   UNL     1      43.958 -19.534   3.793  1.00  0.00     0.025 C 
ENDBRANCH  21  25
ENDBRANCH  18  19
ENDBRANCH  17  18
ENDBRANCH  16  17
ENDBRANCH  13  16
ENDBRANCH  10  12
ENDBRANCH   2  10
TORSDOF 7
ENDMDL
MODEL 4
REMARK VINA RESULT:      -8.5      3.818     10.708
REMARK  7 active torsions:
REMARK  status: ('A' for Active; 'I' for Inactive)
REMARK    1  A    between atoms: C_2  and  N_3 
REMARK    2  A    between atoms: N_3  and  N_4 
REMARK       I    between atoms: N_4  and  C_5 
REMARK    3  A    between atoms: C_5  and  C_6 
REMARK    4  A    between atoms: C_6  and  C_7 
REMARK    5  A    between atoms: C_7  and  C_8 
REMARK    6  A    between atoms: C_8  and  N_9 
REMARK       I    between atoms: N_9  and  C_10 
REMARK       I    between atoms: C_10  and  N_11 
REMARK    7  A    between atoms: N_11  and  C_12 
ROOT
HETATM    1  C   UNL     1      42.805 -11.047   9.613  1.00  0.00     0.068 A 
HETATM    2  C   UNL     1      43.839 -11.489  10.432  1.00  0.00     0.124 A 
HETATM    3  N   UNL     1      44.037 -10.980  11.661  1.00  0.00    -0.223 NA
HETATM    4  C   UNL     1      43.214  -9.999  12.075  1.00  0.00     0.129 A 
HETATM    5 CL   UNL     1      43.539  -9.410  13.652  1.00  0.00    -0.062 Cl
HETATM    6  C   UNL     1      42.175  -9.482  11.331  1.00  0.00     0.067 A 
HETATM    7  C   UNL     1      41.971 -10.026  10.069  1.00  0.00     0.051 A 
HETATM    8  C   UNL     1      40.907  -9.546   9.242  1.00  0.00     0.099 C 
HETATM    9  N   UNL     1      40.045  -9.153   8.573  1.00  0.00    -0.191 NA
ENDROOT
BRANCH   2  10
HETATM   10  N   UNL     1      44.684 -12.553  10.048  1.00  0.00    -0.186 NA
HETATM   11  H   UNL     1      45.635 -12.155  10.048  1.00  0.00     0.154 HD
BRANCH  10  12
HETATM   12  N   UNL     1      44.353 -13.121   8.794  1.00  0.00    -0.286 N 
HETATM   13  C   UNL     1      45.375 -13.163   7.860  1.00  0.00     0.232 C 
HETATM   14  O   UNL     1      46.437 -12.559   7.992  1.00  0.00    -0.272 OA
HETATM   15  H   UNL     1      43.698 -13.898   8.842  1.00  0.00     0.184 HD
BRANCH  13  16
HETATM   16  C   UNL     1      45.097 -14.060   6.675  1.00  0.00     0.106 C 
BRANCH  16  17
HETATM   17  C   UNL     1      43.606 -14.173   6.371  1.00  0.00     0.029 C 
BRANCH  17  18
HETATM   18  C   UNL     1      43.104 -15.591   6.632  1.00  0.00     0.125 C 
BRANCH  18  19
HETATM   19  N   UNL     1      43.917 -16.580   5.956  1.00  0.00    -0.343 N 
HETATM   20  C   UNL     1      43.345 -17.638   5.291  1.00  0.00     0.316 C 
HETATM   21  N   UNL     1      44.308 -18.423   4.711  1.00  0.00    -0.339 N 
HETATM   22  O   UNL     1      42.140 -17.836   5.240  1.00  0.00    -0.248 OA
HETATM   23  H   UNL     1      45.211 -18.362   5.155  1.00  0.00     0.164 HD
HETATM   24  H   UNL     1      44.833 -16.300   5.642  1.00  0.00     0.164 HD
BRANCH  21  25
HETATM   25  C   UNL     1      44.032 -19.677   4.021  1.00  0.00     0.086 C 
HETATM   26  C   UNL     1      45.020 -20.798   4.371  1.00  0.00     0.025 C 
HETATM   27  C   UNL     1      44.640 -22.105   3.677  1.00  0.00     0.002 C 
HETATM   28  C   UNL     1      44.505 -21.925   2.167  1.00  0.00     0.000 C 
HETATM   29  C   UNL     1      43.531 -20.802   1.815  1.00  0.00     0.002 C 
HETATM   30  C   UNL     1      43.909 -19.492   2.503  1.00  0.00     0.025 C 
ENDBRANCH  21  25
ENDBRANCH  18  19
ENDBRANCH  17  18
ENDBRANCH  16  17
ENDBRANCH  13  16
ENDBRANCH  10  12
ENDBRANCH   2  10
TORSDOF 7
ENDMDL
MODEL 5
REMARK VINA RESULT:      -8.5      5.071      9.285
REMARK  7 active torsions:
REMARK  status: ('A' for Active; 'I' for Inactive)
REMARK    1  A    between atoms: C_2  and  N_3 
REMARK    2  A    between atoms: N_3  and  N_4 
REMARK       I    between atoms: N_4  and  C_5 
REMARK    3  A    between atoms: C_5  and  C_6 
REMARK    4  A    between atoms: C_6  and  C_7 
REMARK    5  A    between atoms: C_7  and  C_8 
REMARK    6  A    between atoms: C_8  and  N_9 
REMARK       I    between atoms: N_9  and  C_10 
REMARK       I    between atoms: C_10  and  N_11 
REMARK    7  A    between atoms: N_11  and  C_12 
ROOT
HETATM    1  C   UNL     1      42.022 -17.187   6.598  1.00  0.00     0.068 A 
HETATM    2  C   UNL     1      41.765 -15.883   6.188  1.00  0.00     0.124 A 
HETATM    3  N   UNL     1      42.729 -14.944   6.166  1.00  0.00    -0.223 NA
HETATM    4  C   UNL     1      43.959 -15.296   6.583  1.00  0.00     0.129 A 
HETATM    5 CL   UNL     1      45.122 -14.039   6.522  1.00  0.00    -0.062 Cl
HETATM    6  C   UNL     1      44.306 -16.555   7.025  1.00  0.00     0.067 A 
HETATM    7  C   UNL     1      43.307 -17.520   7.029  1.00  0.00     0.051 A 
HETATM    8  C   UNL     1      43.594 -18.852   7.467  1.00  0.00     0.099 C 
HETATM    9  N   UNL     1      43.829 -19.929   7.824  1.00  0.00    -0.191 NA
ENDROOT
BRANCH   2  10
HETATM   10  N   UNL     1      40.501 -15.498   5.694  1.00  0.00    -0.186 NA
HETATM   11  H   UNL     1      39.819 -15.904   6.354  1.00  0.00     0.154 HD
BRANCH  10  12
HETATM   12  N   UNL     1      40.256 -15.914   4.364  1.00  0.00    -0.286 N 
HETATM   13  C   UNL     1      40.018 -14.902   3.448  1.00  0.00     0.232 C 
HETATM   14  O   UNL     1      39.802 -13.736   3.769  1.00  0.00    -0.272 OA
HETATM   15  H   UNL     1      40.793 -16.727   4.070  1.00  0.00     0.184 HD
BRANCH  13  16
HETATM   16  C   UNL     1      40.093 -15.342   2.003  1.00  0.00     0.106 C 
BRANCH  16  17
HETATM   17  C   UNL     1      41.069 -14.498   1.190  1.00  0.00     0.029 C 
BRANCH  17  18
HETATM   18  C   UNL     1      42.136 -15.375   0.539  1.00  0.00     0.125 C 
BRANCH  18  19
HETATM   19  N   UNL     1      42.041 -16.751   0.980  1.00  0.00    -0.343 N 
HETATM   20  C   UNL     1      43.138 -17.422   1.462  1.00  0.00     0.316 C 
HETATM   21  N   UNL     1      42.799 -18.696   1.840  1.00  0.00    -0.339 N 
HETATM   22  O   UNL     1      44.256 -16.934   1.532  1.00  0.00    -0.248 OA
HETATM   23  H   UNL     1      41.983 -19.060   1.373  1.00  0.00     0.164 HD
HETATM   24  H   UNL     1      41.142 -17.081   1.297  1.00  0.00     0.164 HD
BRANCH  21  25
HETATM   25  C   UNL     1      43.758 -19.695   2.295  1.00  0.00     0.086 C 
HETATM   26  C   UNL     1      43.416 -21.121   1.847  1.00  0.00     0.025 C 
HETATM   27  C   UNL     1      44.491 -22.112   2.290  1.00  0.00     0.002 C 
HETATM   28  C   UNL     1      44.741 -22.040   3.795  1.00  0.00     0.000 C 
HETATM   29  C   UNL     1      45.070 -20.619   4.247  1.00  0.00     0.002 C 
HETATM   30  C   UNL     1      43.996 -19.625   3.810  1.00  0.00     0.025 C 
ENDBRANCH  21  25
ENDBRANCH  18  19
ENDBRANCH  17  18
ENDBRANCH  16  17
ENDBRANCH  13  16
ENDBRANCH  10  12
ENDBRANCH   2  10
TORSDOF 7
ENDMDL
MODEL 6
REMARK VINA RESULT:      -8.4      4.730     10.058
REMARK  7 active torsions:
REMARK  status: ('A' for Active; 'I' for Inactive)
REMARK    1  A    between atoms: C_2  and  N_3 
REMARK    2  A    between atoms: N_3  and  N_4 
REMARK       I    between atoms: N_4  and  C_5 
REMARK    3  A    between atoms: C_5  and  C_6 
REMARK    4  A    between atoms: C_6  and  C_7 
REMARK    5  A    between atoms: C_7  and  C_8 
REMARK    6  A    between atoms: C_8  and  N_9 
REMARK       I    between atoms: N_9  and  C_10 
REMARK       I    between atoms: C_10  and  N_11 
REMARK    7  A    between atoms: N_11  and  C_12 
ROOT
HETATM    1  C   UNL     1      42.251 -10.864  10.600  1.00  0.00     0.068 A 
HETATM    2  C   UNL     1      41.153 -10.858  11.453  1.00  0.00     0.124 A 
HETATM    3  N   UNL     1      41.266 -10.530  12.752  1.00  0.00    -0.223 NA
HETATM    4  C   UNL     1      42.492 -10.230  13.220  1.00  0.00     0.129 A 
HETATM    5 CL   UNL     1      42.543  -9.825  14.885  1.00  0.00    -0.062 Cl
HETATM    6  C   UNL     1      43.642 -10.226  12.460  1.00  0.00     0.067 A 
HETATM    7  C   UNL     1      43.510 -10.551  11.116  1.00  0.00     0.051 A 
HETATM    8  C   UNL     1      44.658 -10.562  10.261  1.00  0.00     0.099 C 
HETATM    9  N   UNL     1      45.590 -10.571   9.573  1.00  0.00    -0.191 NA
ENDROOT
BRANCH   2  10
HETATM   10  N   UNL     1      39.848 -11.115  10.980  1.00  0.00    -0.186 NA
HETATM   11  H   UNL     1      39.378 -11.618  11.748  1.00  0.00     0.154 HD
BRANCH  10  12
HETATM   12  N   UNL     1      39.813 -11.849   9.771  1.00  0.00    -0.286 N 
HETATM   13  C   UNL     1      39.162 -11.239   8.711  1.00  0.00     0.232 C 
HETATM   14  O   UNL     1      38.459 -10.239   8.835  1.00  0.00    -0.272 OA
HETATM   15  H   UNL     1      40.650 -12.396   9.584  1.00  0.00     0.184 HD
BRANCH  13  16
HETATM   16  C   UNL     1      39.425 -11.881   7.367  1.00  0.00     0.106 C 
BRANCH  16  17
HETATM   17  C   UNL     1      40.114 -10.929   6.395  1.00  0.00     0.029 C 
BRANCH  17  18
HETATM   18  C   UNL     1      41.418 -11.529   5.877  1.00  0.00     0.125 C 
BRANCH  18  19
HETATM   19  N   UNL     1      41.551 -12.922   6.249  1.00  0.00    -0.343 N 
HETATM   20  C   UNL     1      42.561 -13.702   5.739  1.00  0.00     0.316 C 
HETATM   21  N   UNL     1      42.499 -14.971   6.254  1.00  0.00    -0.339 N 
HETATM   22  O   UNL     1      43.389 -13.300   4.935  1.00  0.00    -0.248 OA
HETATM   23  H   UNL     1      41.581 -15.243   6.570  1.00  0.00     0.164 HD
HETATM   24  H   UNL     1      41.173 -13.209   7.139  1.00  0.00     0.164 HD
BRANCH  21  25
HETATM   25  C   UNL     1      43.367 -16.065   5.834  1.00  0.00     0.086 C 
HETATM   26  C   UNL     1      42.658 -17.108   4.961  1.00  0.00     0.025 C 
HETATM   27  C   UNL     1      43.632 -18.189   4.493  1.00  0.00     0.002 C 
HETATM   28  C   UNL     1      44.362 -18.839   5.666  1.00  0.00     0.000 C 
HETATM   29  C   UNL     1      45.059 -17.803   6.545  1.00  0.00     0.002 C 
HETATM   30  C   UNL     1      44.089 -16.722   7.019  1.00  0.00     0.025 C 
ENDBRANCH  21  25
ENDBRANCH  18  19
ENDBRANCH  17  18
ENDBRANCH  16  17
ENDBRANCH  13  16
ENDBRANCH  10  12
ENDBRANCH   2  10
TORSDOF 7
ENDMDL
MODEL 7
REMARK VINA RESULT:      -8.3      1.895      2.538
REMARK  7 active torsions:
REMARK  status: ('A' for Active; 'I' for Inactive)
REMARK    1  A    between atoms: C_2  and  N_3 
REMARK    2  A    between atoms: N_3  and  N_4 
REMARK       I    between atoms: N_4  and  C_5 
REMARK    3  A    between atoms: C_5  and  C_6 
REMARK    4  A    between atoms: C_6  and  C_7 
REMARK    5  A    between atoms: C_7  and  C_8 
REMARK    6  A    between atoms: C_8  and  N_9 
REMARK       I    between atoms: N_9  and  C_10 
REMARK       I    between atoms: C_10  and  N_11 
REMARK    7  A    between atoms: N_11  and  C_12 
ROOT
HETATM    1  C   UNL     1      43.423 -19.722   3.789  1.00  0.00     0.068 A 
HETATM    2  C   UNL     1      43.009 -18.458   4.193  1.00  0.00     0.124 A 
HETATM    3  N   UNL     1      42.779 -17.470   3.309  1.00  0.00    -0.223 NA
HETATM    4  C   UNL     1      42.991 -17.732   2.006  1.00  0.00     0.129 A 
HETATM    5 CL   UNL     1      42.674 -16.418   0.952  1.00  0.00    -0.062 Cl
HETATM    6  C   UNL     1      43.418 -18.945   1.510  1.00  0.00     0.067 A 
HETATM    7  C   UNL     1      43.637 -19.962   2.431  1.00  0.00     0.051 A 
HETATM    8  C   UNL     1      44.075 -21.251   1.990  1.00  0.00     0.099 C 
HETATM    9  N   UNL     1      44.431 -22.293   1.630  1.00  0.00    -0.191 NA
ENDROOT
BRANCH   2  10
HETATM   10  N   UNL     1      42.727 -18.169   5.546  1.00  0.00    -0.186 NA
HETATM   11  H   UNL     1      41.770 -17.786   5.546  1.00  0.00     0.154 HD
BRANCH  10  12
HETATM   12  N   UNL     1      43.650 -17.278   6.143  1.00  0.00    -0.286 N 
HETATM   13  C   UNL     1      43.137 -16.054   6.542  1.00  0.00     0.232 C 
HETATM   14  O   UNL     1      42.025 -15.647   6.214  1.00  0.00    -0.272 OA
HETATM   15  H   UNL     1      44.357 -17.726   6.721  1.00  0.00     0.184 HD
BRANCH  13  16
HETATM   16  C   UNL     1      44.046 -15.270   7.462  1.00  0.00     0.106 C 
BRANCH  16  17
HETATM   17  C   UNL     1      44.854 -14.213   6.716  1.00  0.00     0.029 C 
BRANCH  17  18
HETATM   18  C   UNL     1      45.406 -13.168   7.681  1.00  0.00     0.125 C 
BRANCH  18  19
HETATM   19  N   UNL     1      44.410 -12.750   8.646  1.00  0.00    -0.343 N 
HETATM   20  C   UNL     1      44.524 -11.555   9.315  1.00  0.00     0.316 C 
HETATM   21  N   UNL     1      43.455 -11.366  10.152  1.00  0.00    -0.339 N 
HETATM   22  O   UNL     1      45.460 -10.783   9.171  1.00  0.00    -0.248 OA
HETATM   23  H   UNL     1      43.003 -12.219  10.443  1.00  0.00     0.164 HD
HETATM   24  H   UNL     1      43.477 -13.118   8.546  1.00  0.00     0.164 HD
BRANCH  21  25
HETATM   25  C   UNL     1      43.330 -10.244  11.075  1.00  0.00     0.086 C 
HETATM   26  C   UNL     1      43.398 -10.656  12.551  1.00  0.00     0.025 C 
HETATM   27  C   UNL     1      43.335  -9.436  13.468  1.00  0.00     0.002 C 
HETATM   28  C   UNL     1      42.107  -8.575  13.180  1.00  0.00     0.000 C 
HETATM   29  C   UNL     1      42.029  -8.173  11.709  1.00  0.00     0.002 C 
HETATM   30  C   UNL     1      42.088  -9.390  10.788  1.00  0.00     0.025 C 
ENDBRANCH  21  25
ENDBRANCH  18  19
ENDBRANCH  17  18
ENDBRANCH  16  17
ENDBRANCH  13  16
ENDBRANCH  10  12
ENDBRANCH   2  10
TORSDOF 7
ENDMDL
MODEL 8
REMARK VINA RESULT:      -7.9      3.772     10.459
REMARK  7 active torsions:
REMARK  status: ('A' for Active; 'I' for Inactive)
REMARK    1  A    between atoms: C_2  and  N_3 
REMARK    2  A    between atoms: N_3  and  N_4 
REMARK       I    between atoms: N_4  and  C_5 
REMARK    3  A    between atoms: C_5  and  C_6 
REMARK    4  A    between atoms: C_6  and  C_7 
REMARK    5  A    between atoms: C_7  and  C_8 
REMARK    6  A    between atoms: C_8  and  N_9 
REMARK       I    between atoms: N_9  and  C_10 
REMARK       I    between atoms: C_10  and  N_11 
REMARK    7  A    between atoms: N_11  and  C_12 
ROOT
HETATM    1  C   UNL     1      42.355 -10.345  10.653  1.00  0.00     0.068 A 
HETATM    2  C   UNL     1      42.419 -10.796   9.338  1.00  0.00     0.124 A 
HETATM    3  N   UNL     1      43.574 -11.210   8.786  1.00  0.00    -0.223 NA
HETATM    4  C   UNL     1      44.688 -11.151   9.541  1.00  0.00     0.129 A 
HETATM    5 CL   UNL     1      46.111 -11.697   8.757  1.00  0.00    -0.062 Cl
HETATM    6  C   UNL     1      44.729 -10.703  10.843  1.00  0.00     0.067 A 
HETATM    7  C   UNL     1      43.527 -10.292  11.407  1.00  0.00     0.051 A 
HETATM    8  C   UNL     1      43.490  -9.822  12.759  1.00  0.00     0.099 C 
HETATM    9  N   UNL     1      43.464  -9.439  13.852  1.00  0.00    -0.191 NA
ENDROOT
BRANCH   2  10
HETATM   10  N   UNL     1      41.261 -10.920   8.542  1.00  0.00    -0.186 NA
HETATM   11  H   UNL     1      40.527 -11.256   9.184  1.00  0.00     0.154 HD
BRANCH  10  12
HETATM   12  N   UNL     1      41.422 -11.783   7.432  1.00  0.00    -0.286 N 
HETATM   13  C   UNL     1      40.272 -12.060   6.709  1.00  0.00     0.232 C 
HETATM   14  O   UNL     1      39.142 -11.781   7.103  1.00  0.00    -0.272 OA
HETATM   15  H   UNL     1      42.301 -11.670   6.932  1.00  0.00     0.184 HD
BRANCH  13  16
HETATM   16  C   UNL     1      40.524 -12.697   5.361  1.00  0.00     0.106 C 
BRANCH  16  17
HETATM   17  C   UNL     1      39.846 -14.057   5.227  1.00  0.00     0.029 C 
BRANCH  17  18
HETATM   18  C   UNL     1      40.651 -15.139   5.944  1.00  0.00     0.125 C 
BRANCH  18  19
HETATM   19  N   UNL     1      41.873 -15.456   5.235  1.00  0.00    -0.343 N 
HETATM   20  C   UNL     1      42.100 -16.716   4.736  1.00  0.00     0.316 C 
HETATM   21  N   UNL     1      43.306 -16.769   4.085  1.00  0.00    -0.339 N 
HETATM   22  O   UNL     1      41.322 -17.649   4.868  1.00  0.00    -0.248 OA
HETATM   23  H   UNL     1      43.970 -16.075   4.392  1.00  0.00     0.164 HD
HETATM   24  H   UNL     1      42.360 -14.701   4.777  1.00  0.00     0.164 HD
BRANCH  21  25
HETATM   25  C   UNL     1      43.883 -17.989   3.534  1.00  0.00     0.086 C 
HETATM   26  C   UNL     1      43.032 -18.622   2.426  1.00  0.00     0.025 C 
HETATM   27  C   UNL     1      43.720 -19.853   1.838  1.00  0.00     0.002 C 
HETATM   28  C   UNL     1      44.083 -20.869   2.919  1.00  0.00     0.000 C 
HETATM   29  C   UNL     1      44.919 -20.239   4.030  1.00  0.00     0.002 C 
HETATM   30  C   UNL     1      44.234 -19.010   4.624  1.00  0.00     0.025 C 
ENDBRANCH  21  25
ENDBRANCH  18  19
ENDBRANCH  17  18
ENDBRANCH  16  17
ENDBRANCH  13  16
ENDBRANCH  10  12
ENDBRANCH   2  10
TORSDOF 7
ENDMDL
MODEL 9
REMARK VINA RESULT:      -7.8      3.152      4.026
REMARK  7 active torsions:
REMARK  status: ('A' for Active; 'I' for Inactive)
REMARK    1  A    between atoms: C_2  and  N_3 
REMARK    2  A    between atoms: N_3  and  N_4 
REMARK       I    between atoms: N_4  and  C_5 
REMARK    3  A    between atoms: C_5  and  C_6 
REMARK    4  A    between atoms: C_6  and  C_7 
REMARK    5  A    between atoms: C_7  and  C_8 
REMARK    6  A    between atoms: C_8  and  N_9 
REMARK       I    between atoms: N_9  and  C_10 
REMARK       I    between atoms: C_10  and  N_11 
REMARK    7  A    between atoms: N_11  and  C_12 
ROOT
HETATM    1  C   UNL     1      41.887 -17.611   5.443  1.00  0.00     0.068 A 
HETATM    2  C   UNL     1      41.521 -16.966   4.266  1.00  0.00     0.124 A 
HETATM    3  N   UNL     1      42.194 -17.152   3.117  1.00  0.00    -0.223 NA
HETATM    4  C   UNL     1      43.263 -17.971   3.140  1.00  0.00     0.129 A 
HETATM    5 CL   UNL     1      44.060 -18.149   1.633  1.00  0.00    -0.062 Cl
HETATM    6  C   UNL     1      43.714 -18.639   4.258  1.00  0.00     0.067 A 
HETATM    7  C   UNL     1      43.002 -18.450   5.435  1.00  0.00     0.051 A 
HETATM    8  C   UNL     1      43.406 -19.117   6.636  1.00  0.00     0.099 C 
HETATM    9  N   UNL     1      43.737 -19.657   7.607  1.00  0.00    -0.191 NA
ENDROOT
BRANCH   2  10
HETATM   10  N   UNL     1      40.374 -16.147   4.198  1.00  0.00    -0.186 NA
HETATM   11  H   UNL     1      40.478 -15.611   3.323  1.00  0.00     0.154 HD
BRANCH  10  12
HETATM   12  N   UNL     1      40.213 -15.297   5.318  1.00  0.00    -0.286 N 
HETATM   13  C   UNL     1      40.475 -13.953   5.101  1.00  0.00     0.232 C 
HETATM   14  O   UNL     1      41.027 -13.527   4.089  1.00  0.00    -0.272 OA
HETATM   15  H   UNL     1      39.448 -15.554   5.937  1.00  0.00     0.184 HD
BRANCH  13  16
HETATM   16  C   UNL     1      39.981 -13.038   6.199  1.00  0.00     0.106 C 
BRANCH  16  17
HETATM   17  C   UNL     1      40.216 -11.566   5.876  1.00  0.00     0.029 C 
BRANCH  17  18
HETATM   18  C   UNL     1      41.520 -11.074   6.498  1.00  0.00     0.125 C 
BRANCH  18  19
HETATM   19  N   UNL     1      41.652 -11.502   7.875  1.00  0.00    -0.343 N 
HETATM   20  C   UNL     1      41.666 -10.593   8.905  1.00  0.00     0.316 C 
HETATM   21  N   UNL     1      41.773 -11.232  10.114  1.00  0.00    -0.339 N 
HETATM   22  O   UNL     1      41.595  -9.383   8.744  1.00  0.00    -0.248 OA
HETATM   23  H   UNL     1      42.203 -12.143  10.061  1.00  0.00     0.164 HD
HETATM   24  H   UNL     1      41.347 -12.435   8.108  1.00  0.00     0.164 HD
BRANCH  21  25
HETATM   25  C   UNL     1      41.918 -10.544  11.391  1.00  0.00     0.086 C 
HETATM   26  C   UNL     1      43.378 -10.347  11.818  1.00  0.00     0.025 C 
HETATM   27  C   UNL     1      43.469  -9.559  13.124  1.00  0.00     0.002 C 
HETATM   28  C   UNL     1      42.639 -10.203  14.233  1.00  0.00     0.000 C 
HETATM   29  C   UNL     1      41.188 -10.411  13.806  1.00  0.00     0.002 C 
HETATM   30  C   UNL     1      41.091 -11.203  12.503  1.00  0.00     0.025 C 
ENDBRANCH  21  25
ENDBRANCH  18  19
ENDBRANCH  17  18
ENDBRANCH  16  17
ENDBRANCH  13  16
ENDBRANCH  10  12
ENDBRANCH   2  10
TORSDOF 7
ENDMDL
MODEL 10
REMARK VINA RESULT:      -7.8      4.777      9.803
REMARK  7 active torsions:
REMARK  status: ('A' for Active; 'I' for Inactive)
REMARK    1  A    between atoms: C_2  and  N_3 
REMARK    2  A    between atoms: N_3  and  N_4 
REMARK       I    between atoms: N_4  and  C_5 
REMARK    3  A    between atoms: C_5  and  C_6 
REMARK    4  A    between atoms: C_6  and  C_7 
REMARK    5  A    between atoms: C_7  and  C_8 
REMARK    6  A    between atoms: C_8  and  N_9 
REMARK       I    between atoms: N_9  and  C_10 
REMARK       I    between atoms: C_10  and  N_11 
REMARK    7  A    between atoms: N_11  and  C_12 
ROOT
HETATM    1  C   UNL     1      40.561 -10.819  10.192  1.00  0.00     0.068 A 
HETATM    2  C   UNL     1      40.936 -10.793  11.531  1.00  0.00     0.124 A 
HETATM    3  N   UNL     1      40.300 -10.021  12.430  1.00  0.00    -0.223 NA
HETATM    4  C   UNL     1      39.294  -9.242  11.991  1.00  0.00     0.129 A 
HETATM    5 CL   UNL     1      38.542  -8.292  13.204  1.00  0.00    -0.062 Cl
HETATM    6  C   UNL     1      38.862  -9.184  10.683  1.00  0.00     0.067 A 
HETATM    7  C   UNL     1      39.516  -9.997   9.766  1.00  0.00     0.051 A 
HETATM    8  C   UNL     1      39.118  -9.997   8.391  1.00  0.00     0.099 C 
HETATM    9  N   UNL     1      38.794  -9.993   7.278  1.00  0.00    -0.191 NA
ENDROOT
BRANCH   2  10
HETATM   10  N   UNL     1      41.950 -11.637  12.031  1.00  0.00    -0.186 NA
HETATM   11  H   UNL     1      41.719 -11.774  13.027  1.00  0.00     0.154 HD
BRANCH  10  12
HETATM   12  N   UNL     1      43.257 -11.123  11.861  1.00  0.00    -0.286 N 
HETATM   13  C   UNL     1      44.208 -12.025  11.411  1.00  0.00     0.232 C 
HETATM   14  O   UNL     1      44.022 -13.238  11.369  1.00  0.00    -0.272 OA
HETATM   15  H   UNL     1      43.293 -10.162  11.527  1.00  0.00     0.184 HD
BRANCH  13  16
HETATM   16  C   UNL     1      45.490 -11.385  10.925  1.00  0.00     0.106 C 
BRANCH  16  17
HETATM   17  C   UNL     1      45.385 -10.897   9.484  1.00  0.00     0.029 C 
BRANCH  17  18
HETATM   18  C   UNL     1      45.885 -11.962   8.511  1.00  0.00     0.125 C 
BRANCH  18  19
HETATM   19  N   UNL     1      44.967 -13.078   8.419  1.00  0.00    -0.343 N 
HETATM   20  C   UNL     1      44.907 -13.858   7.290  1.00  0.00     0.316 C 
HETATM   21  N   UNL     1      43.987 -14.864   7.445  1.00  0.00    -0.339 N 
HETATM   22  O   UNL     1      45.585 -13.664   6.293  1.00  0.00    -0.248 OA
HETATM   23  H   UNL     1      43.266 -14.661   8.121  1.00  0.00     0.164 HD
HETATM   24  H   UNL     1      44.670 -13.513   9.278  1.00  0.00     0.164 HD
BRANCH  21  25
HETATM   25  C   UNL     1      43.614 -15.799   6.391  1.00  0.00     0.086 C 
HETATM   26  C   UNL     1      42.105 -16.064   6.315  1.00  0.00     0.025 C 
HETATM   27  C   UNL     1      41.767 -16.992   5.149  1.00  0.00     0.002 C 
HETATM   28  C   UNL     1      42.565 -18.293   5.211  1.00  0.00     0.000 C 
HETATM   29  C   UNL     1      44.067 -18.032   5.299  1.00  0.00     0.002 C 
HETATM   30  C   UNL     1      44.411 -17.108   6.466  1.00  0.00     0.025 C 
ENDBRANCH  21  25
ENDBRANCH  18  19
ENDBRANCH  17  18
ENDBRANCH  16  17
ENDBRANCH  13  16
ENDBRANCH  10  12
ENDBRANCH   2  10
TORSDOF 7
ENDMDL
