MODEL 1
REMARK VINA RESULT:      -7.7      0.000      0.000
REMARK  3 active torsions:
REMARK  status: ('A' for Active; 'I' for Inactive)
REMARK    1  A    between atoms: C_3  and  N_4 
REMARK       I    between atoms: N_4  and  C_5 
REMARK       I    between atoms: C_5  and  N_6 
REMARK    2  A    between atoms: N_6  and  C_7 
REMARK    3  A    between atoms: C_15  and  C_16 
ROOT
HETATM    1  N   UNL     1      41.990 -16.778   1.086  1.00  0.00    -0.309 N 
HETATM    2  C   UNL     1      40.672 -16.434   1.177  1.00  0.00     0.326 C 
HETATM    3  N   UNL     1      40.202 -15.566   0.230  1.00  0.00    -0.292 N 
HETATM    4  O   UNL     1      39.873 -16.828   2.025  1.00  0.00    -0.247 OA
HETATM    5  H   UNL     1      42.474 -16.340   0.306  1.00  0.00     0.170 HD
HETATM    6  H   UNL     1      39.223 -15.357   0.358  1.00  0.00     0.172 HD
ENDROOT
BRANCH   1   7
HETATM    7  C   UNL     1      42.737 -17.637   1.910  1.00  0.00     0.037 A 
HETATM    8  C   UNL     1      43.420 -17.224   3.054  1.00  0.00     0.029 A 
HETATM    9  C   UNL     1      44.143 -18.143   3.818  1.00  0.00     0.003 A 
HETATM   10  C   UNL     1      44.188 -19.486   3.447  1.00  0.00     0.016 A 
HETATM   11  C   UNL     1      43.504 -19.925   2.306  1.00  0.00     0.050 A 
HETATM   12  C   UNL     1      42.787 -18.988   1.541  1.00  0.00     0.045 A 
BRANCH  11  13
HETATM   13  C   UNL     1      43.566 -21.373   1.894  1.00  0.00     0.417 C 
HETATM   14  F   UNL     1      43.990 -22.203   2.889  1.00  0.00    -0.166 F 
HETATM   15  F   UNL     1      42.353 -21.853   1.501  1.00  0.00    -0.166 F 
HETATM   16  F   UNL     1      44.410 -21.589   0.847  1.00  0.00    -0.166 F 
ENDBRANCH  11  13
ENDBRANCH   1   7
BRANCH   3  17
HETATM   17  C   UNL     1      40.877 -14.964  -0.837  1.00  0.00     0.148 A 
HETATM   18  N   UNL     1      41.615 -13.845  -0.636  1.00  0.00    -0.240 NA
HETATM   19  C   UNL     1      42.231 -13.336  -1.733  1.00  0.00     0.138 A 
HETATM   20  C   UNL     1      42.122 -13.914  -2.986  1.00  0.00     0.135 A 
HETATM   21  N   UNL     1      41.392 -15.029  -3.202  1.00  0.00    -0.268 NA
HETATM   22  C   UNL     1      40.777 -15.536  -2.105  1.00  0.00     0.166 A 
ENDBRANCH   3  17
TORSDOF 3
ENDMDL
MODEL 2
REMARK VINA RESULT:      -7.6      1.746      2.589
REMARK  3 active torsions:
REMARK  status: ('A' for Active; 'I' for Inactive)
REMARK    1  A    between atoms: C_3  and  N_4 
REMARK       I    between atoms: N_4  and  C_5 
REMARK       I    between atoms: C_5  and  N_6 
REMARK    2  A    between atoms: N_6  and  C_7 
REMARK    3  A    between atoms: C_15  and  C_16 
ROOT
HETATM    1  N   UNL     1      42.545 -17.413   3.172  1.00  0.00    -0.309 N 
HETATM    2  C   UNL     1      41.427 -16.919   3.779  1.00  0.00     0.326 C 
HETATM    3  N   UNL     1      40.768 -15.918   3.120  1.00  0.00    -0.292 N 
HETATM    4  O   UNL     1      40.960 -17.287   4.856  1.00  0.00    -0.247 OA
HETATM    5  H   UNL     1      42.758 -16.969   2.281  1.00  0.00     0.170 HD
HETATM    6  H   UNL     1      39.952 -15.602   3.625  1.00  0.00     0.172 HD
ENDROOT
BRANCH   1   7
HETATM    7  C   UNL     1      43.413 -18.427   3.610  1.00  0.00     0.037 A 
HETATM    8  C   UNL     1      44.215 -18.332   4.748  1.00  0.00     0.029 A 
HETATM    9  C   UNL     1      45.053 -19.389   5.114  1.00  0.00     0.003 A 
HETATM   10  C   UNL     1      45.096 -20.552   4.347  1.00  0.00     0.016 A 
HETATM   11  C   UNL     1      44.294 -20.672   3.205  1.00  0.00     0.050 A 
HETATM   12  C   UNL     1      43.461 -19.599   2.843  1.00  0.00     0.045 A 
BRANCH  11  13
HETATM   13  C   UNL     1      44.352 -21.922   2.365  1.00  0.00     0.417 C 
HETATM   14  F   UNL     1      45.283 -21.865   1.370  1.00  0.00    -0.166 F 
HETATM   15  F   UNL     1      44.660 -23.027   3.099  1.00  0.00    -0.166 F 
HETATM   16  F   UNL     1      43.170 -22.200   1.749  1.00  0.00    -0.166 F 
ENDBRANCH  11  13
ENDBRANCH   1   7
BRANCH   3  17
HETATM   17  C   UNL     1      41.070 -15.310   1.897  1.00  0.00     0.148 A 
HETATM   18  N   UNL     1      41.007 -16.021   0.745  1.00  0.00    -0.240 NA
HETATM   19  C   UNL     1      41.318 -15.343  -0.388  1.00  0.00     0.138 A 
HETATM   20  C   UNL     1      41.678 -14.006  -0.383  1.00  0.00     0.135 A 
HETATM   21  N   UNL     1      41.745 -13.284   0.756  1.00  0.00    -0.268 NA
HETATM   22  C   UNL     1      41.434 -13.964   1.888  1.00  0.00     0.166 A 
ENDBRANCH   3  17
TORSDOF 3
ENDMDL
MODEL 3
REMARK VINA RESULT:      -7.2      3.870      4.785
REMARK  3 active torsions:
REMARK  status: ('A' for Active; 'I' for Inactive)
REMARK    1  A    between atoms: C_3  and  N_4 
REMARK       I    between atoms: N_4  and  C_5 
REMARK       I    between atoms: C_5  and  N_6 
REMARK    2  A    between atoms: N_6  and  C_7 
REMARK    3  A    between atoms: C_15  and  C_16 
ROOT
HETATM    1  N   UNL     1      41.729 -16.303   5.278  1.00  0.00    -0.309 N 
HETATM    2  C   UNL     1      40.626 -16.328   6.082  1.00  0.00     0.326 C 
HETATM    3  N   UNL     1      39.805 -15.236   6.023  1.00  0.00    -0.292 N 
HETATM    4  O   UNL     1      40.303 -17.234   6.848  1.00  0.00    -0.247 OA
HETATM    5  H   UNL     1      41.809 -15.458   4.718  1.00  0.00     0.170 HD
HETATM    6  H   UNL     1      39.011 -15.323   6.641  1.00  0.00     0.172 HD
ENDROOT
BRANCH   1   7
HETATM    7  C   UNL     1      42.738 -17.271   5.133  1.00  0.00     0.037 A 
HETATM    8  C   UNL     1      43.655 -17.600   6.131  1.00  0.00     0.029 A 
HETATM    9  C   UNL     1      44.630 -18.575   5.904  1.00  0.00     0.003 A 
HETATM   10  C   UNL     1      44.695 -19.232   4.676  1.00  0.00     0.016 A 
HETATM   11  C   UNL     1      43.780 -18.923   3.662  1.00  0.00     0.050 A 
HETATM   12  C   UNL     1      42.809 -17.935   3.901  1.00  0.00     0.045 A 
BRANCH  11  13
HETATM   13  C   UNL     1      43.860 -19.621   2.329  1.00  0.00     0.417 C 
HETATM   14  F   UNL     1      44.892 -20.507   2.241  1.00  0.00    -0.166 F 
HETATM   15  F   UNL     1      42.734 -20.333   2.047  1.00  0.00    -0.166 F 
HETATM   16  F   UNL     1      44.026 -18.756   1.289  1.00  0.00    -0.166 F 
ENDBRANCH  11  13
ENDBRANCH   1   7
BRANCH   3  17
HETATM   17  C   UNL     1      39.925 -14.074   5.253  1.00  0.00     0.148 A 
HETATM   18  N   UNL     1      40.105 -14.157   3.912  1.00  0.00    -0.240 NA
HETATM   19  C   UNL     1      40.211 -12.975   3.254  1.00  0.00     0.138 A 
HETATM   20  C   UNL     1      40.139 -11.753   3.899  1.00  0.00     0.135 A 
HETATM   21  N   UNL     1      39.959 -11.654   5.234  1.00  0.00    -0.268 NA
HETATM   22  C   UNL     1      39.854 -12.836   5.890  1.00  0.00     0.166 A 
ENDBRANCH   3  17
TORSDOF 3
ENDMDL
MODEL 4
REMARK VINA RESULT:      -7.1      2.853      3.675
REMARK  3 active torsions:
REMARK  status: ('A' for Active; 'I' for Inactive)
REMARK    1  A    between atoms: C_3  and  N_4 
REMARK       I    between atoms: N_4  and  C_5 
REMARK       I    between atoms: C_5  and  N_6 
REMARK    2  A    between atoms: N_6  and  C_7 
REMARK    3  A    between atoms: C_15  and  C_16 
ROOT
HETATM    1  N   UNL     1      43.198 -17.060   3.158  1.00  0.00    -0.309 N 
HETATM    2  C   UNL     1      43.195 -16.613   1.868  1.00  0.00     0.326 C 
HETATM    3  N   UNL     1      42.538 -15.437   1.632  1.00  0.00    -0.292 N 
HETATM    4  O   UNL     1      43.725 -17.165   0.905  1.00  0.00    -0.247 OA
HETATM    5  H   UNL     1      42.701 -16.450   3.803  1.00  0.00     0.170 HD
HETATM    6  H   UNL     1      42.578 -15.168   0.659  1.00  0.00     0.172 HD
ENDROOT
BRANCH   1   7
HETATM    7  C   UNL     1      43.783 -18.221   3.689  1.00  0.00     0.037 A 
HETATM    8  C   UNL     1      44.387 -18.288   4.945  1.00  0.00     0.029 A 
HETATM    9  C   UNL     1      44.949 -19.485   5.398  1.00  0.00     0.003 A 
HETATM   10  C   UNL     1      44.909 -20.627   4.600  1.00  0.00     0.016 A 
HETATM   11  C   UNL     1      44.302 -20.585   3.339  1.00  0.00     0.050 A 
HETATM   12  C   UNL     1      43.748 -19.373   2.892  1.00  0.00     0.045 A 
BRANCH  11  13
HETATM   13  C   UNL     1      44.274 -21.815   2.469  1.00  0.00     0.417 C 
HETATM   14  F   UNL     1      44.444 -22.976   3.163  1.00  0.00    -0.166 F 
HETATM   15  F   UNL     1      43.095 -21.951   1.800  1.00  0.00    -0.166 F 
HETATM   16  F   UNL     1      45.246 -21.810   1.514  1.00  0.00    -0.166 F 
ENDBRANCH  11  13
ENDBRANCH   1   7
BRANCH   3  17
HETATM   17  C   UNL     1      41.853 -14.606   2.525  1.00  0.00     0.148 A 
HETATM   18  N   UNL     1      40.693 -15.019   3.090  1.00  0.00    -0.240 NA
HETATM   19  C   UNL     1      40.104 -14.142   3.942  1.00  0.00     0.138 A 
HETATM   20  C   UNL     1      40.645 -12.900   4.226  1.00  0.00     0.135 A 
HETATM   21  N   UNL     1      41.800 -12.475   3.672  1.00  0.00    -0.268 NA
HETATM   22  C   UNL     1      42.387 -13.352   2.820  1.00  0.00     0.166 A 
ENDBRANCH   3  17
TORSDOF 3
ENDMDL
MODEL 5
REMARK VINA RESULT:      -7.1      3.539      4.707
REMARK  3 active torsions:
REMARK  status: ('A' for Active; 'I' for Inactive)
REMARK    1  A    between atoms: C_3  and  N_4 
REMARK       I    between atoms: N_4  and  C_5 
REMARK       I    between atoms: C_5  and  N_6 
REMARK    2  A    between atoms: N_6  and  C_7 
REMARK    3  A    between atoms: C_15  and  C_16 
ROOT
HETATM    1  N   UNL     1      41.732 -16.594   3.332  1.00  0.00    -0.309 N 
HETATM    2  C   UNL     1      40.504 -16.312   2.808  1.00  0.00     0.326 C 
HETATM    3  N   UNL     1      39.935 -15.129   3.192  1.00  0.00    -0.292 N 
HETATM    4  O   UNL     1      39.867 -17.015   2.026  1.00  0.00    -0.247 OA
HETATM    5  H   UNL     1      42.085 -15.874   3.959  1.00  0.00     0.170 HD
HETATM    6  H   UNL     1      39.030 -14.986   2.767  1.00  0.00     0.172 HD
ENDROOT
BRANCH   1   7
HETATM    7  C   UNL     1      42.545 -17.720   3.121  1.00  0.00     0.037 A 
HETATM    8  C   UNL     1      42.793 -18.281   1.867  1.00  0.00     0.029 A 
HETATM    9  C   UNL     1      43.613 -19.406   1.744  1.00  0.00     0.003 A 
HETATM   10  C   UNL     1      44.196 -19.979   2.873  1.00  0.00     0.016 A 
HETATM   11  C   UNL     1      43.967 -19.428   4.141  1.00  0.00     0.050 A 
HETATM   12  C   UNL     1      43.133 -18.302   4.251  1.00  0.00     0.045 A 
BRANCH  11  13
HETATM   13  C   UNL     1      44.582 -20.057   5.364  1.00  0.00     0.417 C 
HETATM   14  F   UNL     1      43.664 -20.553   6.241  1.00  0.00    -0.166 F 
HETATM   15  F   UNL     1      45.401 -21.101   5.055  1.00  0.00    -0.166 F 
HETATM   16  F   UNL     1      45.344 -19.185   6.081  1.00  0.00    -0.166 F 
ENDBRANCH  11  13
ENDBRANCH   1   7
BRANCH   3  17
HETATM   17  C   UNL     1      40.425 -14.147   4.059  1.00  0.00     0.148 A 
HETATM   18  N   UNL     1      41.553 -13.462   3.750  1.00  0.00    -0.240 NA
HETATM   19  C   UNL     1      41.948 -12.531   4.654  1.00  0.00     0.138 A 
HETATM   20  C   UNL     1      41.251 -12.284   5.824  1.00  0.00     0.135 A 
HETATM   21  N   UNL     1      40.126 -12.957   6.146  1.00  0.00    -0.268 NA
HETATM   22  C   UNL     1      39.733 -13.888   5.241  1.00  0.00     0.166 A 
ENDBRANCH   3  17
TORSDOF 3
ENDMDL
MODEL 6
REMARK VINA RESULT:      -6.9      2.509      3.085
REMARK  3 active torsions:
REMARK  status: ('A' for Active; 'I' for Inactive)
REMARK    1  A    between atoms: C_3  and  N_4 
REMARK       I    between atoms: N_4  and  C_5 
REMARK       I    between atoms: C_5  and  N_6 
REMARK    2  A    between atoms: N_6  and  C_7 
REMARK    3  A    between atoms: C_15  and  C_16 
ROOT
HETATM    1  N   UNL     1      42.099 -16.641   1.594  1.00  0.00    -0.309 N 
HETATM    2  C   UNL     1      40.741 -16.527   1.522  1.00  0.00     0.326 C 
HETATM    3  N   UNL     1      40.256 -15.492   0.772  1.00  0.00    -0.292 N 
HETATM    4  O   UNL     1      39.919 -17.264   2.064  1.00  0.00    -0.247 OA
HETATM    5  H   UNL     1      42.599 -15.928   1.067  1.00  0.00     0.170 HD
HETATM    6  H   UNL     1      39.246 -15.469   0.764  1.00  0.00     0.172 HD
ENDROOT
BRANCH   1   7
HETATM    7  C   UNL     1      42.870 -17.593   2.282  1.00  0.00     0.037 A 
HETATM    8  C   UNL     1      43.300 -18.800   1.729  1.00  0.00     0.029 A 
HETATM    9  C   UNL     1      44.063 -19.694   2.484  1.00  0.00     0.003 A 
HETATM   10  C   UNL     1      44.407 -19.388   3.800  1.00  0.00     0.016 A 
HETATM   11  C   UNL     1      43.993 -18.179   4.374  1.00  0.00     0.050 A 
HETATM   12  C   UNL     1      43.219 -17.292   3.605  1.00  0.00     0.045 A 
BRANCH  11  13
HETATM   13  C   UNL     1      44.350 -17.855   5.802  1.00  0.00     0.417 C 
HETATM   14  F   UNL     1      44.246 -16.529   6.100  1.00  0.00    -0.166 F 
HETATM   15  F   UNL     1      43.550 -18.500   6.696  1.00  0.00    -0.166 F 
HETATM   16  F   UNL     1      45.627 -18.207   6.121  1.00  0.00    -0.166 F 
ENDBRANCH  11  13
ENDBRANCH   1   7
BRANCH   3  17
HETATM   17  C   UNL     1      40.950 -14.511   0.055  1.00  0.00     0.148 A 
HETATM   18  N   UNL     1      41.500 -13.454   0.700  1.00  0.00    -0.240 NA
HETATM   19  C   UNL     1      42.152 -12.557  -0.083  1.00  0.00     0.138 A 
HETATM   20  C   UNL     1      42.257 -12.701  -1.455  1.00  0.00     0.135 A 
HETATM   21  N   UNL     1      41.714 -13.748  -2.111  1.00  0.00    -0.268 NA
HETATM   22  C   UNL     1      41.062 -14.644  -1.328  1.00  0.00     0.166 A 
ENDBRANCH   3  17
TORSDOF 3
ENDMDL
MODEL 7
REMARK VINA RESULT:      -6.9      3.094      3.853
REMARK  3 active torsions:
REMARK  status: ('A' for Active; 'I' for Inactive)
REMARK    1  A    between atoms: C_3  and  N_4 
REMARK       I    between atoms: N_4  and  C_5 
REMARK       I    between atoms: C_5  and  N_6 
REMARK    2  A    between atoms: N_6  and  C_7 
REMARK    3  A    between atoms: C_15  and  C_16 
ROOT
HETATM    1  N   UNL     1      42.041 -17.070   2.416  1.00  0.00    -0.309 N 
HETATM    2  C   UNL     1      40.999 -17.161   1.539  1.00  0.00     0.326 C 
HETATM    3  N   UNL     1      40.351 -15.994   1.239  1.00  0.00    -0.292 N 
HETATM    4  O   UNL     1      40.592 -18.186   0.996  1.00  0.00    -0.247 OA
HETATM    5  H   UNL     1      42.216 -16.124   2.747  1.00  0.00     0.170 HD
HETATM    6  H   UNL     1      39.594 -16.136   0.586  1.00  0.00     0.172 HD
ENDROOT
BRANCH   1   7
HETATM    7  C   UNL     1      42.877 -18.089   2.902  1.00  0.00     0.037 A 
HETATM    8  C   UNL     1      43.546 -19.006   2.090  1.00  0.00     0.029 A 
HETATM    9  C   UNL     1      44.358 -19.992   2.656  1.00  0.00     0.003 A 
HETATM   10  C   UNL     1      44.512 -20.069   4.039  1.00  0.00     0.016 A 
HETATM   11  C   UNL     1      43.856 -19.155   4.873  1.00  0.00     0.050 A 
HETATM   12  C   UNL     1      43.035 -18.173   4.292  1.00  0.00     0.045 A 
BRANCH  11  13
HETATM   13  C   UNL     1      44.008 -19.248   6.369  1.00  0.00     0.417 C 
HETATM   14  F   UNL     1      45.165 -18.695   6.833  1.00  0.00    -0.166 F 
HETATM   15  F   UNL     1      43.002 -18.615   7.034  1.00  0.00    -0.166 F 
HETATM   16  F   UNL     1      44.005 -20.533   6.822  1.00  0.00    -0.166 F 
ENDBRANCH  11  13
ENDBRANCH   1   7
BRANCH   3  17
HETATM   17  C   UNL     1      40.595 -14.697   1.704  1.00  0.00     0.148 A 
HETATM   18  N   UNL     1      41.781 -14.092   1.451  1.00  0.00    -0.240 NA
HETATM   19  C   UNL     1      41.921 -12.835   1.944  1.00  0.00     0.138 A 
HETATM   20  C   UNL     1      40.923 -12.199   2.661  1.00  0.00     0.135 A 
HETATM   21  N   UNL     1      39.737 -12.789   2.920  1.00  0.00    -0.268 NA
HETATM   22  C   UNL     1      39.598 -14.045   2.427  1.00  0.00     0.166 A 
ENDBRANCH   3  17
TORSDOF 3
ENDMDL
MODEL 8
REMARK VINA RESULT:      -6.8      3.565      4.486
REMARK  3 active torsions:
REMARK  status: ('A' for Active; 'I' for Inactive)
REMARK    1  A    between atoms: C_3  and  N_4 
REMARK       I    between atoms: N_4  and  C_5 
REMARK       I    between atoms: C_5  and  N_6 
REMARK    2  A    between atoms: N_6  and  C_7 
REMARK    3  A    between atoms: C_15  and  C_16 
ROOT
HETATM    1  N   UNL     1      42.466 -14.789   2.729  1.00  0.00    -0.309 N 
HETATM    2  C   UNL     1      43.106 -13.694   3.235  1.00  0.00     0.326 C 
HETATM    3  N   UNL     1      42.363 -12.550   3.340  1.00  0.00    -0.292 N 
HETATM    4  O   UNL     1      44.277 -13.641   3.605  1.00  0.00    -0.247 OA
HETATM    5  H   UNL     1      41.493 -14.619   2.487  1.00  0.00     0.170 HD
HETATM    6  H   UNL     1      42.899 -11.783   3.722  1.00  0.00     0.172 HD
ENDROOT
BRANCH   1   7
HETATM    7  C   UNL     1      42.970 -16.082   2.508  1.00  0.00     0.037 A 
HETATM    8  C   UNL     1      43.117 -16.659   1.246  1.00  0.00     0.029 A 
HETATM    9  C   UNL     1      43.625 -17.954   1.114  1.00  0.00     0.003 A 
HETATM   10  C   UNL     1      43.994 -18.684   2.242  1.00  0.00     0.016 A 
HETATM   11  C   UNL     1      43.862 -18.122   3.519  1.00  0.00     0.050 A 
HETATM   12  C   UNL     1      43.342 -16.822   3.638  1.00  0.00     0.045 A 
BRANCH  11  13
HETATM   13  C   UNL     1      44.245 -18.916   4.741  1.00  0.00     0.417 C 
HETATM   14  F   UNL     1      45.094 -18.253   5.577  1.00  0.00    -0.166 F 
HETATM   15  F   UNL     1      43.166 -19.254   5.500  1.00  0.00    -0.166 F 
HETATM   16  F   UNL     1      44.869 -20.088   4.435  1.00  0.00    -0.166 F 
ENDBRANCH  11  13
ENDBRANCH   1   7
BRANCH   3  17
HETATM   17  C   UNL     1      41.026 -12.324   2.999  1.00  0.00     0.148 A 
HETATM   18  N   UNL     1      40.629 -12.387   1.705  1.00  0.00    -0.240 NA
HETATM   19  C   UNL     1      39.313 -12.152   1.476  1.00  0.00     0.138 A 
HETATM   20  C   UNL     1      38.418 -11.865   2.492  1.00  0.00     0.135 A 
HETATM   21  N   UNL     1      38.798 -11.799   3.786  1.00  0.00    -0.268 NA
HETATM   22  C   UNL     1      40.114 -12.033   4.013  1.00  0.00     0.166 A 
ENDBRANCH   3  17
TORSDOF 3
ENDMDL
MODEL 9
REMARK VINA RESULT:      -6.8      2.742      3.398
REMARK  3 active torsions:
REMARK  status: ('A' for Active; 'I' for Inactive)
REMARK    1  A    between atoms: C_3  and  N_4 
REMARK       I    between atoms: N_4  and  C_5 
REMARK       I    between atoms: C_5  and  N_6 
REMARK    2  A    between atoms: N_6  and  C_7 
REMARK    3  A    between atoms: C_15  and  C_16 
ROOT
HETATM    1  N   UNL     1      41.755 -15.926   0.419  1.00  0.00    -0.309 N 
HETATM    2  C   UNL     1      41.691 -14.564   0.476  1.00  0.00     0.326 C 
HETATM    3  N   UNL     1      40.971 -13.946  -0.509  1.00  0.00    -0.292 N 
HETATM    4  O   UNL     1      42.216 -13.845   1.325  1.00  0.00    -0.247 OA
HETATM    5  H   UNL     1      41.247 -16.328  -0.366  1.00  0.00     0.170 HD
HETATM    6  H   UNL     1      40.966 -12.942  -0.404  1.00  0.00     0.172 HD
ENDROOT
BRANCH   1   7
HETATM    7  C   UNL     1      42.416 -16.816   1.282  1.00  0.00     0.037 A 
HETATM    8  C   UNL     1      43.517 -17.590   0.915  1.00  0.00     0.029 A 
HETATM    9  C   UNL     1      44.115 -18.454   1.836  1.00  0.00     0.003 A 
HETATM   10  C   UNL     1      43.619 -18.550   3.135  1.00  0.00     0.016 A 
HETATM   11  C   UNL     1      42.519 -17.777   3.528  1.00  0.00     0.050 A 
HETATM   12  C   UNL     1      41.921 -16.919   2.589  1.00  0.00     0.045 A 
BRANCH  11  13
HETATM   13  C   UNL     1      41.971 -17.893   4.927  1.00  0.00     0.417 C 
HETATM   14  F   UNL     1      42.540 -18.899   5.652  1.00  0.00    -0.166 F 
HETATM   15  F   UNL     1      42.160 -16.758   5.655  1.00  0.00    -0.166 F 
HETATM   16  F   UNL     1      40.630 -18.134   4.952  1.00  0.00    -0.166 F 
ENDBRANCH  11  13
ENDBRANCH   1   7
BRANCH   3  17
HETATM   17  C   UNL     1      40.279 -14.506  -1.588  1.00  0.00     0.148 A 
HETATM   18  N   UNL     1      40.861 -15.461  -2.353  1.00  0.00    -0.240 NA
HETATM   19  C   UNL     1      40.109 -15.941  -3.376  1.00  0.00     0.138 A 
HETATM   20  C   UNL     1      38.825 -15.492  -3.634  1.00  0.00     0.135 A 
HETATM   21  N   UNL     1      38.232 -14.541  -2.880  1.00  0.00    -0.268 NA
HETATM   22  C   UNL     1      38.985 -14.063  -1.859  1.00  0.00     0.166 A 
ENDBRANCH   3  17
TORSDOF 3
ENDMDL
MODEL 10
REMARK VINA RESULT:      -6.8      4.179      5.034
REMARK  3 active torsions:
REMARK  status: ('A' for Active; 'I' for Inactive)
REMARK    1  A    between atoms: C_3  and  N_4 
REMARK       I    between atoms: N_4  and  C_5 
REMARK       I    between atoms: C_5  and  N_6 
REMARK    2  A    between atoms: N_6  and  C_7 
REMARK    3  A    between atoms: C_15  and  C_16 
ROOT
HETATM    1  N   UNL     1      42.744 -14.921   4.543  1.00  0.00    -0.309 N 
HETATM    2  C   UNL     1      43.324 -13.812   3.997  1.00  0.00     0.326 C 
HETATM    3  N   UNL     1      42.579 -12.665   4.015  1.00  0.00    -0.292 N 
HETATM    4  O   UNL     1      44.445 -13.748   3.497  1.00  0.00    -0.247 OA
HETATM    5  H   UNL     1      41.808 -14.757   4.907  1.00  0.00     0.170 HD
HETATM    6  H   UNL     1      43.069 -11.887   3.597  1.00  0.00     0.172 HD
ENDROOT
BRANCH   1   7
HETATM    7  C   UNL     1      43.264 -16.221   4.661  1.00  0.00     0.037 A 
HETATM    8  C   UNL     1      43.764 -16.758   5.848  1.00  0.00     0.029 A 
HETATM    9  C   UNL     1      44.266 -18.062   5.880  1.00  0.00     0.003 A 
HETATM   10  C   UNL     1      44.270 -18.842   4.725  1.00  0.00     0.016 A 
HETATM   11  C   UNL     1      43.767 -18.326   3.524  1.00  0.00     0.050 A 
HETATM   12  C   UNL     1      43.272 -17.011   3.504  1.00  0.00     0.045 A 
BRANCH  11  13
HETATM   13  C   UNL     1      43.786 -19.163   2.271  1.00  0.00     0.417 C 
HETATM   14  F   UNL     1      44.761 -20.117   2.269  1.00  0.00    -0.166 F 
HETATM   15  F   UNL     1      42.615 -19.831   2.074  1.00  0.00    -0.166 F 
HETATM   16  F   UNL     1      43.990 -18.425   1.145  1.00  0.00    -0.166 F 
ENDBRANCH  11  13
ENDBRANCH   1   7
BRANCH   3  17
HETATM   17  C   UNL     1      41.290 -12.449   4.513  1.00  0.00     0.148 A 
HETATM   18  N   UNL     1      41.026 -12.627   5.830  1.00  0.00    -0.240 NA
HETATM   19  C   UNL     1      39.746 -12.394   6.215  1.00  0.00     0.138 A 
HETATM   20  C   UNL     1      38.760 -11.997   5.328  1.00  0.00     0.135 A 
HETATM   21  N   UNL     1      39.007 -11.815   4.014  1.00  0.00    -0.268 NA
HETATM   22  C   UNL     1      40.287 -12.049   3.630  1.00  0.00     0.166 A 
ENDBRANCH   3  17
TORSDOF 3
ENDMDL
