MODEL 1
REMARK VINA RESULT:      -8.8      0.000      0.000
REMARK  9 active torsions:
REMARK  status: ('A' for Active; 'I' for Inactive)
REMARK    1  A    between atoms: C_4  and  N_5 
REMARK       I    between atoms: N_5  and  C_6 
REMARK    2  A    between atoms: C_6  and  C_7 
REMARK    3  A    between atoms: C_7  and  N_8 
REMARK       I    between atoms: N_8  and  C_9 
REMARK    4  A    between atoms: C_9  and  C_10 
REMARK    5  A    between atoms: C_10  and  O_11 
REMARK    6  A    between atoms: O_11  and  C_12 
REMARK    7  A    between atoms: C_12  and  C_13 
REMARK    8  A    between atoms: C_17  and  C_18 
REMARK    9  A    between atoms: C_27  and  O_28 
ROOT
HETATM    1  N   UNL     1      43.902 -13.487   7.323  1.00  0.00    -0.350 N 
HETATM    2  C   UNL     1      43.818 -14.695   6.660  1.00  0.00     0.242 C 
HETATM    3  O   UNL     1      44.650 -15.590   6.775  1.00  0.00    -0.271 OA
HETATM    4  H   UNL     1      43.322 -12.735   6.951  1.00  0.00     0.163 HD
ENDROOT
BRANCH   2   5
HETATM    5  C   UNL     1      42.587 -14.836   5.762  1.00  0.00     0.281 C 
BRANCH   5   6
HETATM    6  O   UNL     1      42.414 -13.742   4.864  1.00  0.00    -0.308 OA
BRANCH   6   7
HETATM    7  C   UNL     1      42.607 -14.026   3.546  1.00  0.00     0.301 C 
HETATM    8  O   UNL     1      43.669 -13.820   2.961  1.00  0.00    -0.259 OA
BRANCH   7   9
HETATM    9  C   UNL     1      41.414 -14.622   2.981  1.00  0.00     0.091 A 
HETATM   10  S   UNL     1      40.005 -13.641   2.889  1.00  0.00    -0.095 SA
HETATM   11  C   UNL     1      39.115 -14.857   2.090  1.00  0.00     0.051 A 
HETATM   12  C   UNL     1      39.849 -16.010   1.937  1.00  0.00     0.021 A 
HETATM   13  C   UNL     1      41.177 -15.895   2.471  1.00  0.00    -0.002 A 
BRANCH  13  14
HETATM   14  C   UNL     1      42.156 -16.975   2.508  1.00  0.00    -0.024 A 
HETATM   15  C   UNL     1      42.285 -17.764   3.657  1.00  0.00     0.012 A 
HETATM   16  C   UNL     1      43.241 -18.781   3.708  1.00  0.00     0.001 A 
HETATM   17  C   UNL     1      44.073 -19.013   2.614  1.00  0.00     0.000 A 
HETATM   18  C   UNL     1      43.955 -18.227   1.468  1.00  0.00     0.001 A 
HETATM   19  C   UNL     1      43.004 -17.206   1.416  1.00  0.00     0.012 A 
ENDBRANCH  13  14
ENDBRANCH   7   9
ENDBRANCH   6   7
ENDBRANCH   5   6
ENDBRANCH   2   5
BRANCH   1  20
HETATM   20  C   UNL     1      45.102 -13.126   8.063  1.00  0.00     0.225 C 
BRANCH  20  21
HETATM   21  C   UNL     1      44.895 -11.856   8.898  1.00  0.00     0.239 C 
HETATM   22  N   UNL     1      43.697 -11.861   9.588  1.00  0.00    -0.323 N 
HETATM   23  H   UNL     1      43.153 -12.718   9.608  1.00  0.00     0.169 HD
HETATM   24  O   UNL     1      45.784 -11.017   9.015  1.00  0.00    -0.271 OA
BRANCH  22  25
HETATM   25  C   UNL     1      43.157 -10.837  10.396  1.00  0.00     0.069 A 
HETATM   26  C   UNL     1      43.564 -10.610  11.713  1.00  0.00     0.039 A 
HETATM   27  C   UNL     1      43.040  -9.536  12.445  1.00  0.00    -0.060 A 
HETATM   28  C   UNL     1      43.478  -9.304  13.861  1.00  0.00     0.048 C 
HETATM   29  C   UNL     1      42.075  -8.713  11.856  1.00  0.00     0.009 A 
HETATM   30  C   UNL     1      41.656  -8.937  10.542  1.00  0.00     0.039 A 
HETATM   31  C   UNL     1      42.193  -9.994   9.804  1.00  0.00     0.095 A 
BRANCH  31  32
HETATM   32  O   UNL     1      41.853 -10.303   8.506  1.00  0.00    -0.354 OA
HETATM   33  C   UNL     1      40.489 -10.624   8.261  1.00  0.00     0.210 C 
ENDBRANCH  31  32
ENDBRANCH  22  25
ENDBRANCH  20  21
ENDBRANCH   1  20
TORSDOF 9
ENDMDL
MODEL 2
REMARK VINA RESULT:      -8.7      1.764      3.143
REMARK  9 active torsions:
REMARK  status: ('A' for Active; 'I' for Inactive)
REMARK    1  A    between atoms: C_4  and  N_5 
REMARK       I    between atoms: N_5  and  C_6 
REMARK    2  A    between atoms: C_6  and  C_7 
REMARK    3  A    between atoms: C_7  and  N_8 
REMARK       I    between atoms: N_8  and  C_9 
REMARK    4  A    between atoms: C_9  and  C_10 
REMARK    5  A    between atoms: C_10  and  O_11 
REMARK    6  A    between atoms: O_11  and  C_12 
REMARK    7  A    between atoms: C_12  and  C_13 
REMARK    8  A    between atoms: C_17  and  C_18 
REMARK    9  A    between atoms: C_27  and  O_28 
ROOT
HETATM    1  N   UNL     1      41.699 -13.030   6.444  1.00  0.00    -0.350 N 
HETATM    2  C   UNL     1      42.415 -13.907   5.655  1.00  0.00     0.242 C 
HETATM    3  O   UNL     1      43.153 -13.550   4.742  1.00  0.00    -0.271 OA
HETATM    4  H   UNL     1      40.928 -13.436   6.973  1.00  0.00     0.163 HD
ENDROOT
BRANCH   2   5
HETATM    5  C   UNL     1      42.220 -15.382   6.017  1.00  0.00     0.281 C 
BRANCH   5   6
HETATM    6  O   UNL     1      42.878 -16.275   5.122  1.00  0.00    -0.308 OA
BRANCH   6   7
HETATM    7  C   UNL     1      42.072 -17.159   4.471  1.00  0.00     0.301 C 
HETATM    8  O   UNL     1      41.253 -17.873   5.045  1.00  0.00    -0.259 OA
BRANCH   7   9
HETATM    9  C   UNL     1      42.303 -17.089   3.042  1.00  0.00     0.091 A 
HETATM   10  S   UNL     1      41.632 -15.752   2.195  1.00  0.00    -0.095 SA
HETATM   11  C   UNL     1      42.339 -16.232   0.720  1.00  0.00     0.051 A 
HETATM   12  C   UNL     1      43.032 -17.414   0.846  1.00  0.00     0.021 A 
HETATM   13  C   UNL     1      42.998 -17.934   2.183  1.00  0.00    -0.002 A 
BRANCH  13  14
HETATM   14  C   UNL     1      43.590 -19.201   2.599  1.00  0.00    -0.024 A 
HETATM   15  C   UNL     1      43.416 -20.346   1.812  1.00  0.00     0.012 A 
HETATM   16  C   UNL     1      43.957 -21.568   2.221  1.00  0.00     0.001 A 
HETATM   17  C   UNL     1      44.669 -21.651   3.415  1.00  0.00     0.000 A 
HETATM   18  C   UNL     1      44.840 -20.517   4.208  1.00  0.00     0.001 A 
HETATM   19  C   UNL     1      44.297 -19.295   3.805  1.00  0.00     0.012 A 
ENDBRANCH  13  14
ENDBRANCH   7   9
ENDBRANCH   6   7
ENDBRANCH   5   6
ENDBRANCH   2   5
BRANCH   1  20
HETATM   20  C   UNL     1      41.629 -11.615   6.108  1.00  0.00     0.225 C 
BRANCH  20  21
HETATM   21  C   UNL     1      41.961 -10.728   7.315  1.00  0.00     0.239 C 
HETATM   22  N   UNL     1      42.477 -11.445   8.379  1.00  0.00    -0.323 N 
HETATM   23  H   UNL     1      42.724 -12.419   8.232  1.00  0.00     0.169 HD
HETATM   24  O   UNL     1      41.887  -9.504   7.247  1.00  0.00    -0.271 OA
BRANCH  22  25
HETATM   25  C   UNL     1      42.830 -10.966   9.659  1.00  0.00     0.069 A 
HETATM   26  C   UNL     1      41.890 -10.676  10.651  1.00  0.00     0.039 A 
HETATM   27  C   UNL     1      42.304 -10.266  11.926  1.00  0.00    -0.060 A 
HETATM   28  C   UNL     1      41.288  -9.951  12.983  1.00  0.00     0.048 C 
HETATM   29  C   UNL     1      43.670 -10.112  12.185  1.00  0.00     0.009 A 
HETATM   30  C   UNL     1      44.616 -10.392  11.196  1.00  0.00     0.039 A 
HETATM   31  C   UNL     1      44.206 -10.821   9.932  1.00  0.00     0.095 A 
BRANCH  31  32
HETATM   32  O   UNL     1      45.052 -11.125   8.889  1.00  0.00    -0.354 OA
HETATM   33  C   UNL     1      45.838 -12.303   9.024  1.00  0.00     0.210 C 
ENDBRANCH  31  32
ENDBRANCH  22  25
ENDBRANCH  20  21
ENDBRANCH   1  20
TORSDOF 9
ENDMDL
MODEL 3
REMARK VINA RESULT:      -8.6      2.439      3.873
REMARK  9 active torsions:
REMARK  status: ('A' for Active; 'I' for Inactive)
REMARK    1  A    between atoms: C_4  and  N_5 
REMARK       I    between atoms: N_5  and  C_6 
REMARK    2  A    between atoms: C_6  and  C_7 
REMARK    3  A    between atoms: C_7  and  N_8 
REMARK       I    between atoms: N_8  and  C_9 
REMARK    4  A    between atoms: C_9  and  C_10 
REMARK    5  A    between atoms: C_10  and  O_11 
REMARK    6  A    between atoms: O_11  and  C_12 
REMARK    7  A    between atoms: C_12  and  C_13 
REMARK    8  A    between atoms: C_17  and  C_18 
REMARK    9  A    between atoms: C_27  and  O_28 
ROOT
HETATM    1  N   UNL     1      41.725 -12.430   6.290  1.00  0.00    -0.350 N 
HETATM    2  C   UNL     1      41.101 -13.475   5.638  1.00  0.00     0.242 C 
HETATM    3  O   UNL     1      39.999 -13.381   5.107  1.00  0.00    -0.271 OA
HETATM    4  H   UNL     1      42.489 -12.689   6.914  1.00  0.00     0.163 HD
ENDROOT
BRANCH   2   5
HETATM    5  C   UNL     1      41.905 -14.777   5.623  1.00  0.00     0.281 C 
BRANCH   5   6
HETATM    6  O   UNL     1      41.304 -15.821   6.386  1.00  0.00    -0.308 OA
BRANCH   6   7
HETATM    7  C   UNL     1      41.489 -17.083   5.908  1.00  0.00     0.301 C 
HETATM    8  O   UNL     1      40.622 -17.708   5.300  1.00  0.00    -0.259 OA
BRANCH   7   9
HETATM    9  C   UNL     1      42.838 -17.533   6.188  1.00  0.00     0.091 A 
HETATM   10  S   UNL     1      43.349 -17.530   7.830  1.00  0.00    -0.095 SA
HETATM   11  C   UNL     1      44.858 -18.223   7.443  1.00  0.00     0.051 A 
HETATM   12  C   UNL     1      45.002 -18.409   6.087  1.00  0.00     0.021 A 
HETATM   13  C   UNL     1      43.846 -17.990   5.346  1.00  0.00    -0.002 A 
BRANCH  13  14
HETATM   14  C   UNL     1      43.738 -18.009   3.892  1.00  0.00    -0.024 A 
HETATM   15  C   UNL     1      43.610 -19.228   3.215  1.00  0.00     0.012 A 
HETATM   16  C   UNL     1      43.535 -19.253   1.820  1.00  0.00     0.001 A 
HETATM   17  C   UNL     1      43.590 -18.064   1.096  1.00  0.00     0.000 A 
HETATM   18  C   UNL     1      43.726 -16.847   1.762  1.00  0.00     0.001 A 
HETATM   19  C   UNL     1      43.806 -16.818   3.156  1.00  0.00     0.012 A 
ENDBRANCH  13  14
ENDBRANCH   7   9
ENDBRANCH   6   7
ENDBRANCH   5   6
ENDBRANCH   2   5
BRANCH   1  20
HETATM   20  C   UNL     1      41.014 -11.188   6.554  1.00  0.00     0.225 C 
BRANCH  20  21
HETATM   21  C   UNL     1      41.637 -10.414   7.723  1.00  0.00     0.239 C 
HETATM   22  N   UNL     1      41.982 -11.234   8.782  1.00  0.00    -0.323 N 
HETATM   23  H   UNL     1      41.940 -12.240   8.649  1.00  0.00     0.169 HD
HETATM   24  O   UNL     1      41.904  -9.220   7.627  1.00  0.00    -0.271 OA
BRANCH  22  25
HETATM   25  C   UNL     1      42.515 -10.857  10.033  1.00  0.00     0.069 A 
HETATM   26  C   UNL     1      41.722 -10.605  11.156  1.00  0.00     0.039 A 
HETATM   27  C   UNL     1      42.312 -10.299  12.390  1.00  0.00    -0.060 A 
HETATM   28  C   UNL     1      41.452 -10.023  13.588  1.00  0.00     0.048 C 
HETATM   29  C   UNL     1      43.705 -10.211  12.479  1.00  0.00     0.009 A 
HETATM   30  C   UNL     1      44.505 -10.454  11.360  1.00  0.00     0.039 A 
HETATM   31  C   UNL     1      43.920 -10.780  10.135  1.00  0.00     0.095 A 
BRANCH  31  32
HETATM   32  O   UNL     1      44.612 -11.039   8.973  1.00  0.00    -0.354 OA
HETATM   33  C   UNL     1      45.559 -12.100   9.017  1.00  0.00     0.210 C 
ENDBRANCH  31  32
ENDBRANCH  22  25
ENDBRANCH  20  21
ENDBRANCH   1  20
TORSDOF 9
ENDMDL
MODEL 4
REMARK VINA RESULT:      -8.3      2.127      3.655
REMARK  9 active torsions:
REMARK  status: ('A' for Active; 'I' for Inactive)
REMARK    1  A    between atoms: C_4  and  N_5 
REMARK       I    between atoms: N_5  and  C_6 
REMARK    2  A    between atoms: C_6  and  C_7 
REMARK    3  A    between atoms: C_7  and  N_8 
REMARK       I    between atoms: N_8  and  C_9 
REMARK    4  A    between atoms: C_9  and  C_10 
REMARK    5  A    between atoms: C_10  and  O_11 
REMARK    6  A    between atoms: O_11  and  C_12 
REMARK    7  A    between atoms: C_12  and  C_13 
REMARK    8  A    between atoms: C_17  and  C_18 
REMARK    9  A    between atoms: C_27  and  O_28 
ROOT
HETATM    1  N   UNL     1      40.234 -12.128   7.171  1.00  0.00    -0.350 N 
HETATM    2  C   UNL     1      39.792 -12.436   5.900  1.00  0.00     0.242 C 
HETATM    3  O   UNL     1      38.707 -12.075   5.455  1.00  0.00    -0.271 OA
HETATM    4  H   UNL     1      41.005 -12.695   7.522  1.00  0.00     0.163 HD
ENDROOT
BRANCH   2   5
HETATM    5  C   UNL     1      40.776 -13.269   5.076  1.00  0.00     0.281 C 
BRANCH   5   6
HETATM    6  O   UNL     1      42.142 -12.989   5.373  1.00  0.00    -0.308 OA
BRANCH   6   7
HETATM    7  C   UNL     1      43.058 -13.642   4.606  1.00  0.00     0.301 C 
HETATM    8  O   UNL     1      43.520 -13.178   3.566  1.00  0.00    -0.259 OA
BRANCH   7   9
HETATM    9  C   UNL     1      43.413 -14.908   5.218  1.00  0.00     0.091 A 
HETATM   10  S   UNL     1      44.172 -14.857   6.760  1.00  0.00    -0.095 SA
HETATM   11  C   UNL     1      44.192 -16.557   6.892  1.00  0.00     0.051 A 
HETATM   12  C   UNL     1      43.682 -17.163   5.768  1.00  0.00     0.021 A 
HETATM   13  C   UNL     1      43.249 -16.217   4.779  1.00  0.00    -0.002 A 
BRANCH  13  14
HETATM   14  C   UNL     1      42.725 -16.569   3.463  1.00  0.00    -0.024 A 
HETATM   15  C   UNL     1      41.347 -16.727   3.277  1.00  0.00     0.012 A 
HETATM   16  C   UNL     1      40.843 -17.092   2.026  1.00  0.00     0.001 A 
HETATM   17  C   UNL     1      41.713 -17.302   0.958  1.00  0.00     0.000 A 
HETATM   18  C   UNL     1      43.088 -17.154   1.137  1.00  0.00     0.001 A 
HETATM   19  C   UNL     1      43.595 -16.795   2.387  1.00  0.00     0.012 A 
ENDBRANCH  13  14
ENDBRANCH   7   9
ENDBRANCH   6   7
ENDBRANCH   5   6
ENDBRANCH   2   5
BRANCH   1  20
HETATM   20  C   UNL     1      39.342 -11.507   8.139  1.00  0.00     0.225 C 
BRANCH  20  21
HETATM   21  C   UNL     1      40.105 -10.608   9.120  1.00  0.00     0.239 C 
HETATM   22  N   UNL     1      40.987 -11.315   9.916  1.00  0.00    -0.323 N 
HETATM   23  H   UNL     1      41.162 -12.290   9.698  1.00  0.00     0.169 HD
HETATM   24  O   UNL     1      40.007  -9.385   9.072  1.00  0.00    -0.271 OA
BRANCH  22  25
HETATM   25  C   UNL     1      41.798 -10.822  10.961  1.00  0.00     0.069 A 
HETATM   26  C   UNL     1      41.345 -10.673  12.275  1.00  0.00     0.039 A 
HETATM   27  C   UNL     1      42.216 -10.242  13.284  1.00  0.00    -0.060 A 
HETATM   28  C   UNL     1      41.718 -10.079  14.690  1.00  0.00     0.048 C 
HETATM   29  C   UNL     1      43.538  -9.924  12.957  1.00  0.00     0.009 A 
HETATM   30  C   UNL     1      43.998 -10.062  11.645  1.00  0.00     0.039 A 
HETATM   31  C   UNL     1      43.137 -10.512  10.642  1.00  0.00     0.095 A 
BRANCH  31  32
HETATM   32  O   UNL     1      43.486 -10.685   9.321  1.00  0.00    -0.354 OA
HETATM   33  C   UNL     1      44.440 -11.702   9.040  1.00  0.00     0.210 C 
ENDBRANCH  31  32
ENDBRANCH  22  25
ENDBRANCH  20  21
ENDBRANCH   1  20
TORSDOF 9
ENDMDL
MODEL 5
REMARK VINA RESULT:      -8.3      2.598     10.002
REMARK  9 active torsions:
REMARK  status: ('A' for Active; 'I' for Inactive)
REMARK    1  A    between atoms: C_4  and  N_5 
REMARK       I    between atoms: N_5  and  C_6 
REMARK    2  A    between atoms: C_6  and  C_7 
REMARK    3  A    between atoms: C_7  and  N_8 
REMARK       I    between atoms: N_8  and  C_9 
REMARK    4  A    between atoms: C_9  and  C_10 
REMARK    5  A    between atoms: C_10  and  O_11 
REMARK    6  A    between atoms: O_11  and  C_12 
REMARK    7  A    between atoms: C_12  and  C_13 
REMARK    8  A    between atoms: C_17  and  C_18 
REMARK    9  A    between atoms: C_27  and  O_28 
ROOT
HETATM    1  N   UNL     1      41.447 -12.612   6.380  1.00  0.00    -0.350 N 
HETATM    2  C   UNL     1      41.155 -11.263   6.375  1.00  0.00     0.242 C 
HETATM    3  O   UNL     1      41.353 -10.530   5.411  1.00  0.00    -0.271 OA
HETATM    4  H   UNL     1      41.499 -13.051   7.298  1.00  0.00     0.163 HD
ENDROOT
BRANCH   2   5
HETATM    5  C   UNL     1      40.553 -10.744   7.683  1.00  0.00     0.281 C 
BRANCH   5   6
HETATM    6  O   UNL     1      41.514 -10.154   8.554  1.00  0.00    -0.308 OA
BRANCH   6   7
HETATM    7  C   UNL     1      41.660 -10.756   9.767  1.00  0.00     0.301 C 
HETATM    8  O   UNL     1      40.711 -11.101  10.467  1.00  0.00    -0.259 OA
BRANCH   7   9
HETATM    9  C   UNL     1      43.065 -10.950  10.064  1.00  0.00     0.091 A 
HETATM   10  S   UNL     1      44.016 -11.777   8.895  1.00  0.00    -0.095 SA
HETATM   11  C   UNL     1      45.450 -11.556   9.790  1.00  0.00     0.051 A 
HETATM   12  C   UNL     1      45.214 -10.913  10.982  1.00  0.00     0.021 A 
HETATM   13  C   UNL     1      43.831 -10.577  11.164  1.00  0.00    -0.002 A 
BRANCH  13  14
HETATM   14  C   UNL     1      43.276  -9.949  12.359  1.00  0.00    -0.024 A 
HETATM   15  C   UNL     1      42.887 -10.738  13.447  1.00  0.00     0.012 A 
HETATM   16  C   UNL     1      42.329 -10.143  14.582  1.00  0.00     0.001 A 
HETATM   17  C   UNL     1      42.156  -8.761  14.633  1.00  0.00     0.000 A 
HETATM   18  C   UNL     1      42.534  -7.970  13.550  1.00  0.00     0.001 A 
HETATM   19  C   UNL     1      43.087  -8.561  12.412  1.00  0.00     0.012 A 
ENDBRANCH  13  14
ENDBRANCH   7   9
ENDBRANCH   6   7
ENDBRANCH   5   6
ENDBRANCH   2   5
BRANCH   1  20
HETATM   20  C   UNL     1      42.195 -13.215   5.287  1.00  0.00     0.225 C 
BRANCH  20  21
HETATM   21  C   UNL     1      42.095 -14.746   5.306  1.00  0.00     0.239 C 
HETATM   22  N   UNL     1      43.267 -15.361   4.906  1.00  0.00    -0.323 N 
HETATM   23  H   UNL     1      44.098 -14.790   4.786  1.00  0.00     0.169 HD
HETATM   24  O   UNL     1      41.109 -15.315   5.765  1.00  0.00    -0.271 OA
BRANCH  22  25
HETATM   25  C   UNL     1      43.510 -16.743   4.746  1.00  0.00     0.069 A 
HETATM   26  C   UNL     1      43.340 -17.412   3.531  1.00  0.00     0.039 A 
HETATM   27  C   UNL     1      43.662 -18.771   3.416  1.00  0.00    -0.060 A 
HETATM   28  C   UNL     1      43.469 -19.483   2.109  1.00  0.00     0.048 C 
HETATM   29  C   UNL     1      44.120 -19.463   4.541  1.00  0.00     0.009 A 
HETATM   30  C   UNL     1      44.286 -18.804   5.762  1.00  0.00     0.039 A 
HETATM   31  C   UNL     1      43.987 -17.445   5.873  1.00  0.00     0.095 A 
BRANCH  31  32
HETATM   32  O   UNL     1      44.115 -16.700   7.024  1.00  0.00    -0.354 OA
HETATM   33  C   UNL     1      43.354 -17.124   8.148  1.00  0.00     0.210 C 
ENDBRANCH  31  32
ENDBRANCH  22  25
ENDBRANCH  20  21
ENDBRANCH   1  20
TORSDOF 9
ENDMDL
MODEL 6
REMARK VINA RESULT:      -8.3      4.810      7.695
REMARK  9 active torsions:
REMARK  status: ('A' for Active; 'I' for Inactive)
REMARK    1  A    between atoms: C_4  and  N_5 
REMARK       I    between atoms: N_5  and  C_6 
REMARK    2  A    between atoms: C_6  and  C_7 
REMARK    3  A    between atoms: C_7  and  N_8 
REMARK       I    between atoms: N_8  and  C_9 
REMARK    4  A    between atoms: C_9  and  C_10 
REMARK    5  A    between atoms: C_10  and  O_11 
REMARK    6  A    between atoms: O_11  and  C_12 
REMARK    7  A    between atoms: C_12  and  C_13 
REMARK    8  A    between atoms: C_17  and  C_18 
REMARK    9  A    between atoms: C_27  and  O_28 
ROOT
HETATM    1  N   UNL     1      41.867 -13.913   4.355  1.00  0.00    -0.350 N 
HETATM    2  C   UNL     1      42.723 -13.474   3.365  1.00  0.00     0.242 C 
HETATM    3  O   UNL     1      43.907 -13.790   3.304  1.00  0.00    -0.271 OA
HETATM    4  H   UNL     1      41.003 -13.382   4.462  1.00  0.00     0.163 HD
ENDROOT
BRANCH   2   5
HETATM    5  C   UNL     1      42.070 -12.554   2.331  1.00  0.00     0.281 C 
BRANCH   5   6
HETATM    6  O   UNL     1      42.643 -12.669   1.030  1.00  0.00    -0.308 OA
BRANCH   6   7
HETATM    7  C   UNL     1      42.011 -11.974   0.044  1.00  0.00     0.301 C 
HETATM    8  O   UNL     1      41.771 -10.771   0.115  1.00  0.00    -0.259 OA
BRANCH   7   9
HETATM    9  C   UNL     1      41.716 -12.846  -1.075  1.00  0.00     0.091 A 
HETATM   10  S   UNL     1      42.005 -12.234  -2.655  1.00  0.00    -0.095 SA
HETATM   11  C   UNL     1      41.577 -13.711  -3.391  1.00  0.00     0.051 A 
HETATM   12  C   UNL     1      41.170 -14.644  -2.466  1.00  0.00     0.021 A 
HETATM   13  C   UNL     1      41.223 -14.146  -1.120  1.00  0.00    -0.002 A 
BRANCH  13  14
HETATM   14  C   UNL     1      40.792 -14.889   0.059  1.00  0.00    -0.024 A 
HETATM   15  C   UNL     1      41.542 -15.980   0.513  1.00  0.00     0.012 A 
HETATM   16  C   UNL     1      41.118 -16.711   1.625  1.00  0.00     0.001 A 
HETATM   17  C   UNL     1      39.943 -16.358   2.286  1.00  0.00     0.000 A 
HETATM   18  C   UNL     1      39.186 -15.278   1.836  1.00  0.00     0.001 A 
HETATM   19  C   UNL     1      39.605 -14.547   0.721  1.00  0.00     0.012 A 
ENDBRANCH  13  14
ENDBRANCH   7   9
ENDBRANCH   6   7
ENDBRANCH   5   6
ENDBRANCH   2   5
BRANCH   1  20
HETATM   20  C   UNL     1      42.376 -14.637   5.511  1.00  0.00     0.225 C 
BRANCH  20  21
HETATM   21  C   UNL     1      42.341 -16.155   5.292  1.00  0.00     0.239 C 
HETATM   22  N   UNL     1      43.570 -16.668   4.918  1.00  0.00    -0.323 N 
HETATM   23  H   UNL     1      44.382 -16.062   4.966  1.00  0.00     0.169 HD
HETATM   24  O   UNL     1      41.342 -16.816   5.562  1.00  0.00    -0.271 OA
BRANCH  22  25
HETATM   25  C   UNL     1      43.886 -18.001   4.577  1.00  0.00     0.069 A 
HETATM   26  C   UNL     1      43.564 -18.570   3.343  1.00  0.00     0.039 A 
HETATM   27  C   UNL     1      43.963 -19.878   3.036  1.00  0.00    -0.060 A 
HETATM   28  C   UNL     1      43.606 -20.482   1.710  1.00  0.00     0.048 C 
HETATM   29  C   UNL     1      44.655 -20.624   3.994  1.00  0.00     0.009 A 
HETATM   30  C   UNL     1      44.975 -20.066   5.235  1.00  0.00     0.039 A 
HETATM   31  C   UNL     1      44.597 -18.756   5.534  1.00  0.00     0.095 A 
BRANCH  31  32
HETATM   32  O   UNL     1      44.861 -18.110   6.721  1.00  0.00    -0.354 OA
HETATM   33  C   UNL     1      44.105 -18.521   7.854  1.00  0.00     0.210 C 
ENDBRANCH  31  32
ENDBRANCH  22  25
ENDBRANCH  20  21
ENDBRANCH   1  20
TORSDOF 9
ENDMDL
MODEL 7
REMARK VINA RESULT:      -8.2      2.995      8.747
REMARK  9 active torsions:
REMARK  status: ('A' for Active; 'I' for Inactive)
REMARK    1  A    between atoms: C_4  and  N_5 
REMARK       I    between atoms: N_5  and  C_6 
REMARK    2  A    between atoms: C_6  and  C_7 
REMARK    3  A    between atoms: C_7  and  N_8 
REMARK       I    between atoms: N_8  and  C_9 
REMARK    4  A    between atoms: C_9  and  C_10 
REMARK    5  A    between atoms: C_10  and  O_11 
REMARK    6  A    between atoms: O_11  and  C_12 
REMARK    7  A    between atoms: C_12  and  C_13 
REMARK    8  A    between atoms: C_17  and  C_18 
REMARK    9  A    between atoms: C_27  and  O_28 
ROOT
HETATM    1  N   UNL     1      40.747 -13.435   6.241  1.00  0.00    -0.350 N 
HETATM    2  C   UNL     1      40.697 -12.122   5.817  1.00  0.00     0.242 C 
HETATM    3  O   UNL     1      39.979 -11.732   4.903  1.00  0.00    -0.271 OA
HETATM    4  H   UNL     1      41.558 -13.690   6.804  1.00  0.00     0.163 HD
ENDROOT
BRANCH   2   5
HETATM    5  C   UNL     1      41.617 -11.176   6.592  1.00  0.00     0.281 C 
BRANCH   5   6
HETATM    6  O   UNL     1      41.452 -11.258   8.006  1.00  0.00    -0.308 OA
BRANCH   6   7
HETATM    7  C   UNL     1      42.038 -10.262   8.727  1.00  0.00     0.301 C 
HETATM    8  O   UNL     1      42.098  -9.097   8.342  1.00  0.00    -0.259 OA
BRANCH   7   9
HETATM    9  C   UNL     1      42.523 -10.778   9.992  1.00  0.00     0.091 A 
HETATM   10  S   UNL     1      41.591 -10.439  11.396  1.00  0.00    -0.095 SA
HETATM   11  C   UNL     1      42.615 -11.367  12.395  1.00  0.00     0.051 A 
HETATM   12  C   UNL     1      43.678 -11.887  11.694  1.00  0.00     0.021 A 
HETATM   13  C   UNL     1      43.649 -11.532  10.303  1.00  0.00    -0.002 A 
BRANCH  13  14
HETATM   14  C   UNL     1      44.679 -11.887   9.333  1.00  0.00    -0.024 A 
HETATM   15  C   UNL     1      44.476 -12.961   8.458  1.00  0.00     0.012 A 
HETATM   16  C   UNL     1      45.470 -13.323   7.546  1.00  0.00     0.001 A 
HETATM   17  C   UNL     1      46.671 -12.617   7.506  1.00  0.00     0.000 A 
HETATM   18  C   UNL     1      46.884 -11.551   8.379  1.00  0.00     0.001 A 
HETATM   19  C   UNL     1      45.894 -11.190   9.295  1.00  0.00     0.012 A 
ENDBRANCH  13  14
ENDBRANCH   7   9
ENDBRANCH   6   7
ENDBRANCH   5   6
ENDBRANCH   2   5
BRANCH   1  20
HETATM   20  C   UNL     1      40.078 -14.485   5.487  1.00  0.00     0.225 C 
BRANCH  20  21
HETATM   21  C   UNL     1      40.772 -15.842   5.664  1.00  0.00     0.239 C 
HETATM   22  N   UNL     1      41.971 -15.922   4.979  1.00  0.00    -0.323 N 
HETATM   23  H   UNL     1      42.349 -15.076   4.565  1.00  0.00     0.169 HD
HETATM   24  O   UNL     1      40.338 -16.683   6.447  1.00  0.00    -0.271 OA
BRANCH  22  25
HETATM   25  C   UNL     1      42.835 -17.033   4.869  1.00  0.00     0.069 A 
HETATM   26  C   UNL     1      42.855 -17.877   3.756  1.00  0.00     0.039 A 
HETATM   27  C   UNL     1      43.781 -18.925   3.674  1.00  0.00    -0.060 A 
HETATM   28  C   UNL     1      43.790 -19.830   2.478  1.00  0.00     0.048 C 
HETATM   29  C   UNL     1      44.663 -19.143   4.737  1.00  0.00     0.009 A 
HETATM   30  C   UNL     1      44.646 -18.309   5.858  1.00  0.00     0.039 A 
HETATM   31  C   UNL     1      43.738 -17.251   5.931  1.00  0.00     0.095 A 
BRANCH  31  32
HETATM   32  O   UNL     1      43.635 -16.370   6.985  1.00  0.00    -0.354 OA
HETATM   33  C   UNL     1      43.413 -16.935   8.271  1.00  0.00     0.210 C 
ENDBRANCH  31  32
ENDBRANCH  22  25
ENDBRANCH  20  21
ENDBRANCH   1  20
TORSDOF 9
ENDMDL
MODEL 8
REMARK VINA RESULT:      -8.2      2.305      3.213
REMARK  9 active torsions:
REMARK  status: ('A' for Active; 'I' for Inactive)
REMARK    1  A    between atoms: C_4  and  N_5 
REMARK       I    between atoms: N_5  and  C_6 
REMARK    2  A    between atoms: C_6  and  C_7 
REMARK    3  A    between atoms: C_7  and  N_8 
REMARK       I    between atoms: N_8  and  C_9 
REMARK    4  A    between atoms: C_9  and  C_10 
REMARK    5  A    between atoms: C_10  and  O_11 
REMARK    6  A    between atoms: O_11  and  C_12 
REMARK    7  A    between atoms: C_12  and  C_13 
REMARK    8  A    between atoms: C_17  and  C_18 
REMARK    9  A    between atoms: C_27  and  O_28 
ROOT
HETATM    1  N   UNL     1      39.852 -13.243   6.825  1.00  0.00    -0.350 N 
HETATM    2  C   UNL     1      40.494 -13.812   5.744  1.00  0.00     0.242 C 
HETATM    3  O   UNL     1      41.003 -13.160   4.837  1.00  0.00    -0.271 OA
HETATM    4  H   UNL     1      39.244 -13.865   7.358  1.00  0.00     0.163 HD
ENDROOT
BRANCH   2   5
HETATM    5  C   UNL     1      40.529 -15.343   5.766  1.00  0.00     0.281 C 
BRANCH   5   6
HETATM    6  O   UNL     1      41.612 -15.895   5.021  1.00  0.00    -0.308 OA
BRANCH   6   7
HETATM    7  C   UNL     1      41.348 -17.064   4.375  1.00  0.00     0.301 C 
HETATM    8  O   UNL     1      40.856 -18.044   4.930  1.00  0.00    -0.259 OA
BRANCH   7   9
HETATM    9  C   UNL     1      41.694 -16.951   2.972  1.00  0.00     0.091 A 
HETATM   10  S   UNL     1      40.921 -15.714   2.062  1.00  0.00    -0.095 SA
HETATM   11  C   UNL     1      41.817 -16.079   0.659  1.00  0.00     0.051 A 
HETATM   12  C   UNL     1      42.654 -17.152   0.851  1.00  0.00     0.021 A 
HETATM   13  C   UNL     1      42.575 -17.683   2.183  1.00  0.00    -0.002 A 
BRANCH  13  14
HETATM   14  C   UNL     1      43.299 -18.858   2.655  1.00  0.00    -0.024 A 
HETATM   15  C   UNL     1      44.080 -18.780   3.814  1.00  0.00     0.012 A 
HETATM   16  C   UNL     1      44.798 -19.894   4.255  1.00  0.00     0.001 A 
HETATM   17  C   UNL     1      44.741 -21.089   3.539  1.00  0.00     0.000 A 
HETATM   18  C   UNL     1      43.971 -21.173   2.380  1.00  0.00     0.001 A 
HETATM   19  C   UNL     1      43.256 -20.059   1.934  1.00  0.00     0.012 A 
ENDBRANCH  13  14
ENDBRANCH   7   9
ENDBRANCH   6   7
ENDBRANCH   5   6
ENDBRANCH   2   5
BRANCH   1  20
HETATM   20  C   UNL     1      39.570 -11.816   6.855  1.00  0.00     0.225 C 
BRANCH  20  21
HETATM   21  C   UNL     1      40.707 -11.026   7.516  1.00  0.00     0.239 C 
HETATM   22  N   UNL     1      40.867 -11.340   8.854  1.00  0.00    -0.323 N 
HETATM   23  H   UNL     1      40.354 -12.131   9.230  1.00  0.00     0.169 HD
HETATM   24  O   UNL     1      41.451 -10.306   6.857  1.00  0.00    -0.271 OA
BRANCH  22  25
HETATM   25  C   UNL     1      41.767 -10.766   9.778  1.00  0.00     0.069 A 
HETATM   26  C   UNL     1      43.123 -11.095   9.828  1.00  0.00     0.039 A 
HETATM   27  C   UNL     1      43.982 -10.443  10.723  1.00  0.00    -0.060 A 
HETATM   28  C   UNL     1      45.436 -10.809  10.774  1.00  0.00     0.048 C 
HETATM   29  C   UNL     1      43.460  -9.483  11.595  1.00  0.00     0.009 A 
HETATM   30  C   UNL     1      42.103  -9.152  11.557  1.00  0.00     0.039 A 
HETATM   31  C   UNL     1      41.250  -9.785  10.651  1.00  0.00     0.095 A 
BRANCH  31  32
HETATM   32  O   UNL     1      39.902  -9.535  10.529  1.00  0.00    -0.354 OA
HETATM   33  C   UNL     1      39.136  -9.560  11.727  1.00  0.00     0.210 C 
ENDBRANCH  31  32
ENDBRANCH  22  25
ENDBRANCH  20  21
ENDBRANCH   1  20
TORSDOF 9
ENDMDL
MODEL 9
REMARK VINA RESULT:      -8.1      4.791      7.538
REMARK  9 active torsions:
REMARK  status: ('A' for Active; 'I' for Inactive)
REMARK    1  A    between atoms: C_4  and  N_5 
REMARK       I    between atoms: N_5  and  C_6 
REMARK    2  A    between atoms: C_6  and  C_7 
REMARK    3  A    between atoms: C_7  and  N_8 
REMARK       I    between atoms: N_8  and  C_9 
REMARK    4  A    between atoms: C_9  and  C_10 
REMARK    5  A    between atoms: C_10  and  O_11 
REMARK    6  A    between atoms: O_11  and  C_12 
REMARK    7  A    between atoms: C_12  and  C_13 
REMARK    8  A    between atoms: C_17  and  C_18 
REMARK    9  A    between atoms: C_27  and  O_28 
ROOT
HETATM    1  N   UNL     1      41.709 -14.255   4.284  1.00  0.00    -0.350 N 
HETATM    2  C   UNL     1      42.779 -13.591   3.719  1.00  0.00     0.242 C 
HETATM    3  O   UNL     1      43.924 -13.654   4.157  1.00  0.00    -0.271 OA
HETATM    4  H   UNL     1      40.785 -13.919   4.013  1.00  0.00     0.163 HD
ENDROOT
BRANCH   2   5
HETATM    5  C   UNL     1      42.424 -12.761   2.483  1.00  0.00     0.281 C 
BRANCH   5   6
HETATM    6  O   UNL     1      41.109 -12.213   2.529  1.00  0.00    -0.308 OA
BRANCH   6   7
HETATM    7  C   UNL     1      40.621 -11.750   1.344  1.00  0.00     0.301 C 
HETATM    8  O   UNL     1      41.259 -11.016   0.593  1.00  0.00    -0.259 OA
BRANCH   7   9
HETATM    9  C   UNL     1      39.292 -12.279   1.109  1.00  0.00     0.091 A 
HETATM   10  S   UNL     1      37.985 -11.161   1.097  1.00  0.00    -0.095 SA
HETATM   11  C   UNL     1      36.854 -12.369   0.688  1.00  0.00     0.051 A 
HETATM   12  C   UNL     1      37.438 -13.611   0.611  1.00  0.00     0.021 A 
HETATM   13  C   UNL     1      38.849 -13.576   0.876  1.00  0.00    -0.002 A 
BRANCH  13  14
HETATM   14  C   UNL     1      39.716 -14.748   0.927  1.00  0.00    -0.024 A 
HETATM   15  C   UNL     1      40.650 -14.972  -0.091  1.00  0.00     0.012 A 
HETATM   16  C   UNL     1      41.463 -16.108  -0.062  1.00  0.00     0.001 A 
HETATM   17  C   UNL     1      41.344 -17.025   0.981  1.00  0.00     0.000 A 
HETATM   18  C   UNL     1      40.411 -16.813   1.995  1.00  0.00     0.001 A 
HETATM   19  C   UNL     1      39.593 -15.681   1.966  1.00  0.00     0.012 A 
ENDBRANCH  13  14
ENDBRANCH   7   9
ENDBRANCH   6   7
ENDBRANCH   5   6
ENDBRANCH   2   5
BRANCH   1  20
HETATM   20  C   UNL     1      41.845 -14.929   5.567  1.00  0.00     0.225 C 
BRANCH  20  21
HETATM   21  C   UNL     1      42.005 -16.445   5.397  1.00  0.00     0.239 C 
HETATM   22  N   UNL     1      43.253 -16.800   4.918  1.00  0.00    -0.323 N 
HETATM   23  H   UNL     1      43.973 -16.086   4.866  1.00  0.00     0.169 HD
HETATM   24  O   UNL     1      41.141 -17.226   5.786  1.00  0.00    -0.271 OA
BRANCH  22  25
HETATM   25  C   UNL     1      43.721 -18.090   4.588  1.00  0.00     0.069 A 
HETATM   26  C   UNL     1      43.429 -18.721   3.375  1.00  0.00     0.039 A 
HETATM   27  C   UNL     1      43.977 -19.975   3.075  1.00  0.00    -0.060 A 
HETATM   28  C   UNL     1      43.651 -20.647   1.774  1.00  0.00     0.048 C 
HETATM   29  C   UNL     1      44.791 -20.609   4.019  1.00  0.00     0.009 A 
HETATM   30  C   UNL     1      45.083 -19.990   5.236  1.00  0.00     0.039 A 
HETATM   31  C   UNL     1      44.555 -18.731   5.528  1.00  0.00     0.095 A 
BRANCH  31  32
HETATM   32  O   UNL     1      44.778 -18.032   6.694  1.00  0.00    -0.354 OA
HETATM   33  C   UNL     1      44.227 -18.581   7.884  1.00  0.00     0.210 C 
ENDBRANCH  31  32
ENDBRANCH  22  25
ENDBRANCH  20  21
ENDBRANCH   1  20
TORSDOF 9
ENDMDL
MODEL 10
REMARK VINA RESULT:      -8.1      2.657      9.154
REMARK  9 active torsions:
REMARK  status: ('A' for Active; 'I' for Inactive)
REMARK    1  A    between atoms: C_4  and  N_5 
REMARK       I    between atoms: N_5  and  C_6 
REMARK    2  A    between atoms: C_6  and  C_7 
REMARK    3  A    between atoms: C_7  and  N_8 
REMARK       I    between atoms: N_8  and  C_9 
REMARK    4  A    between atoms: C_9  and  C_10 
REMARK    5  A    between atoms: C_10  and  O_11 
REMARK    6  A    between atoms: O_11  and  C_12 
REMARK    7  A    between atoms: C_12  and  C_13 
REMARK    8  A    between atoms: C_17  and  C_18 
REMARK    9  A    between atoms: C_27  and  O_28 
ROOT
HETATM    1  N   UNL     1      41.029 -13.639   6.192  1.00  0.00    -0.350 N 
HETATM    2  C   UNL     1      40.286 -12.485   6.052  1.00  0.00     0.242 C 
HETATM    3  O   UNL     1      39.189 -12.447   5.504  1.00  0.00    -0.271 OA
HETATM    4  H   UNL     1      42.017 -13.508   6.408  1.00  0.00     0.163 HD
ENDROOT
BRANCH   2   5
HETATM    5  C   UNL     1      40.943 -11.237   6.648  1.00  0.00     0.281 C 
BRANCH   5   6
HETATM    6  O   UNL     1      41.183 -11.339   8.049  1.00  0.00    -0.308 OA
BRANCH   6   7
HETATM    7  C   UNL     1      41.927 -10.337   8.595  1.00  0.00     0.301 C 
HETATM    8  O   UNL     1      42.112  -9.256   8.040  1.00  0.00    -0.259 OA
BRANCH   7   9
HETATM    9  C   UNL     1      42.411 -10.727   9.904  1.00  0.00     0.091 A 
HETATM   10  S   UNL     1      41.459 -10.285  11.265  1.00  0.00    -0.095 SA
HETATM   11  C   UNL     1      42.493 -11.098  12.350  1.00  0.00     0.051 A 
HETATM   12  C   UNL     1      43.573 -11.655  11.707  1.00  0.00     0.021 A 
HETATM   13  C   UNL     1      43.550 -11.426  10.290  1.00  0.00    -0.002 A 
BRANCH  13  14
HETATM   14  C   UNL     1      44.596 -11.843   9.362  1.00  0.00    -0.024 A 
HETATM   15  C   UNL     1      45.808 -11.146   9.315  1.00  0.00     0.012 A 
HETATM   16  C   UNL     1      46.802 -11.524   8.408  1.00  0.00     0.001 A 
HETATM   17  C   UNL     1      46.587 -12.597   7.544  1.00  0.00     0.000 A 
HETATM   18  C   UNL     1      45.379 -13.291   7.580  1.00  0.00     0.001 A 
HETATM   19  C   UNL     1      44.382 -12.913   8.482  1.00  0.00     0.012 A 
ENDBRANCH  13  14
ENDBRANCH   7   9
ENDBRANCH   6   7
ENDBRANCH   5   6
ENDBRANCH   2   5
BRANCH   1  20
HETATM   20  C   UNL     1      40.632 -14.866   5.516  1.00  0.00     0.225 C 
BRANCH  20  21
HETATM   21  C   UNL     1      41.825 -15.553   4.838  1.00  0.00     0.239 C 
HETATM   22  N   UNL     1      41.537 -16.843   4.433  1.00  0.00    -0.323 N 
HETATM   23  H   UNL     1      40.574 -17.160   4.474  1.00  0.00     0.169 HD
HETATM   24  O   UNL     1      42.856 -14.937   4.585  1.00  0.00    -0.271 OA
BRANCH  22  25
HETATM   25  C   UNL     1      42.409 -17.780   3.837  1.00  0.00     0.069 A 
HETATM   26  C   UNL     1      43.313 -18.554   4.569  1.00  0.00     0.039 A 
HETATM   27  C   UNL     1      44.107 -19.516   3.931  1.00  0.00    -0.060 A 
HETATM   28  C   UNL     1      45.080 -20.338   4.724  1.00  0.00     0.048 C 
HETATM   29  C   UNL     1      44.013 -19.669   2.544  1.00  0.00     0.009 A 
HETATM   30  C   UNL     1      43.118 -18.895   1.803  1.00  0.00     0.039 A 
HETATM   31  C   UNL     1      42.311 -17.950   2.440  1.00  0.00     0.095 A 
BRANCH  31  32
HETATM   32  O   UNL     1      41.396 -17.137   1.808  1.00  0.00    -0.354 OA
HETATM   33  C   UNL     1      41.720 -16.716   0.489  1.00  0.00     0.210 C 
ENDBRANCH  31  32
ENDBRANCH  22  25
ENDBRANCH  20  21
ENDBRANCH   1  20
TORSDOF 9
ENDMDL
