MODEL 1
REMARK VINA RESULT:      -8.8      0.000      0.000
REMARK  9 active torsions:
REMARK  status: ('A' for Active; 'I' for Inactive)
REMARK    1  A    between atoms: C_2  and  N_3 
REMARK    2  A    between atoms: N_3  and  C_4 
REMARK    3  A    between atoms: N_3  and  C_32 
REMARK    4  A    between atoms: C_7  and  C_8 
REMARK       I    between atoms: C_8  and  N_9 
REMARK    5  A    between atoms: N_9  and  C_10 
REMARK    6  A    between atoms: C_10  and  N_11 
REMARK    7  A    between atoms: N_11  and  C_12 
REMARK    8  A    between atoms: C_14  and  C_15 
REMARK    9  A    between atoms: C_24  and  O_25 
ROOT
HETATM    1  N   UNL     1      44.083 -14.020   5.504  1.00  0.00    -0.337 N 
HETATM    2  H   UNL     1      44.920 -14.299   5.000  1.00  0.00     0.168 HD
ENDROOT
BRANCH   1   3
HETATM    3  C   UNL     1      44.150 -14.248   6.861  1.00  0.00     0.157 C 
HETATM    4  S   UNL     1      45.196 -13.307   7.762  1.00  0.00    -0.047 SA
BRANCH   3   5
HETATM    5  N   UNL     1      43.252 -15.184   7.342  1.00  0.00    -0.201 NA
HETATM    6  C   UNL     1      43.533 -16.522   7.554  1.00  0.00     0.237 C 
HETATM    7  O   UNL     1      43.651 -16.948   8.700  1.00  0.00    -0.274 OA
HETATM    8  H   UNL     1      42.878 -14.813   8.210  1.00  0.00     0.139 HD
BRANCH   6   9
HETATM    9  C   UNL     1      43.554 -17.449   6.388  1.00  0.00     0.026 A 
HETATM   10  C   UNL     1      42.442 -17.469   5.544  1.00  0.00     0.019 A 
HETATM   11  C   UNL     1      42.459 -18.217   4.360  1.00  0.00     0.030 A 
HETATM   12  C   UNL     1      43.586 -18.951   3.960  1.00  0.00     0.030 A 
HETATM   13  C   UNL     1      44.669 -18.961   4.861  1.00  0.00     0.030 A 
HETATM   14  C   UNL     1      44.667 -18.217   6.051  1.00  0.00     0.019 A 
BRANCH  12  15
HETATM   15  N   UNL     1      43.649 -19.653   2.754  1.00  0.00    -0.382 N 
BRANCH  15  16
HETATM   16  C   UNL     1      44.586 -20.787   2.668  1.00  0.00     0.118 C 
HETATM   17  C   UNL     1      44.042 -21.848   1.723  1.00  0.00     0.026 C 
ENDBRANCH  15  16
BRANCH  15  18
HETATM   18  C   UNL     1      43.348 -18.994   1.472  1.00  0.00     0.118 C 
HETATM   19  C   UNL     1      44.068 -17.658   1.359  1.00  0.00     0.026 C 
ENDBRANCH  15  18
ENDBRANCH  12  15
ENDBRANCH   6   9
ENDBRANCH   3   5
ENDBRANCH   1   3
BRANCH   1  20
HETATM   20  C   UNL     1      43.023 -13.514   4.722  1.00  0.00     0.035 A 
HETATM   21  C   UNL     1      42.764 -13.962   3.419  1.00  0.00     0.046 A 
HETATM   22  C   UNL     1      41.747 -13.390   2.628  1.00  0.00     0.035 A 
HETATM   23  C   UNL     1      40.972 -12.373   3.215  1.00  0.00     0.078 A 
HETATM   24  C   UNL     1      41.223 -11.917   4.508  1.00  0.00     0.040 A 
HETATM   25  C   UNL     1      42.265 -12.470   5.252  1.00  0.00     0.032 A 
BRANCH  22  26
HETATM   26  C   UNL     1      41.525 -13.778   1.216  1.00  0.00     0.112 A 
HETATM   27  S   UNL     1      41.000 -15.352   0.756  1.00  0.00    -0.067 SA
HETATM   28  C   UNL     1      41.164 -14.943  -0.904  1.00  0.00     0.035 A 
HETATM   29  C   UNL     1      41.566 -13.612  -1.003  1.00  0.00     0.075 A 
HETATM   30  C   UNL     1      40.956 -15.744  -2.039  1.00  0.00     0.021 A 
HETATM   31  N   UNL     1      41.748 -12.956   0.204  1.00  0.00    -0.239 NA
HETATM   32  C   UNL     1      41.765 -13.058  -2.284  1.00  0.00     0.033 A 
HETATM   33  C   UNL     1      41.570 -13.848  -3.422  1.00  0.00     0.002 A 
HETATM   34  C   UNL     1      41.171 -15.175  -3.298  1.00  0.00     0.002 A 
ENDBRANCH  22  26
BRANCH  23  35
HETATM   35  O   UNL     1      39.942 -11.745   2.559  1.00  0.00    -0.360 OA
HETATM   36  H   UNL     1      40.301 -11.362   1.729  1.00  0.00     0.217 HD
ENDBRANCH  23  35
ENDBRANCH   1  20
TORSDOF 9
ENDMDL
MODEL 2
REMARK VINA RESULT:      -8.5      2.578      3.543
REMARK  9 active torsions:
REMARK  status: ('A' for Active; 'I' for Inactive)
REMARK    1  A    between atoms: C_2  and  N_3 
REMARK    2  A    between atoms: N_3  and  C_4 
REMARK    3  A    between atoms: N_3  and  C_32 
REMARK    4  A    between atoms: C_7  and  C_8 
REMARK       I    between atoms: C_8  and  N_9 
REMARK    5  A    between atoms: N_9  and  C_10 
REMARK    6  A    between atoms: C_10  and  N_11 
REMARK    7  A    between atoms: N_11  and  C_12 
REMARK    8  A    between atoms: C_14  and  C_15 
REMARK    9  A    between atoms: C_24  and  O_25 
ROOT
HETATM    1  N   UNL     1      39.853 -15.095   4.279  1.00  0.00    -0.337 N 
HETATM    2  H   UNL     1      39.023 -15.630   4.520  1.00  0.00     0.168 HD
ENDROOT
BRANCH   1   3
HETATM    3  C   UNL     1      40.253 -14.216   5.262  1.00  0.00     0.157 C 
HETATM    4  S   UNL     1      39.548 -12.702   5.291  1.00  0.00    -0.047 SA
BRANCH   3   5
HETATM    5  N   UNL     1      41.140 -14.737   6.187  1.00  0.00    -0.201 NA
HETATM    6  C   UNL     1      42.448 -15.099   5.922  1.00  0.00     0.237 C 
HETATM    7  O   UNL     1      43.371 -14.404   6.341  1.00  0.00    -0.274 OA
HETATM    8  H   UNL     1      41.158 -14.093   6.971  1.00  0.00     0.139 HD
BRANCH   6   9
HETATM    9  C   UNL     1      42.716 -16.399   5.246  1.00  0.00     0.026 A 
HETATM   10  C   UNL     1      43.488 -16.388   4.083  1.00  0.00     0.019 A 
HETATM   11  C   UNL     1      43.888 -17.588   3.481  1.00  0.00     0.030 A 
HETATM   12  C   UNL     1      43.555 -18.839   4.023  1.00  0.00     0.030 A 
HETATM   13  C   UNL     1      42.725 -18.818   5.161  1.00  0.00     0.030 A 
HETATM   14  C   UNL     1      42.317 -17.624   5.776  1.00  0.00     0.019 A 
BRANCH  12  15
HETATM   15  N   UNL     1      43.994 -20.047   3.476  1.00  0.00    -0.382 N 
BRANCH  15  16
HETATM   16  C   UNL     1      45.194 -20.669   4.061  1.00  0.00     0.118 C 
HETATM   17  C   UNL     1      44.802 -21.589   5.209  1.00  0.00     0.026 C 
ENDBRANCH  15  16
BRANCH  15  18
HETATM   18  C   UNL     1      43.746 -20.378   2.062  1.00  0.00     0.118 C 
HETATM   19  C   UNL     1      43.958 -21.862   1.801  1.00  0.00     0.026 C 
ENDBRANCH  15  18
ENDBRANCH  12  15
ENDBRANCH   6   9
ENDBRANCH   3   5
ENDBRANCH   1   3
BRANCH   1  20
HETATM   20  C   UNL     1      40.387 -15.318   2.992  1.00  0.00     0.035 A 
HETATM   21  C   UNL     1      40.860 -14.279   2.179  1.00  0.00     0.046 A 
HETATM   22  C   UNL     1      41.319 -14.516   0.867  1.00  0.00     0.035 A 
HETATM   23  C   UNL     1      41.319 -15.849   0.417  1.00  0.00     0.078 A 
HETATM   24  C   UNL     1      40.846 -16.889   1.216  1.00  0.00     0.040 A 
HETATM   25  C   UNL     1      40.356 -16.620   2.493  1.00  0.00     0.032 A 
BRANCH  22  26
HETATM   26  C   UNL     1      41.727 -13.420  -0.042  1.00  0.00     0.112 A 
HETATM   27  S   UNL     1      42.064 -11.826   0.514  1.00  0.00    -0.067 SA
HETATM   28  C   UNL     1      42.271 -11.284  -1.102  1.00  0.00     0.035 A 
HETATM   29  C   UNL     1      42.114 -12.368  -1.965  1.00  0.00     0.075 A 
HETATM   30  C   UNL     1      42.548  -9.991  -1.574  1.00  0.00     0.021 A 
HETATM   31  N   UNL     1      41.826 -13.577  -1.352  1.00  0.00    -0.239 NA
HETATM   32  C   UNL     1      42.242 -12.153  -3.353  1.00  0.00     0.033 A 
HETATM   33  C   UNL     1      42.509 -10.867  -3.835  1.00  0.00     0.002 A 
HETATM   34  C   UNL     1      42.659  -9.801  -2.954  1.00  0.00     0.002 A 
ENDBRANCH  22  26
BRANCH  23  35
HETATM   35  O   UNL     1      41.754 -16.217  -0.832  1.00  0.00    -0.360 OA
HETATM   36  H   UNL     1      42.707 -15.988  -0.899  1.00  0.00     0.217 HD
ENDBRANCH  23  35
ENDBRANCH   1  20
TORSDOF 9
ENDMDL
MODEL 3
REMARK VINA RESULT:      -8.0      2.970      7.097
REMARK  9 active torsions:
REMARK  status: ('A' for Active; 'I' for Inactive)
REMARK    1  A    between atoms: C_2  and  N_3 
REMARK    2  A    between atoms: N_3  and  C_4 
REMARK    3  A    between atoms: N_3  and  C_32 
REMARK    4  A    between atoms: C_7  and  C_8 
REMARK       I    between atoms: C_8  and  N_9 
REMARK    5  A    between atoms: N_9  and  C_10 
REMARK    6  A    between atoms: C_10  and  N_11 
REMARK    7  A    between atoms: N_11  and  C_12 
REMARK    8  A    between atoms: C_14  and  C_15 
REMARK    9  A    between atoms: C_24  and  O_25 
ROOT
HETATM    1  N   UNL     1      42.195 -13.037   1.638  1.00  0.00    -0.337 N 
HETATM    2  H   UNL     1      42.648 -12.222   1.233  1.00  0.00     0.168 HD
ENDROOT
BRANCH   1   3
HETATM    3  C   UNL     1      41.365 -13.703   0.765  1.00  0.00     0.157 C 
HETATM    4  S   UNL     1      39.805 -13.135   0.582  1.00  0.00    -0.047 SA
BRANCH   3   5
HETATM    5  N   UNL     1      41.963 -14.728   0.054  1.00  0.00    -0.201 NA
HETATM    6  C   UNL     1      41.623 -16.065   0.145  1.00  0.00     0.237 C 
HETATM    7  O   UNL     1      41.015 -16.606  -0.776  1.00  0.00    -0.274 OA
HETATM    8  H   UNL     1      41.918 -14.471  -0.926  1.00  0.00     0.139 HD
BRANCH   6   9
HETATM    9  C   UNL     1      42.117 -16.861   1.303  1.00  0.00     0.026 A 
HETATM   10  C   UNL     1      43.398 -17.411   1.224  1.00  0.00     0.019 A 
HETATM   11  C   UNL     1      43.970 -18.051   2.331  1.00  0.00     0.030 A 
HETATM   12  C   UNL     1      43.302 -18.147   3.562  1.00  0.00     0.030 A 
HETATM   13  C   UNL     1      41.989 -17.636   3.594  1.00  0.00     0.030 A 
HETATM   14  C   UNL     1      41.402 -16.992   2.493  1.00  0.00     0.019 A 
BRANCH  12  15
HETATM   15  N   UNL     1      43.876 -18.724   4.697  1.00  0.00    -0.382 N 
BRANCH  15  16
HETATM   16  C   UNL     1      43.725 -18.013   5.978  1.00  0.00     0.118 C 
HETATM   17  C   UNL     1      45.088 -17.782   6.614  1.00  0.00     0.026 C 
ENDBRANCH  15  16
BRANCH  15  18
HETATM   18  C   UNL     1      45.068 -19.582   4.595  1.00  0.00     0.118 C 
HETATM   19  C   UNL     1      44.720 -21.040   4.856  1.00  0.00     0.026 C 
ENDBRANCH  15  18
ENDBRANCH  12  15
ENDBRANCH   6   9
ENDBRANCH   3   5
ENDBRANCH   1   3
BRANCH   1  20
HETATM   20  C   UNL     1      42.462 -13.285   3.002  1.00  0.00     0.035 A 
HETATM   21  C   UNL     1      41.782 -12.629   4.037  1.00  0.00     0.046 A 
HETATM   22  C   UNL     1      42.116 -12.836   5.391  1.00  0.00     0.035 A 
HETATM   23  C   UNL     1      43.140 -13.761   5.665  1.00  0.00     0.078 A 
HETATM   24  C   UNL     1      43.827 -14.416   4.643  1.00  0.00     0.040 A 
HETATM   25  C   UNL     1      43.505 -14.158   3.311  1.00  0.00     0.032 A 
BRANCH  22  26
HETATM   26  C   UNL     1      41.480 -12.078   6.492  1.00  0.00     0.112 A 
HETATM   27  S   UNL     1      39.776 -12.056   6.743  1.00  0.00    -0.067 SA
HETATM   28  C   UNL     1      39.958 -10.911   8.011  1.00  0.00     0.035 A 
HETATM   29  C   UNL     1      41.315 -10.652   8.194  1.00  0.00     0.075 A 
HETATM   30  C   UNL     1      38.969 -10.284   8.785  1.00  0.00     0.021 A 
HETATM   31  N   UNL     1      42.169 -11.334   7.341  1.00  0.00    -0.239 NA
HETATM   32  C   UNL     1      41.701  -9.733   9.191  1.00  0.00     0.033 A 
HETATM   33  C   UNL     1      40.724  -9.095   9.963  1.00  0.00     0.002 A 
HETATM   34  C   UNL     1      39.376  -9.368   9.760  1.00  0.00     0.002 A 
ENDBRANCH  22  26
BRANCH  23  35
HETATM   35  O   UNL     1      43.552 -14.066   6.939  1.00  0.00    -0.360 OA
HETATM   36  H   UNL     1      42.797 -13.904   7.547  1.00  0.00     0.217 HD
ENDBRANCH  23  35
ENDBRANCH   1  20
TORSDOF 9
ENDMDL
MODEL 4
REMARK VINA RESULT:      -8.0      3.904      7.712
REMARK  9 active torsions:
REMARK  status: ('A' for Active; 'I' for Inactive)
REMARK    1  A    between atoms: C_2  and  N_3 
REMARK    2  A    between atoms: N_3  and  C_4 
REMARK    3  A    between atoms: N_3  and  C_32 
REMARK    4  A    between atoms: C_7  and  C_8 
REMARK       I    between atoms: C_8  and  N_9 
REMARK    5  A    between atoms: N_9  and  C_10 
REMARK    6  A    between atoms: C_10  and  N_11 
REMARK    7  A    between atoms: N_11  and  C_12 
REMARK    8  A    between atoms: C_14  and  C_15 
REMARK    9  A    between atoms: C_24  and  O_25 
ROOT
HETATM    1  N   UNL     1      41.948 -12.918   4.413  1.00  0.00    -0.337 N 
HETATM    2  H   UNL     1      42.957 -12.960   4.528  1.00  0.00     0.168 HD
ENDROOT
BRANCH   1   3
HETATM    3  C   UNL     1      41.474 -13.693   3.378  1.00  0.00     0.157 C 
HETATM    4  S   UNL     1      42.002 -13.342   1.832  1.00  0.00    -0.047 SA
BRANCH   3   5
HETATM    5  N   UNL     1      40.674 -14.755   3.760  1.00  0.00    -0.201 NA
HETATM    6  C   UNL     1      40.992 -15.681   4.737  1.00  0.00     0.237 C 
HETATM    7  O   UNL     1      40.412 -15.650   5.820  1.00  0.00    -0.274 OA
HETATM    8  H   UNL     1      39.765 -14.369   3.993  1.00  0.00     0.139 HD
BRANCH   6   9
HETATM    9  C   UNL     1      41.938 -16.783   4.408  1.00  0.00     0.026 A 
HETATM   10  C   UNL     1      42.667 -17.356   5.452  1.00  0.00     0.019 A 
HETATM   11  C   UNL     1      43.469 -18.483   5.228  1.00  0.00     0.030 A 
HETATM   12  C   UNL     1      43.556 -19.095   3.968  1.00  0.00     0.030 A 
HETATM   13  C   UNL     1      42.858 -18.459   2.922  1.00  0.00     0.030 A 
HETATM   14  C   UNL     1      42.051 -17.329   3.131  1.00  0.00     0.019 A 
BRANCH  12  15
HETATM   15  N   UNL     1      44.298 -20.256   3.734  1.00  0.00    -0.382 N 
BRANCH  15  16
HETATM   16  C   UNL     1      45.168 -20.743   4.818  1.00  0.00     0.118 C 
HETATM   17  C   UNL     1      44.797 -22.171   5.188  1.00  0.00     0.026 C 
ENDBRANCH  15  16
BRANCH  15  18
HETATM   18  C   UNL     1      44.727 -20.625   2.375  1.00  0.00     0.118 C 
HETATM   19  C   UNL     1      43.838 -21.715   1.795  1.00  0.00     0.026 C 
ENDBRANCH  15  18
ENDBRANCH  12  15
ENDBRANCH   6   9
ENDBRANCH   3   5
ENDBRANCH   1   3
BRANCH   1  20
HETATM   20  C   UNL     1      41.256 -12.050   5.285  1.00  0.00     0.035 A 
HETATM   21  C   UNL     1      41.672 -11.812   6.602  1.00  0.00     0.046 A 
HETATM   22  C   UNL     1      40.924 -11.000   7.479  1.00  0.00     0.035 A 
HETATM   23  C   UNL     1      39.757 -10.405   6.967  1.00  0.00     0.078 A 
HETATM   24  C   UNL     1      39.331 -10.639   5.659  1.00  0.00     0.040 A 
HETATM   25  C   UNL     1      40.067 -11.482   4.827  1.00  0.00     0.032 A 
BRANCH  22  26
HETATM   26  C   UNL     1      41.292 -10.819   8.902  1.00  0.00     0.112 A 
HETATM   27  S   UNL     1      42.916 -10.580   9.420  1.00  0.00    -0.067 SA
HETATM   28  C   UNL     1      42.421 -10.626  11.064  1.00  0.00     0.035 A 
HETATM   29  C   UNL     1      41.036 -10.776  11.113  1.00  0.00     0.075 A 
HETATM   30  C   UNL     1      43.202 -10.540  12.227  1.00  0.00     0.021 A 
HETATM   31  N   UNL     1      40.405 -10.864   9.883  1.00  0.00    -0.239 NA
HETATM   32  C   UNL     1      40.406 -10.839  12.373  1.00  0.00     0.033 A 
HETATM   33  C   UNL     1      41.175 -10.764  13.540  1.00  0.00     0.002 A 
HETATM   34  C   UNL     1      42.556 -10.617  13.464  1.00  0.00     0.002 A 
ENDBRANCH  22  26
BRANCH  23  35
HETATM   35  O   UNL     1      38.948  -9.583   7.711  1.00  0.00    -0.360 OA
HETATM   36  H   UNL     1      38.088  -9.502   7.243  1.00  0.00     0.217 HD
ENDBRANCH  23  35
ENDBRANCH   1  20
TORSDOF 9
ENDMDL
MODEL 5
REMARK VINA RESULT:      -7.9      4.043      8.166
REMARK  9 active torsions:
REMARK  status: ('A' for Active; 'I' for Inactive)
REMARK    1  A    between atoms: C_2  and  N_3 
REMARK    2  A    between atoms: N_3  and  C_4 
REMARK    3  A    between atoms: N_3  and  C_32 
REMARK    4  A    between atoms: C_7  and  C_8 
REMARK       I    between atoms: C_8  and  N_9 
REMARK    5  A    between atoms: N_9  and  C_10 
REMARK    6  A    between atoms: C_10  and  N_11 
REMARK    7  A    between atoms: N_11  and  C_12 
REMARK    8  A    between atoms: C_14  and  C_15 
REMARK    9  A    between atoms: C_24  and  O_25 
ROOT
HETATM    1  N   UNL     1      41.299 -11.895   4.578  1.00  0.00    -0.337 N 
HETATM    2  H   UNL     1      42.288 -11.828   4.807  1.00  0.00     0.168 HD
ENDROOT
BRANCH   1   3
HETATM    3  C   UNL     1      40.564 -10.796   4.964  1.00  0.00     0.157 C 
HETATM    4  S   UNL     1      40.751  -9.385   4.091  1.00  0.00    -0.047 SA
BRANCH   3   5
HETATM    5  N   UNL     1      39.666 -11.024   5.991  1.00  0.00    -0.201 NA
HETATM    6  C   UNL     1      39.510 -10.221   7.107  1.00  0.00     0.237 C 
HETATM    7  O   UNL     1      38.513  -9.511   7.215  1.00  0.00    -0.274 OA
HETATM    8  H   UNL     1      38.751 -11.128   5.564  1.00  0.00     0.139 HD
BRANCH   6   9
HETATM    9  C   UNL     1      40.493 -10.333   8.221  1.00  0.00     0.026 A 
HETATM   10  C   UNL     1      40.014 -10.679   9.486  1.00  0.00     0.019 A 
HETATM   11  C   UNL     1      40.902 -10.933  10.540  1.00  0.00     0.030 A 
HETATM   12  C   UNL     1      42.294 -10.876  10.370  1.00  0.00     0.030 A 
HETATM   13  C   UNL     1      42.745 -10.466   9.100  1.00  0.00     0.030 A 
HETATM   14  C   UNL     1      41.868 -10.208   8.034  1.00  0.00     0.019 A 
BRANCH  12  15
HETATM   15  N   UNL     1      43.199 -11.186  11.388  1.00  0.00    -0.382 N 
BRANCH  15  16
HETATM   16  C   UNL     1      43.693 -10.080  12.226  1.00  0.00     0.118 C 
HETATM   17  C   UNL     1      42.971 -10.074  13.566  1.00  0.00     0.026 C 
ENDBRANCH  15  16
BRANCH  15  18
HETATM   18  C   UNL     1      44.110 -12.337  11.273  1.00  0.00     0.118 C 
HETATM   19  C   UNL     1      45.475 -11.908  10.754  1.00  0.00     0.026 C 
ENDBRANCH  15  18
ENDBRANCH  12  15
ENDBRANCH   6   9
ENDBRANCH   3   5
ENDBRANCH   1   3
BRANCH   1  20
HETATM   20  C   UNL     1      40.880 -13.099   3.973  1.00  0.00     0.035 A 
HETATM   21  C   UNL     1      41.559 -14.312   4.151  1.00  0.00     0.046 A 
HETATM   22  C   UNL     1      41.166 -15.486   3.477  1.00  0.00     0.035 A 
HETATM   23  C   UNL     1      40.037 -15.401   2.642  1.00  0.00     0.078 A 
HETATM   24  C   UNL     1      39.356 -14.199   2.455  1.00  0.00     0.040 A 
HETATM   25  C   UNL     1      39.794 -13.042   3.100  1.00  0.00     0.032 A 
BRANCH  22  26
HETATM   26  C   UNL     1      41.931 -16.751   3.572  1.00  0.00     0.112 A 
HETATM   27  S   UNL     1      42.735 -17.245   5.012  1.00  0.00    -0.067 SA
HETATM   28  C   UNL     1      43.403 -18.602   4.197  1.00  0.00     0.035 A 
HETATM   29  C   UNL     1      42.931 -18.617   2.885  1.00  0.00     0.075 A 
HETATM   30  C   UNL     1      44.285 -19.581   4.683  1.00  0.00     0.021 A 
HETATM   31  N   UNL     1      42.082 -17.575   2.548  1.00  0.00    -0.239 NA
HETATM   32  C   UNL     1      43.354 -19.652   2.025  1.00  0.00     0.033 A 
HETATM   33  C   UNL     1      44.240 -20.628   2.495  1.00  0.00     0.002 A 
HETATM   34  C   UNL     1      44.698 -20.590   3.808  1.00  0.00     0.002 A 
ENDBRANCH  22  26
BRANCH  23  35
HETATM   35  O   UNL     1      39.542 -16.473   1.942  1.00  0.00    -0.360 OA
HETATM   36  H   UNL     1      39.699 -17.282   2.477  1.00  0.00     0.217 HD
ENDBRANCH  23  35
ENDBRANCH   1  20
TORSDOF 9
ENDMDL
MODEL 6
REMARK VINA RESULT:      -7.9      2.299      2.813
REMARK  9 active torsions:
REMARK  status: ('A' for Active; 'I' for Inactive)
REMARK    1  A    between atoms: C_2  and  N_3 
REMARK    2  A    between atoms: N_3  and  C_4 
REMARK    3  A    between atoms: N_3  and  C_32 
REMARK    4  A    between atoms: C_7  and  C_8 
REMARK       I    between atoms: C_8  and  N_9 
REMARK    5  A    between atoms: N_9  and  C_10 
REMARK    6  A    between atoms: C_10  and  N_11 
REMARK    7  A    between atoms: N_11  and  C_12 
REMARK    8  A    between atoms: C_14  and  C_15 
REMARK    9  A    between atoms: C_24  and  O_25 
ROOT
HETATM    1  N   UNL     1      40.200 -14.351   6.226  1.00  0.00    -0.337 N 
HETATM    2  H   UNL     1      39.893 -14.021   7.138  1.00  0.00     0.168 HD
ENDROOT
BRANCH   1   3
HETATM    3  C   UNL     1      41.066 -15.420   6.285  1.00  0.00     0.157 C 
HETATM    4  S   UNL     1      40.412 -16.949   6.437  1.00  0.00    -0.047 SA
BRANCH   3   5
HETATM    5  N   UNL     1      42.401 -15.102   6.112  1.00  0.00    -0.201 NA
HETATM    6  C   UNL     1      43.106 -15.240   4.930  1.00  0.00     0.237 C 
HETATM    7  O   UNL     1      43.417 -14.242   4.284  1.00  0.00    -0.274 OA
HETATM    8  H   UNL     1      42.518 -14.143   6.423  1.00  0.00     0.139 HD
BRANCH   6   9
HETATM    9  C   UNL     1      43.592 -16.590   4.531  1.00  0.00     0.026 A 
HETATM   10  C   UNL     1      44.090 -17.430   5.528  1.00  0.00     0.019 A 
HETATM   11  C   UNL     1      44.433 -18.757   5.238  1.00  0.00     0.030 A 
HETATM   12  C   UNL     1      44.273 -19.303   3.955  1.00  0.00     0.030 A 
HETATM   13  C   UNL     1      43.826 -18.415   2.957  1.00  0.00     0.030 A 
HETATM   14  C   UNL     1      43.478 -17.083   3.232  1.00  0.00     0.019 A 
BRANCH  12  15
HETATM   15  N   UNL     1      44.548 -20.640   3.656  1.00  0.00    -0.382 N 
BRANCH  15  16
HETATM   16  C   UNL     1      45.228 -21.446   4.684  1.00  0.00     0.118 C 
HETATM   17  C   UNL     1      44.543 -22.797   4.830  1.00  0.00     0.026 C 
ENDBRANCH  15  16
BRANCH  15  18
HETATM   18  C   UNL     1      44.772 -21.080   2.269  1.00  0.00     0.118 C 
HETATM   19  C   UNL     1      43.508 -21.683   1.674  1.00  0.00     0.026 C 
ENDBRANCH  15  18
ENDBRANCH  12  15
ENDBRANCH   6   9
ENDBRANCH   3   5
ENDBRANCH   1   3
BRANCH   1  20
HETATM   20  C   UNL     1      39.728 -13.628   5.110  1.00  0.00     0.035 A 
HETATM   21  C   UNL     1      39.812 -14.120   3.800  1.00  0.00     0.046 A 
HETATM   22  C   UNL     1      39.402 -13.350   2.692  1.00  0.00     0.035 A 
HETATM   23  C   UNL     1      38.869 -12.075   2.957  1.00  0.00     0.078 A 
HETATM   24  C   UNL     1      38.785 -11.574   4.256  1.00  0.00     0.040 A 
HETATM   25  C   UNL     1      39.239 -12.340   5.329  1.00  0.00     0.032 A 
BRANCH  22  26
HETATM   26  C   UNL     1      39.577 -13.810   1.296  1.00  0.00     0.112 A 
HETATM   27  S   UNL     1      40.998 -14.617   0.753  1.00  0.00    -0.067 SA
HETATM   28  C   UNL     1      40.408 -14.615  -0.860  1.00  0.00     0.035 A 
HETATM   29  C   UNL     1      39.139 -14.038  -0.875  1.00  0.00     0.075 A 
HETATM   30  C   UNL     1      41.026 -15.086  -2.029  1.00  0.00     0.021 A 
HETATM   31  N   UNL     1      38.670 -13.604   0.355  1.00  0.00    -0.239 NA
HETATM   32  C   UNL     1      38.459 -13.930  -2.106  1.00  0.00     0.033 A 
HETATM   33  C   UNL     1      39.068 -14.388  -3.279  1.00  0.00     0.002 A 
HETATM   34  C   UNL     1      40.337 -14.958  -3.238  1.00  0.00     0.002 A 
ENDBRANCH  22  26
BRANCH  23  35
HETATM   35  O   UNL     1      38.421 -11.232   1.971  1.00  0.00    -0.360 OA
HETATM   36  H   UNL     1      38.579 -10.309   2.268  1.00  0.00     0.217 HD
ENDBRANCH  23  35
ENDBRANCH   1  20
TORSDOF 9
ENDMDL
MODEL 7
REMARK VINA RESULT:      -7.8      4.939      9.037
REMARK  9 active torsions:
REMARK  status: ('A' for Active; 'I' for Inactive)
REMARK    1  A    between atoms: C_2  and  N_3 
REMARK    2  A    between atoms: N_3  and  C_4 
REMARK    3  A    between atoms: N_3  and  C_32 
REMARK    4  A    between atoms: C_7  and  C_8 
REMARK       I    between atoms: C_8  and  N_9 
REMARK    5  A    between atoms: N_9  and  C_10 
REMARK    6  A    between atoms: C_10  and  N_11 
REMARK    7  A    between atoms: N_11  and  C_12 
REMARK    8  A    between atoms: C_14  and  C_15 
REMARK    9  A    between atoms: C_24  and  O_25 
ROOT
HETATM    1  N   UNL     1      39.830 -13.378   6.589  1.00  0.00    -0.337 N 
HETATM    2  H   UNL     1      39.363 -13.893   7.331  1.00  0.00     0.168 HD
ENDROOT
BRANCH   1   3
HETATM    3  C   UNL     1      40.109 -12.069   6.912  1.00  0.00     0.157 C 
HETATM    4  S   UNL     1      41.587 -11.446   6.446  1.00  0.00    -0.047 SA
BRANCH   3   5
HETATM    5  N   UNL     1      39.071 -11.380   7.514  1.00  0.00    -0.201 NA
HETATM    6  C   UNL     1      39.142 -10.081   7.981  1.00  0.00     0.237 C 
HETATM    7  O   UNL     1      38.571  -9.180   7.370  1.00  0.00    -0.274 OA
HETATM    8  H   UNL     1      38.279 -11.432   6.882  1.00  0.00     0.139 HD
BRANCH   6   9
HETATM    9  C   UNL     1      39.798  -9.817   9.292  1.00  0.00     0.026 A 
HETATM   10  C   UNL     1      39.935 -10.882  10.184  1.00  0.00     0.019 A 
HETATM   11  C   UNL     1      40.663 -10.730  11.372  1.00  0.00     0.030 A 
HETATM   12  C   UNL     1      41.300  -9.524  11.703  1.00  0.00     0.030 A 
HETATM   13  C   UNL     1      41.094  -8.451  10.814  1.00  0.00     0.030 A 
HETATM   14  C   UNL     1      40.367  -8.588   9.620  1.00  0.00     0.019 A 
BRANCH  12  15
HETATM   15  N   UNL     1      42.083  -9.367  12.849  1.00  0.00    -0.382 N 
BRANCH  15  16
HETATM   16  C   UNL     1      43.240 -10.264  13.018  1.00  0.00     0.118 C 
HETATM   17  C   UNL     1      44.065 -10.302  11.740  1.00  0.00     0.026 C 
ENDBRANCH  15  16
BRANCH  15  18
HETATM   18  C   UNL     1      41.506  -8.850  14.101  1.00  0.00     0.118 C 
HETATM   19  C   UNL     1      41.797  -9.784  15.267  1.00  0.00     0.026 C 
ENDBRANCH  15  18
ENDBRANCH  12  15
ENDBRANCH   6   9
ENDBRANCH   3   5
ENDBRANCH   1   3
BRANCH   1  20
HETATM   20  C   UNL     1      40.046 -14.079   5.383  1.00  0.00     0.035 A 
HETATM   21  C   UNL     1      40.788 -15.266   5.321  1.00  0.00     0.046 A 
HETATM   22  C   UNL     1      41.055 -15.909   4.095  1.00  0.00     0.035 A 
HETATM   23  C   UNL     1      40.512 -15.330   2.934  1.00  0.00     0.078 A 
HETATM   24  C   UNL     1      39.776 -14.147   2.984  1.00  0.00     0.040 A 
HETATM   25  C   UNL     1      39.565 -13.508   4.205  1.00  0.00     0.032 A 
BRANCH  22  26
HETATM   26  C   UNL     1      41.921 -17.107   3.997  1.00  0.00     0.112 A 
HETATM   27  S   UNL     1      42.990 -17.587   5.259  1.00  0.00    -0.067 SA
HETATM   28  C   UNL     1      43.617 -18.848   4.275  1.00  0.00     0.035 A 
HETATM   29  C   UNL     1      42.937 -18.851   3.058  1.00  0.00     0.075 A 
HETATM   30  C   UNL     1      44.642 -19.765   4.558  1.00  0.00     0.021 A 
HETATM   31  N   UNL     1      41.964 -17.874   2.920  1.00  0.00    -0.239 NA
HETATM   32  C   UNL     1      43.291 -19.810   2.088  1.00  0.00     0.033 A 
HETATM   33  C   UNL     1      44.316 -20.725   2.355  1.00  0.00     0.002 A 
HETATM   34  C   UNL     1      44.982 -20.699   3.576  1.00  0.00     0.002 A 
ENDBRANCH  22  26
BRANCH  23  35
HETATM   35  O   UNL     1      40.683 -15.864   1.681  1.00  0.00    -0.360 OA
HETATM   36  H   UNL     1      40.042 -15.430   1.077  1.00  0.00     0.217 HD
ENDBRANCH  23  35
ENDBRANCH   1  20
TORSDOF 9
ENDMDL
MODEL 8
REMARK VINA RESULT:      -7.8      2.679      7.488
REMARK  9 active torsions:
REMARK  status: ('A' for Active; 'I' for Inactive)
REMARK    1  A    between atoms: C_2  and  N_3 
REMARK    2  A    between atoms: N_3  and  C_4 
REMARK    3  A    between atoms: N_3  and  C_32 
REMARK    4  A    between atoms: C_7  and  C_8 
REMARK       I    between atoms: C_8  and  N_9 
REMARK    5  A    between atoms: N_9  and  C_10 
REMARK    6  A    between atoms: C_10  and  N_11 
REMARK    7  A    between atoms: N_11  and  C_12 
REMARK    8  A    between atoms: C_14  and  C_15 
REMARK    9  A    between atoms: C_24  and  O_25 
ROOT
HETATM    1  N   UNL     1      42.519 -13.184   2.362  1.00  0.00    -0.337 N 
HETATM    2  H   UNL     1      43.078 -12.368   2.125  1.00  0.00     0.168 HD
ENDROOT
BRANCH   1   3
HETATM    3  C   UNL     1      41.590 -13.519   1.402  1.00  0.00     0.157 C 
HETATM    4  S   UNL     1      40.041 -12.915   1.568  1.00  0.00    -0.047 SA
BRANCH   3   5
HETATM    5  N   UNL     1      42.084 -14.254   0.339  1.00  0.00    -0.201 NA
HETATM    6  C   UNL     1      41.634 -15.504  -0.044  1.00  0.00     0.237 C 
HETATM    7  O   UNL     1      40.964 -15.625  -1.067  1.00  0.00    -0.274 OA
HETATM    8  H   UNL     1      42.041 -13.654  -0.478  1.00  0.00     0.139 HD
BRANCH   6   9
HETATM    9  C   UNL     1      42.084 -16.700   0.721  1.00  0.00     0.026 A 
HETATM   10  C   UNL     1      43.440 -17.028   0.691  1.00  0.00     0.019 A 
HETATM   11  C   UNL     1      43.944 -18.057   1.497  1.00  0.00     0.030 A 
HETATM   12  C   UNL     1      43.125 -18.781   2.377  1.00  0.00     0.030 A 
HETATM   13  C   UNL     1      41.752 -18.469   2.341  1.00  0.00     0.030 A 
HETATM   14  C   UNL     1      41.232 -17.441   1.539  1.00  0.00     0.019 A 
BRANCH  12  15
HETATM   15  N   UNL     1      43.615 -19.768   3.236  1.00  0.00    -0.382 N 
BRANCH  15  16
HETATM   16  C   UNL     1      43.660 -19.463   4.676  1.00  0.00     0.118 C 
HETATM   17  C   UNL     1      45.096 -19.219   5.117  1.00  0.00     0.026 C 
ENDBRANCH  15  16
BRANCH  15  18
HETATM   18  C   UNL     1      44.606 -20.755   2.775  1.00  0.00     0.118 C 
HETATM   19  C   UNL     1      43.973 -21.772   1.836  1.00  0.00     0.026 C 
ENDBRANCH  15  18
ENDBRANCH  12  15
ENDBRANCH   6   9
ENDBRANCH   3   5
ENDBRANCH   1   3
BRANCH   1  20
HETATM   20  C   UNL     1      42.767 -13.765   3.624  1.00  0.00     0.035 A 
HETATM   21  C   UNL     1      42.824 -13.012   4.805  1.00  0.00     0.046 A 
HETATM   22  C   UNL     1      43.147 -13.601   6.044  1.00  0.00     0.035 A 
HETATM   23  C   UNL     1      43.376 -14.990   6.055  1.00  0.00     0.078 A 
HETATM   24  C   UNL     1      43.327 -15.747   4.886  1.00  0.00     0.040 A 
HETATM   25  C   UNL     1      43.048 -15.130   3.667  1.00  0.00     0.032 A 
BRANCH  22  26
HETATM   26  C   UNL     1      43.312 -12.807   7.284  1.00  0.00     0.112 A 
HETATM   27  S   UNL     1      42.222 -11.553   7.736  1.00  0.00    -0.067 SA
HETATM   28  C   UNL     1      43.212 -11.151   9.081  1.00  0.00     0.035 A 
HETATM   29  C   UNL     1      44.292 -12.032   9.126  1.00  0.00     0.075 A 
HETATM   30  C   UNL     1      43.048 -10.126  10.026  1.00  0.00     0.021 A 
HETATM   31  N   UNL     1      44.327 -12.979   8.114  1.00  0.00    -0.239 NA
HETATM   32  C   UNL     1      45.243 -11.886  10.156  1.00  0.00     0.033 A 
HETATM   33  C   UNL     1      45.095 -10.862  11.099  1.00  0.00     0.002 A 
HETATM   34  C   UNL     1      44.010  -9.994  11.032  1.00  0.00     0.002 A 
ENDBRANCH  22  26
BRANCH  23  35
HETATM   35  O   UNL     1      43.684 -15.688   7.196  1.00  0.00    -0.360 OA
HETATM   36  H   UNL     1      44.250 -16.449   6.941  1.00  0.00     0.217 HD
ENDBRANCH  23  35
ENDBRANCH   1  20
TORSDOF 9
ENDMDL
MODEL 9
REMARK VINA RESULT:      -7.7      2.705      7.189
REMARK  9 active torsions:
REMARK  status: ('A' for Active; 'I' for Inactive)
REMARK    1  A    between atoms: C_2  and  N_3 
REMARK    2  A    between atoms: N_3  and  C_4 
REMARK    3  A    between atoms: N_3  and  C_32 
REMARK    4  A    between atoms: C_7  and  C_8 
REMARK       I    between atoms: C_8  and  N_9 
REMARK    5  A    between atoms: N_9  and  C_10 
REMARK    6  A    between atoms: C_10  and  N_11 
REMARK    7  A    between atoms: N_11  and  C_12 
REMARK    8  A    between atoms: C_14  and  C_15 
REMARK    9  A    between atoms: C_24  and  O_25 
ROOT
HETATM    1  N   UNL     1      42.188 -13.421   1.801  1.00  0.00    -0.337 N 
HETATM    2  H   UNL     1      43.093 -12.984   1.646  1.00  0.00     0.168 HD
ENDROOT
BRANCH   1   3
HETATM    3  C   UNL     1      41.617 -13.935   0.658  1.00  0.00     0.157 C 
HETATM    4  S   UNL     1      40.517 -12.983  -0.163  1.00  0.00    -0.047 SA
BRANCH   3   5
HETATM    5  N   UNL     1      42.105 -15.168   0.263  1.00  0.00    -0.201 NA
HETATM    6  C   UNL     1      41.641 -16.390   0.715  1.00  0.00     0.237 C 
HETATM    7  O   UNL     1      40.971 -17.102  -0.029  1.00  0.00    -0.274 OA
HETATM    8  H   UNL     1      42.069 -15.187  -0.751  1.00  0.00     0.139 HD
BRANCH   6   9
HETATM    9  C   UNL     1      42.078 -16.880   2.052  1.00  0.00     0.026 A 
HETATM   10  C   UNL     1      43.448 -16.975   2.303  1.00  0.00     0.019 A 
HETATM   11  C   UNL     1      43.919 -17.298   3.582  1.00  0.00     0.030 A 
HETATM   12  C   UNL     1      43.049 -17.512   4.663  1.00  0.00     0.030 A 
HETATM   13  C   UNL     1      41.673 -17.469   4.366  1.00  0.00     0.030 A 
HETATM   14  C   UNL     1      41.185 -17.148   3.089  1.00  0.00     0.019 A 
BRANCH  12  15
HETATM   15  N   UNL     1      43.497 -17.773   5.960  1.00  0.00    -0.382 N 
BRANCH  15  16
HETATM   16  C   UNL     1      44.533 -18.805   6.134  1.00  0.00     0.118 C 
HETATM   17  C   UNL     1      43.888 -20.160   6.386  1.00  0.00     0.026 C 
ENDBRANCH  15  16
BRANCH  15  18
HETATM   18  C   UNL     1      42.619 -17.567   7.124  1.00  0.00     0.118 C 
HETATM   19  C   UNL     1      43.394 -16.998   8.303  1.00  0.00     0.026 C 
ENDBRANCH  15  18
ENDBRANCH  12  15
ENDBRANCH   6   9
ENDBRANCH   3   5
ENDBRANCH   1   3
BRANCH   1  20
HETATM   20  C   UNL     1      41.686 -13.366   3.119  1.00  0.00     0.035 A 
HETATM   21  C   UNL     1      42.448 -12.903   4.200  1.00  0.00     0.046 A 
HETATM   22  C   UNL     1      41.952 -12.927   5.519  1.00  0.00     0.035 A 
HETATM   23  C   UNL     1      40.641 -13.402   5.705  1.00  0.00     0.078 A 
HETATM   24  C   UNL     1      39.876 -13.869   4.637  1.00  0.00     0.040 A 
HETATM   25  C   UNL     1      40.408 -13.875   3.348  1.00  0.00     0.032 A 
BRANCH  22  26
HETATM   26  C   UNL     1      42.778 -12.538   6.686  1.00  0.00     0.112 A 
HETATM   27  S   UNL     1      44.225 -13.365   7.118  1.00  0.00    -0.067 SA
HETATM   28  C   UNL     1      44.375 -12.405   8.534  1.00  0.00     0.035 A 
HETATM   29  C   UNL     1      43.332 -11.480   8.565  1.00  0.00     0.075 A 
HETATM   30  C   UNL     1      45.343 -12.469   9.549  1.00  0.00     0.021 A 
HETATM   31  N   UNL     1      42.445 -11.552   7.502  1.00  0.00    -0.239 NA
HETATM   32  C   UNL     1      43.255 -10.582   9.649  1.00  0.00     0.033 A 
HETATM   33  C   UNL     1      44.209 -10.642  10.670  1.00  0.00     0.002 A 
HETATM   34  C   UNL     1      45.239 -11.575  10.619  1.00  0.00     0.002 A 
ENDBRANCH  22  26
BRANCH  23  35
HETATM   35  O   UNL     1      40.035 -13.464   6.935  1.00  0.00    -0.360 OA
HETATM   36  H   UNL     1      40.018 -12.555   7.309  1.00  0.00     0.217 HD
ENDBRANCH  23  35
ENDBRANCH   1  20
TORSDOF 9
ENDMDL
MODEL 10
REMARK VINA RESULT:      -7.7      2.988      7.454
REMARK  9 active torsions:
REMARK  status: ('A' for Active; 'I' for Inactive)
REMARK    1  A    between atoms: C_2  and  N_3 
REMARK    2  A    between atoms: N_3  and  C_4 
REMARK    3  A    between atoms: N_3  and  C_32 
REMARK    4  A    between atoms: C_7  and  C_8 
REMARK       I    between atoms: C_8  and  N_9 
REMARK    5  A    between atoms: N_9  and  C_10 
REMARK    6  A    between atoms: C_10  and  N_11 
REMARK    7  A    between atoms: N_11  and  C_12 
REMARK    8  A    between atoms: C_14  and  C_15 
REMARK    9  A    between atoms: C_24  and  O_25 
ROOT
HETATM    1  N   UNL     1      41.561 -13.133   4.045  1.00  0.00    -0.337 N 
HETATM    2  H   UNL     1      42.366 -12.799   4.569  1.00  0.00     0.168 HD
ENDROOT
BRANCH   1   3
HETATM    3  C   UNL     1      40.367 -12.574   4.444  1.00  0.00     0.157 C 
HETATM    4  S   UNL     1      39.609 -13.221   5.784  1.00  0.00    -0.047 SA
BRANCH   3   5
HETATM    5  N   UNL     1      39.976 -11.456   3.729  1.00  0.00    -0.201 NA
HETATM    6  C   UNL     1      38.811 -11.348   2.992  1.00  0.00     0.237 C 
HETATM    7  O   UNL     1      37.888 -10.650   3.406  1.00  0.00    -0.274 OA
HETATM    8  H   UNL     1      39.999 -10.672   4.374  1.00  0.00     0.139 HD
BRANCH   6   9
HETATM    9  C   UNL     1      38.749 -11.974   1.642  1.00  0.00     0.026 A 
HETATM   10  C   UNL     1      39.408 -11.336   0.590  1.00  0.00     0.019 A 
HETATM   11  C   UNL     1      39.500 -11.945  -0.668  1.00  0.00     0.030 A 
HETATM   12  C   UNL     1      38.963 -13.216  -0.921  1.00  0.00     0.030 A 
HETATM   13  C   UNL     1      38.252 -13.808   0.142  1.00  0.00     0.030 A 
HETATM   14  C   UNL     1      38.150 -13.211   1.408  1.00  0.00     0.019 A 
BRANCH  12  15
HETATM   15  N   UNL     1      39.097 -13.870  -2.148  1.00  0.00    -0.382 N 
BRANCH  15  16
HETATM   16  C   UNL     1      37.895 -13.998  -2.991  1.00  0.00     0.118 C 
HETATM   17  C   UNL     1      37.854 -15.374  -3.640  1.00  0.00     0.026 C 
ENDBRANCH  15  16
BRANCH  15  18
HETATM   18  C   UNL     1      40.114 -14.915  -2.347  1.00  0.00     0.118 C 
HETATM   19  C   UNL     1      41.376 -14.341  -2.976  1.00  0.00     0.026 C 
ENDBRANCH  15  18
ENDBRANCH  12  15
ENDBRANCH   6   9
ENDBRANCH   3   5
ENDBRANCH   1   3
BRANCH   1  20
HETATM   20  C   UNL     1      41.817 -14.122   3.071  1.00  0.00     0.035 A 
HETATM   21  C   UNL     1      42.180 -15.434   3.403  1.00  0.00     0.046 A 
HETATM   22  C   UNL     1      42.505 -16.385   2.414  1.00  0.00     0.035 A 
HETATM   23  C   UNL     1      42.413 -15.973   1.071  1.00  0.00     0.078 A 
HETATM   24  C   UNL     1      42.057 -14.669   0.730  1.00  0.00     0.040 A 
HETATM   25  C   UNL     1      41.785 -13.737   1.731  1.00  0.00     0.032 A 
BRANCH  22  26
HETATM   26  C   UNL     1      42.988 -17.745   2.746  1.00  0.00     0.112 A 
HETATM   27  S   UNL     1      43.789 -18.111   4.226  1.00  0.00    -0.067 SA
HETATM   28  C   UNL     1      44.081 -19.717   3.694  1.00  0.00     0.035 A 
HETATM   29  C   UNL     1      43.508 -19.887   2.435  1.00  0.00     0.075 A 
HETATM   30  C   UNL     1      44.774 -20.753   4.342  1.00  0.00     0.021 A 
HETATM   31  N   UNL     1      42.874 -18.769   1.917  1.00  0.00    -0.239 NA
HETATM   32  C   UNL     1      43.626 -21.140   1.800  1.00  0.00     0.033 A 
HETATM   33  C   UNL     1      44.321 -22.177   2.432  1.00  0.00     0.002 A 
HETATM   34  C   UNL     1      44.887 -21.982   3.687  1.00  0.00     0.002 A 
ENDBRANCH  22  26
BRANCH  23  35
HETATM   35  O   UNL     1      42.687 -16.804   0.014  1.00  0.00    -0.360 OA
HETATM   36  H   UNL     1      43.022 -16.251  -0.726  1.00  0.00     0.217 HD
ENDBRANCH  23  35
ENDBRANCH   1  20
TORSDOF 9
ENDMDL
