MODEL 1
REMARK VINA RESULT:      -8.9      0.000      0.000
REMARK  4 active torsions:
REMARK  status: ('A' for Active; 'I' for Inactive)
REMARK    1  A    between atoms: C_7  and  C_8 
REMARK    2  A    between atoms: N_9  and  C_10 
REMARK    3  A    between atoms: C_10  and  C_11 
REMARK       I    between atoms: C_11  and  N_12 
REMARK    4  A    between atoms: N_12  and  C_13 
ROOT
HETATM    1  C   UNL     1      39.992 -14.775   3.899  1.00  0.00     0.158 A 
HETATM    2  N   UNL     1      39.858 -15.219   2.522  1.00  0.00    -0.326 N 
HETATM    3  C   UNL     1      39.256 -14.274   1.719  1.00  0.00     0.255 A 
HETATM    4  O   UNL     1      38.886 -14.400   0.569  1.00  0.00    -0.267 OA
HETATM    5  C   UNL     1      39.080 -13.068   2.538  1.00  0.00     0.040 A 
HETATM    6  C   UNL     1      39.525 -13.350   3.832  1.00  0.00    -0.015 A 
HETATM    7  C   UNL     1      38.584 -11.833   2.165  1.00  0.00     0.017 A 
HETATM    8  C   UNL     1      38.533 -10.842   3.146  1.00  0.00     0.001 A 
HETATM    9  C   UNL     1      38.966 -11.110   4.459  1.00  0.00     0.001 A 
HETATM   10  C   UNL     1      39.461 -12.370   4.812  1.00  0.00     0.011 A 
ENDROOT
BRANCH   1  11
HETATM   11  C   UNL     1      41.417 -14.762   4.364  1.00  0.00     0.004 A 
HETATM   12  C   UNL     1      42.498 -14.026   3.881  1.00  0.00     0.015 A 
HETATM   13  C   UNL     1      42.599 -13.025   2.784  1.00  0.00     0.069 C 
HETATM   14  N   UNL     1      43.603 -14.366   4.621  1.00  0.00    -0.359 N 
HETATM   15  H   UNL     1      44.530 -13.989   4.487  1.00  0.00     0.166 HD
HETATM   16  C   UNL     1      43.281 -15.297   5.578  1.00  0.00     0.043 A 
HETATM   17  C   UNL     1      41.922 -15.567   5.445  1.00  0.00     0.001 A 
HETATM   18  C   UNL     1      44.091 -15.913   6.539  1.00  0.00     0.030 A 
HETATM   19  C   UNL     1      41.341 -16.506   6.326  1.00  0.00     0.014 A 
HETATM   20  C   UNL     1      42.134 -17.131   7.295  1.00  0.00     0.001 A 
HETATM   21  C   UNL     1      43.491 -16.838   7.397  1.00  0.00     0.002 A 
ENDBRANCH   1  11
BRANCH   2  22
HETATM   22  C   UNL     1      40.180 -16.576   2.102  1.00  0.00     0.229 C 
BRANCH  22  23
HETATM   23  C   UNL     1      41.679 -16.887   2.046  1.00  0.00     0.235 C 
HETATM   24  N   UNL     1      42.075 -17.970   2.802  1.00  0.00    -0.355 N 
HETATM   25  H   UNL     1      41.321 -18.555   3.151  1.00  0.00     0.162 HD
HETATM   26  O   UNL     1      42.423 -16.284   1.277  1.00  0.00    -0.272 OA
BRANCH  24  27
HETATM   27  C   UNL     1      43.401 -18.579   2.741  1.00  0.00     0.084 C 
HETATM   28  C   UNL     1      44.175 -18.444   4.066  1.00  0.00     0.025 C 
HETATM   29  C   UNL     1      44.336 -19.768   4.808  1.00  0.00     0.002 C 
HETATM   30  C   UNL     1      44.992 -20.850   3.950  1.00  0.00     0.000 C 
HETATM   31  C   UNL     1      44.704 -20.717   2.454  1.00  0.00     0.002 C 
HETATM   32  C   UNL     1      43.381 -20.011   2.184  1.00  0.00     0.025 C 
ENDBRANCH  24  27
ENDBRANCH  22  23
ENDBRANCH   2  22
TORSDOF 4
ENDMDL
MODEL 2
REMARK VINA RESULT:      -8.6      2.370      4.472
REMARK  4 active torsions:
REMARK  status: ('A' for Active; 'I' for Inactive)
REMARK    1  A    between atoms: C_7  and  C_8 
REMARK    2  A    between atoms: N_9  and  C_10 
REMARK    3  A    between atoms: C_10  and  C_11 
REMARK       I    between atoms: C_11  and  N_12 
REMARK    4  A    between atoms: N_12  and  C_13 
ROOT
HETATM    1  C   UNL     1      42.083 -13.734   1.751  1.00  0.00     0.158 A 
HETATM    2  N   UNL     1      41.405 -12.874   2.706  1.00  0.00    -0.326 N 
HETATM    3  C   UNL     1      40.829 -11.773   2.108  1.00  0.00     0.255 A 
HETATM    4  O   UNL     1      40.316 -10.814   2.650  1.00  0.00    -0.267 OA
HETATM    5  C   UNL     1      40.998 -11.937   0.659  1.00  0.00     0.040 A 
HETATM    6  C   UNL     1      41.733 -13.104   0.434  1.00  0.00    -0.015 A 
HETATM    7  C   UNL     1      40.535 -11.131  -0.364  1.00  0.00     0.017 A 
HETATM    8  C   UNL     1      40.828 -11.523  -1.670  1.00  0.00     0.001 A 
HETATM    9  C   UNL     1      41.576 -12.691  -1.917  1.00  0.00     0.001 A 
HETATM   10  C   UNL     1      42.038 -13.487  -0.863  1.00  0.00     0.011 A 
ENDROOT
BRANCH   1  11
HETATM   11  C   UNL     1      41.538 -15.130   1.744  1.00  0.00     0.004 A 
HETATM   12  C   UNL     1      40.213 -15.561   1.729  1.00  0.00     0.015 A 
HETATM   13  C   UNL     1      38.930 -14.808   1.702  1.00  0.00     0.069 C 
HETATM   14  N   UNL     1      40.217 -16.934   1.743  1.00  0.00    -0.359 N 
HETATM   15  H   UNL     1      39.392 -17.517   1.741  1.00  0.00     0.166 HD
HETATM   16  C   UNL     1      41.502 -17.417   1.761  1.00  0.00     0.043 A 
HETATM   17  C   UNL     1      42.354 -16.316   1.761  1.00  0.00     0.001 A 
HETATM   18  C   UNL     1      41.964 -18.739   1.778  1.00  0.00     0.030 A 
HETATM   19  C   UNL     1      43.746 -16.551   1.779  1.00  0.00     0.014 A 
HETATM   20  C   UNL     1      44.227 -17.866   1.794  1.00  0.00     0.001 A 
HETATM   21  C   UNL     1      43.345 -18.944   1.795  1.00  0.00     0.002 A 
ENDBRANCH   1  11
BRANCH   2  22
HETATM   22  C   UNL     1      41.481 -13.088   4.144  1.00  0.00     0.229 C 
BRANCH  22  23
HETATM   23  C   UNL     1      42.687 -13.912   4.603  1.00  0.00     0.235 C 
HETATM   24  N   UNL     1      42.372 -15.096   5.237  1.00  0.00    -0.355 N 
HETATM   25  H   UNL     1      41.402 -15.386   5.159  1.00  0.00     0.162 HD
HETATM   26  O   UNL     1      43.832 -13.585   4.301  1.00  0.00    -0.272 OA
BRANCH  24  27
HETATM   27  C   UNL     1      43.342 -16.137   5.572  1.00  0.00     0.084 C 
HETATM   28  C   UNL     1      43.902 -15.986   6.998  1.00  0.00     0.025 C 
HETATM   29  C   UNL     1      43.413 -17.069   7.956  1.00  0.00     0.002 C 
HETATM   30  C   UNL     1      43.705 -18.481   7.448  1.00  0.00     0.000 C 
HETATM   31  C   UNL     1      43.716 -18.604   5.924  1.00  0.00     0.002 C 
HETATM   32  C   UNL     1      42.837 -17.554   5.256  1.00  0.00     0.025 C 
ENDBRANCH  24  27
ENDBRANCH  22  23
ENDBRANCH   2  22
TORSDOF 4
ENDMDL
MODEL 3
REMARK VINA RESULT:      -8.5      1.787      2.572
REMARK  4 active torsions:
REMARK  status: ('A' for Active; 'I' for Inactive)
REMARK    1  A    between atoms: C_7  and  C_8 
REMARK    2  A    between atoms: N_9  and  C_10 
REMARK    3  A    between atoms: C_10  and  C_11 
REMARK       I    between atoms: C_11  and  N_12 
REMARK    4  A    between atoms: N_12  and  C_13 
ROOT
HETATM    1  C   UNL     1      40.195 -14.825   1.300  1.00  0.00     0.158 A 
HETATM    2  N   UNL     1      40.785 -15.175   0.018  1.00  0.00    -0.326 N 
HETATM    3  C   UNL     1      40.141 -14.570  -1.040  1.00  0.00     0.255 A 
HETATM    4  O   UNL     1      40.311 -14.770  -2.227  1.00  0.00    -0.267 OA
HETATM    5  C   UNL     1      39.143 -13.658  -0.469  1.00  0.00     0.040 A 
HETATM    6  C   UNL     1      39.173 -13.793   0.922  1.00  0.00    -0.015 A 
HETATM    7  C   UNL     1      38.295 -12.783  -1.121  1.00  0.00     0.017 A 
HETATM    8  C   UNL     1      37.441 -12.012  -0.332  1.00  0.00     0.001 A 
HETATM    9  C   UNL     1      37.449 -12.141   1.070  1.00  0.00     0.001 A 
HETATM   10  C   UNL     1      38.314 -13.038   1.706  1.00  0.00     0.011 A 
ENDROOT
BRANCH   1  11
HETATM   11  C   UNL     1      41.175 -14.173   2.227  1.00  0.00     0.004 A 
HETATM   12  C   UNL     1      41.953 -13.032   2.031  1.00  0.00     0.015 A 
HETATM   13  C   UNL     1      42.060 -12.097   0.879  1.00  0.00     0.069 C 
HETATM   14  N   UNL     1      42.706 -12.838   3.163  1.00  0.00    -0.359 N 
HETATM   15  H   UNL     1      43.366 -12.086   3.298  1.00  0.00     0.166 HD
HETATM   16  C   UNL     1      42.444 -13.811   4.096  1.00  0.00     0.043 A 
HETATM   17  C   UNL     1      41.491 -14.662   3.544  1.00  0.00     0.001 A 
HETATM   18  C   UNL     1      42.981 -13.994   5.376  1.00  0.00     0.030 A 
HETATM   19  C   UNL     1      41.050 -15.758   4.317  1.00  0.00     0.014 A 
HETATM   20  C   UNL     1      41.574 -15.957   5.601  1.00  0.00     0.001 A 
HETATM   21  C   UNL     1      42.528 -15.086   6.120  1.00  0.00     0.002 A 
ENDBRANCH   1  11
BRANCH   2  22
HETATM   22  C   UNL     1      41.830 -16.179  -0.114  1.00  0.00     0.229 C 
BRANCH  22  23
HETATM   23  C   UNL     1      41.714 -17.354   0.861  1.00  0.00     0.235 C 
HETATM   24  N   UNL     1      42.878 -17.668   1.532  1.00  0.00    -0.355 N 
HETATM   25  H   UNL     1      43.621 -16.980   1.459  1.00  0.00     0.162 HD
HETATM   26  O   UNL     1      40.627 -17.872   1.104  1.00  0.00    -0.272 OA
BRANCH  24  27
HETATM   27  C   UNL     1      42.959 -18.602   2.652  1.00  0.00     0.084 C 
HETATM   28  C   UNL     1      43.263 -20.042   2.201  1.00  0.00     0.025 C 
HETATM   29  C   UNL     1      44.666 -20.510   2.579  1.00  0.00     0.002 C 
HETATM   30  C   UNL     1      44.947 -20.382   4.076  1.00  0.00     0.000 C 
HETATM   31  C   UNL     1      44.196 -19.235   4.755  1.00  0.00     0.002 C 
HETATM   32  C   UNL     1      43.873 -18.107   3.784  1.00  0.00     0.025 C 
ENDBRANCH  24  27
ENDBRANCH  22  23
ENDBRANCH   2  22
TORSDOF 4
ENDMDL
MODEL 4
REMARK VINA RESULT:      -8.4      2.589      5.179
REMARK  4 active torsions:
REMARK  status: ('A' for Active; 'I' for Inactive)
REMARK    1  A    between atoms: C_7  and  C_8 
REMARK    2  A    between atoms: N_9  and  C_10 
REMARK    3  A    between atoms: C_10  and  C_11 
REMARK       I    between atoms: C_11  and  N_12 
REMARK    4  A    between atoms: N_12  and  C_13 
ROOT
HETATM    1  C   UNL     1      41.376 -14.578   1.460  1.00  0.00     0.158 A 
HETATM    2  N   UNL     1      41.313 -15.977   1.850  1.00  0.00    -0.326 N 
HETATM    3  C   UNL     1      40.970 -16.140   3.175  1.00  0.00     0.255 A 
HETATM    4  O   UNL     1      40.969 -17.168   3.823  1.00  0.00    -0.267 OA
HETATM    5  C   UNL     1      40.652 -14.807   3.701  1.00  0.00     0.040 A 
HETATM    6  C   UNL     1      40.879 -13.871   2.687  1.00  0.00    -0.015 A 
HETATM    7  C   UNL     1      40.193 -14.458   4.957  1.00  0.00     0.017 A 
HETATM    8  C   UNL     1      39.956 -13.104   5.198  1.00  0.00     0.001 A 
HETATM    9  C   UNL     1      40.189 -12.146   4.193  1.00  0.00     0.001 A 
HETATM   10  C   UNL     1      40.658 -12.524   2.931  1.00  0.00     0.011 A 
ENDROOT
BRANCH   1  11
HETATM   11  C   UNL     1      40.437 -14.250   0.338  1.00  0.00     0.004 A 
HETATM   12  C   UNL     1      39.045 -14.313   0.303  1.00  0.00     0.015 A 
HETATM   13  C   UNL     1      38.049 -14.702   1.337  1.00  0.00     0.069 C 
HETATM   14  N   UNL     1      38.639 -13.927  -0.950  1.00  0.00    -0.359 N 
HETATM   15  H   UNL     1      37.679 -13.883  -1.261  1.00  0.00     0.166 HD
HETATM   16  C   UNL     1      39.718 -13.608  -1.737  1.00  0.00     0.043 A 
HETATM   17  C   UNL     1      40.859 -13.798  -0.962  1.00  0.00     0.001 A 
HETATM   18  C   UNL     1      39.762 -13.171  -3.066  1.00  0.00     0.030 A 
HETATM   19  C   UNL     1      42.115 -13.534  -1.551  1.00  0.00     0.014 A 
HETATM   20  C   UNL     1      42.180 -13.094  -2.879  1.00  0.00     0.001 A 
HETATM   21  C   UNL     1      41.017 -12.917  -3.624  1.00  0.00     0.002 A 
ENDBRANCH   1  11
BRANCH   2  22
HETATM   22  C   UNL     1      41.730 -17.056   0.965  1.00  0.00     0.229 C 
BRANCH  22  23
HETATM   23  C   UNL     1      43.036 -17.744   1.370  1.00  0.00     0.235 C 
HETATM   24  N   UNL     1      42.881 -18.980   1.962  1.00  0.00    -0.355 N 
HETATM   25  H   UNL     1      41.952 -19.383   1.889  1.00  0.00     0.162 HD
HETATM   26  O   UNL     1      44.126 -17.269   1.061  1.00  0.00    -0.272 OA
BRANCH  24  27
HETATM   27  C   UNL     1      43.976 -19.907   2.237  1.00  0.00     0.084 C 
HETATM   28  C   UNL     1      44.611 -19.677   3.622  1.00  0.00     0.025 C 
HETATM   29  C   UNL     1      44.306 -20.792   4.618  1.00  0.00     0.002 C 
HETATM   30  C   UNL     1      44.712 -22.172   4.102  1.00  0.00     0.000 C 
HETATM   31  C   UNL     1      44.635 -22.315   2.581  1.00  0.00     0.002 C 
HETATM   32  C   UNL     1      43.607 -21.374   1.967  1.00  0.00     0.025 C 
ENDBRANCH  24  27
ENDBRANCH  22  23
ENDBRANCH   2  22
TORSDOF 4
ENDMDL
MODEL 5
REMARK VINA RESULT:      -8.4      1.844      6.422
REMARK  4 active torsions:
REMARK  status: ('A' for Active; 'I' for Inactive)
REMARK    1  A    between atoms: C_7  and  C_8 
REMARK    2  A    between atoms: N_9  and  C_10 
REMARK    3  A    between atoms: C_10  and  C_11 
REMARK       I    between atoms: C_11  and  N_12 
REMARK    4  A    between atoms: N_12  and  C_13 
ROOT
HETATM    1  C   UNL     1      43.257 -15.762   5.042  1.00  0.00     0.158 A 
HETATM    2  N   UNL     1      43.416 -16.637   3.892  1.00  0.00    -0.326 N 
HETATM    3  C   UNL     1      43.853 -17.896   4.244  1.00  0.00     0.255 A 
HETATM    4  O   UNL     1      44.206 -18.795   3.506  1.00  0.00    -0.267 OA
HETATM    5  C   UNL     1      43.877 -17.945   5.711  1.00  0.00     0.040 A 
HETATM    6  C   UNL     1      43.514 -16.686   6.197  1.00  0.00    -0.015 A 
HETATM    7  C   UNL     1      44.181 -19.011   6.537  1.00  0.00     0.017 A 
HETATM    8  C   UNL     1      44.116 -18.792   7.913  1.00  0.00     0.001 A 
HETATM    9  C   UNL     1      43.762 -17.528   8.422  1.00  0.00     0.001 A 
HETATM   10  C   UNL     1      43.464 -16.463   7.564  1.00  0.00     0.011 A 
ENDROOT
BRANCH   1  11
HETATM   11  C   UNL     1      41.859 -15.242   5.181  1.00  0.00     0.004 A 
HETATM   12  C   UNL     1      40.687 -15.928   5.497  1.00  0.00     0.015 A 
HETATM   13  C   UNL     1      40.436 -17.362   5.805  1.00  0.00     0.069 C 
HETATM   14  N   UNL     1      39.655 -15.022   5.492  1.00  0.00    -0.359 N 
HETATM   15  H   UNL     1      38.688 -15.243   5.683  1.00  0.00     0.166 HD
HETATM   16  C   UNL     1      40.112 -13.764   5.189  1.00  0.00     0.043 A 
HETATM   17  C   UNL     1      41.486 -13.864   4.989  1.00  0.00     0.001 A 
HETATM   18  C   UNL     1      39.411 -12.557   5.079  1.00  0.00     0.030 A 
HETATM   19  C   UNL     1      42.199 -12.690   4.661  1.00  0.00     0.014 A 
HETATM   20  C   UNL     1      41.515 -11.473   4.548  1.00  0.00     0.001 A 
HETATM   21  C   UNL     1      40.140 -11.410   4.753  1.00  0.00     0.002 A 
ENDBRANCH   1  11
BRANCH   2  22
HETATM   22  C   UNL     1      43.280 -16.161   2.522  1.00  0.00     0.229 C 
BRANCH  22  23
HETATM   23  C   UNL     1      41.871 -16.295   1.938  1.00  0.00     0.235 C 
HETATM   24  N   UNL     1      41.239 -15.099   1.668  1.00  0.00    -0.355 N 
HETATM   25  H   UNL     1      41.834 -14.277   1.698  1.00  0.00     0.162 HD
HETATM   26  O   UNL     1      41.416 -17.392   1.622  1.00  0.00    -0.272 OA
BRANCH  24  27
HETATM   27  C   UNL     1      39.990 -14.976   0.921  1.00  0.00     0.084 C 
HETATM   28  C   UNL     1      38.810 -14.538   1.810  1.00  0.00     0.025 C 
HETATM   29  C   UNL     1      38.339 -13.113   1.529  1.00  0.00     0.002 C 
HETATM   30  C   UNL     1      37.973 -12.891   0.062  1.00  0.00     0.000 C 
HETATM   31  C   UNL     1      38.769 -13.756  -0.916  1.00  0.00     0.002 C 
HETATM   32  C   UNL     1      40.135 -14.142  -0.362  1.00  0.00     0.025 C 
ENDBRANCH  24  27
ENDBRANCH  22  23
ENDBRANCH   2  22
TORSDOF 4
ENDMDL
MODEL 6
REMARK VINA RESULT:      -8.0      2.334      4.163
REMARK  4 active torsions:
REMARK  status: ('A' for Active; 'I' for Inactive)
REMARK    1  A    between atoms: C_7  and  C_8 
REMARK    2  A    between atoms: N_9  and  C_10 
REMARK    3  A    between atoms: C_10  and  C_11 
REMARK       I    between atoms: C_11  and  N_12 
REMARK    4  A    between atoms: N_12  and  C_13 
ROOT
HETATM    1  C   UNL     1      40.141 -14.727   4.329  1.00  0.00     0.158 A 
HETATM    2  N   UNL     1      39.856 -14.852   2.909  1.00  0.00    -0.326 N 
HETATM    3  C   UNL     1      39.229 -13.736   2.397  1.00  0.00     0.255 A 
HETATM    4  O   UNL     1      38.746 -13.595   1.291  1.00  0.00    -0.267 OA
HETATM    5  C   UNL     1      39.190 -12.737   3.472  1.00  0.00     0.040 A 
HETATM    6  C   UNL     1      39.739 -13.310   4.622  1.00  0.00    -0.015 A 
HETATM    7  C   UNL     1      38.721 -11.437   3.430  1.00  0.00     0.017 A 
HETATM    8  C   UNL     1      38.811 -10.687   4.603  1.00  0.00     0.001 A 
HETATM    9  C   UNL     1      39.352 -11.251   5.775  1.00  0.00     0.001 A 
HETATM   10  C   UNL     1      39.816 -12.571   5.792  1.00  0.00     0.011 A 
ENDROOT
BRANCH   1  11
HETATM   11  C   UNL     1      41.602 -14.855   4.637  1.00  0.00     0.004 A 
HETATM   12  C   UNL     1      42.689 -14.204   4.055  1.00  0.00     0.015 A 
HETATM   13  C   UNL     1      42.765 -13.185   2.974  1.00  0.00     0.069 C 
HETATM   14  N   UNL     1      43.830 -14.664   4.664  1.00  0.00    -0.359 N 
HETATM   15  H   UNL     1      44.769 -14.368   4.438  1.00  0.00     0.166 HD
HETATM   16  C   UNL     1      43.527 -15.591   5.631  1.00  0.00     0.043 A 
HETATM   17  C   UNL     1      42.143 -15.734   5.641  1.00  0.00     0.001 A 
HETATM   18  C   UNL     1      44.375 -16.306   6.486  1.00  0.00     0.030 A 
HETATM   19  C   UNL     1      41.574 -16.643   6.560  1.00  0.00     0.014 A 
HETATM   20  C   UNL     1      42.405 -17.366   7.425  1.00  0.00     0.001 A 
HETATM   21  C   UNL     1      43.786 -17.199   7.385  1.00  0.00     0.002 A 
ENDBRANCH   1  11
BRANCH   2  22
HETATM   22  C   UNL     1      40.072 -16.090   2.174  1.00  0.00     0.229 C 
BRANCH  22  23
HETATM   23  C   UNL     1      41.073 -15.981   1.020  1.00  0.00     0.235 C 
HETATM   24  N   UNL     1      40.551 -15.487  -0.157  1.00  0.00    -0.355 N 
HETATM   25  H   UNL     1      39.627 -15.071  -0.082  1.00  0.00     0.162 HD
HETATM   26  O   UNL     1      42.269 -16.200   1.196  1.00  0.00    -0.272 OA
BRANCH  24  27
HETATM   27  C   UNL     1      41.350 -15.101  -1.317  1.00  0.00     0.084 C 
HETATM   28  C   UNL     1      40.694 -15.509  -2.649  1.00  0.00     0.025 C 
HETATM   29  C   UNL     1      40.172 -14.322  -3.454  1.00  0.00     0.002 C 
HETATM   30  C   UNL     1      41.249 -13.272  -3.724  1.00  0.00     0.000 C 
HETATM   31  C   UNL     1      42.321 -13.186  -2.637  1.00  0.00     0.002 C 
HETATM   32  C   UNL     1      41.798 -13.631  -1.278  1.00  0.00     0.025 C 
ENDBRANCH  24  27
ENDBRANCH  22  23
ENDBRANCH   2  22
TORSDOF 4
ENDMDL
MODEL 7
REMARK VINA RESULT:      -7.8      3.701      6.474
REMARK  4 active torsions:
REMARK  status: ('A' for Active; 'I' for Inactive)
REMARK    1  A    between atoms: C_7  and  C_8 
REMARK    2  A    between atoms: N_9  and  C_10 
REMARK    3  A    between atoms: C_10  and  C_11 
REMARK       I    between atoms: C_11  and  N_12 
REMARK    4  A    between atoms: N_12  and  C_13 
ROOT
HETATM    1  C   UNL     1      40.935 -13.066  -0.251  1.00  0.00     0.158 A 
HETATM    2  N   UNL     1      40.555 -12.576   1.064  1.00  0.00    -0.326 N 
HETATM    3  C   UNL     1      41.154 -11.374   1.373  1.00  0.00     0.255 A 
HETATM    4  O   UNL     1      41.143 -10.788   2.437  1.00  0.00    -0.267 OA
HETATM    5  C   UNL     1      41.882 -10.939   0.174  1.00  0.00     0.040 A 
HETATM    6  C   UNL     1      41.749 -11.931  -0.801  1.00  0.00    -0.015 A 
HETATM    7  C   UNL     1      42.585  -9.768  -0.035  1.00  0.00     0.017 A 
HETATM    8  C   UNL     1      43.181  -9.594  -1.285  1.00  0.00     0.001 A 
HETATM    9  C   UNL     1      43.068 -10.587  -2.277  1.00  0.00     0.001 A 
HETATM   10  C   UNL     1      42.354 -11.767  -2.038  1.00  0.00     0.011 A 
ENDROOT
BRANCH   1  11
HETATM   11  C   UNL     1      39.757 -13.258  -1.157  1.00  0.00     0.004 A 
HETATM   12  C   UNL     1      38.599 -12.492  -1.276  1.00  0.00     0.015 A 
HETATM   13  C   UNL     1      38.158 -11.255  -0.577  1.00  0.00     0.069 C 
HETATM   14  N   UNL     1      37.805 -13.076  -2.232  1.00  0.00    -0.359 N 
HETATM   15  H   UNL     1      36.900 -12.735  -2.522  1.00  0.00     0.166 HD
HETATM   16  C   UNL     1      38.407 -14.197  -2.748  1.00  0.00     0.043 A 
HETATM   17  C   UNL     1      39.630 -14.340  -2.098  1.00  0.00     0.001 A 
HETATM   18  C   UNL     1      37.958 -15.085  -3.733  1.00  0.00     0.030 A 
HETATM   19  C   UNL     1      40.449 -15.434  -2.455  1.00  0.00     0.014 A 
HETATM   20  C   UNL     1      40.018 -16.331  -3.440  1.00  0.00     0.001 A 
HETATM   21  C   UNL     1      38.787 -16.157  -4.067  1.00  0.00     0.002 A 
ENDBRANCH   1  11
BRANCH   2  22
HETATM   22  C   UNL     1      39.759 -13.366   1.993  1.00  0.00     0.229 C 
BRANCH  22  23
HETATM   23  C   UNL     1      40.020 -14.874   1.935  1.00  0.00     0.235 C 
HETATM   24  N   UNL     1      41.298 -15.256   2.290  1.00  0.00    -0.355 N 
HETATM   25  H   UNL     1      41.859 -14.535   2.733  1.00  0.00     0.162 HD
HETATM   26  O   UNL     1      39.109 -15.667   1.713  1.00  0.00    -0.272 OA
BRANCH  24  27
HETATM   27  C   UNL     1      41.715 -16.638   2.511  1.00  0.00     0.084 C 
HETATM   28  C   UNL     1      42.008 -17.384   1.195  1.00  0.00     0.025 C 
HETATM   29  C   UNL     1      43.492 -17.674   0.985  1.00  0.00     0.002 C 
HETATM   30  C   UNL     1      44.114 -18.445   2.149  1.00  0.00     0.000 C 
HETATM   31  C   UNL     1      43.465 -18.156   3.504  1.00  0.00     0.002 C 
HETATM   32  C   UNL     1      42.835 -16.770   3.555  1.00  0.00     0.025 C 
ENDBRANCH  24  27
ENDBRANCH  22  23
ENDBRANCH   2  22
TORSDOF 4
ENDMDL
MODEL 8
REMARK VINA RESULT:      -7.8      2.048      7.102
REMARK  4 active torsions:
REMARK  status: ('A' for Active; 'I' for Inactive)
REMARK    1  A    between atoms: C_7  and  C_8 
REMARK    2  A    between atoms: N_9  and  C_10 
REMARK    3  A    between atoms: C_10  and  C_11 
REMARK       I    between atoms: C_11  and  N_12 
REMARK    4  A    between atoms: N_12  and  C_13 
ROOT
HETATM    1  C   UNL     1      41.594 -15.110   4.360  1.00  0.00     0.158 A 
HETATM    2  N   UNL     1      42.676 -14.175   4.099  1.00  0.00    -0.326 N 
HETATM    3  C   UNL     1      43.652 -14.214   5.072  1.00  0.00     0.255 A 
HETATM    4  O   UNL     1      44.601 -13.466   5.205  1.00  0.00    -0.267 OA
HETATM    5  C   UNL     1      43.305 -15.312   5.982  1.00  0.00     0.040 A 
HETATM    6  C   UNL     1      42.089 -15.860   5.563  1.00  0.00    -0.015 A 
HETATM    7  C   UNL     1      44.007 -15.788   7.073  1.00  0.00     0.017 A 
HETATM    8  C   UNL     1      43.455 -16.864   7.770  1.00  0.00     0.001 A 
HETATM    9  C   UNL     1      42.226 -17.422   7.369  1.00  0.00     0.001 A 
HETATM   10  C   UNL     1      41.532 -16.918   6.263  1.00  0.00     0.011 A 
ENDROOT
BRANCH   1  11
HETATM   11  C   UNL     1      41.411 -16.103   3.252  1.00  0.00     0.004 A 
HETATM   12  C   UNL     1      40.396 -16.189   2.301  1.00  0.00     0.015 A 
HETATM   13  C   UNL     1      39.195 -15.345   2.060  1.00  0.00     0.069 C 
HETATM   14  N   UNL     1      40.657 -17.277   1.505  1.00  0.00    -0.359 N 
HETATM   15  H   UNL     1      40.081 -17.583   0.733  1.00  0.00     0.166 HD
HETATM   16  C   UNL     1      41.812 -17.904   1.900  1.00  0.00     0.043 A 
HETATM   17  C   UNL     1      42.311 -17.196   2.990  1.00  0.00     0.001 A 
HETATM   18  C   UNL     1      42.443 -19.039   1.375  1.00  0.00     0.030 A 
HETATM   19  C   UNL     1      43.508 -17.647   3.586  1.00  0.00     0.014 A 
HETATM   20  C   UNL     1      44.155 -18.779   3.074  1.00  0.00     0.001 A 
HETATM   21  C   UNL     1      43.626 -19.464   1.983  1.00  0.00     0.002 A 
ENDBRANCH   1  11
BRANCH   2  22
HETATM   22  C   UNL     1      42.628 -13.205   3.015  1.00  0.00     0.229 C 
BRANCH  22  23
HETATM   23  C   UNL     1      41.506 -12.169   3.135  1.00  0.00     0.235 C 
HETATM   24  N   UNL     1      41.637 -11.293   4.193  1.00  0.00    -0.355 N 
HETATM   25  H   UNL     1      42.543 -11.299   4.652  1.00  0.00     0.162 HD
HETATM   26  O   UNL     1      40.642 -12.066   2.269  1.00  0.00    -0.272 OA
BRANCH  24  27
HETATM   27  C   UNL     1      40.814 -10.102   4.384  1.00  0.00     0.084 C 
HETATM   28  C   UNL     1      39.506 -10.402   5.141  1.00  0.00     0.025 C 
HETATM   29  C   UNL     1      39.482  -9.829   6.555  1.00  0.00     0.002 C 
HETATM   30  C   UNL     1      39.747  -8.324   6.587  1.00  0.00     0.000 C 
HETATM   31  C   UNL     1      40.653  -7.827   5.459  1.00  0.00     0.002 C 
HETATM   32  C   UNL     1      41.599  -8.913   4.962  1.00  0.00     0.025 C 
ENDBRANCH  24  27
ENDBRANCH  22  23
ENDBRANCH   2  22
TORSDOF 4
ENDMDL
MODEL 9
REMARK VINA RESULT:      -7.8      1.923      6.685
REMARK  4 active torsions:
REMARK  status: ('A' for Active; 'I' for Inactive)
REMARK    1  A    between atoms: C_7  and  C_8 
REMARK    2  A    between atoms: N_9  and  C_10 
REMARK    3  A    between atoms: C_10  and  C_11 
REMARK       I    between atoms: C_11  and  N_12 
REMARK    4  A    between atoms: N_12  and  C_13 
ROOT
HETATM    1  C   UNL     1      41.867 -15.437   4.214  1.00  0.00     0.158 A 
HETATM    2  N   UNL     1      42.927 -14.469   3.984  1.00  0.00    -0.326 N 
HETATM    3  C   UNL     1      43.791 -14.370   5.053  1.00  0.00     0.255 A 
HETATM    4  O   UNL     1      44.684 -13.562   5.217  1.00  0.00    -0.267 OA
HETATM    5  C   UNL     1      43.398 -15.404   6.018  1.00  0.00     0.040 A 
HETATM    6  C   UNL     1      42.262 -16.052   5.525  1.00  0.00    -0.015 A 
HETATM    7  C   UNL     1      43.999 -15.746   7.215  1.00  0.00     0.017 A 
HETATM    8  C   UNL     1      43.424 -16.786   7.945  1.00  0.00     0.001 A 
HETATM    9  C   UNL     1      42.273 -17.444   7.470  1.00  0.00     0.001 A 
HETATM   10  C   UNL     1      41.681 -17.076   6.257  1.00  0.00     0.011 A 
ENDROOT
BRANCH   1  11
HETATM   11  C   UNL     1      41.851 -16.529   3.189  1.00  0.00     0.004 A 
HETATM   12  C   UNL     1      41.001 -16.707   2.099  1.00  0.00     0.015 A 
HETATM   13  C   UNL     1      39.863 -15.893   1.592  1.00  0.00     0.069 C 
HETATM   14  N   UNL     1      41.373 -17.864   1.460  1.00  0.00    -0.359 N 
HETATM   15  H   UNL     1      40.925 -18.242   0.637  1.00  0.00     0.166 HD
HETATM   16  C   UNL     1      42.443 -18.447   2.091  1.00  0.00     0.043 A 
HETATM   17  C   UNL     1      42.769 -17.639   3.176  1.00  0.00     0.001 A 
HETATM   18  C   UNL     1      43.136 -19.624   1.781  1.00  0.00     0.030 A 
HETATM   19  C   UNL     1      43.850 -18.029   3.996  1.00  0.00     0.014 A 
HETATM   20  C   UNL     1      44.557 -19.201   3.700  1.00  0.00     0.001 A 
HETATM   21  C   UNL     1      44.202 -19.986   2.608  1.00  0.00     0.002 A 
ENDBRANCH   1  11
BRANCH   2  22
HETATM   22  C   UNL     1      42.952 -13.599   2.817  1.00  0.00     0.229 C 
BRANCH  22  23
HETATM   23  C   UNL     1      41.832 -12.555   2.774  1.00  0.00     0.235 C 
HETATM   24  N   UNL     1      41.129 -12.508   1.589  1.00  0.00    -0.355 N 
HETATM   25  H   UNL     1      41.292 -13.284   0.955  1.00  0.00     0.162 HD
HETATM   26  O   UNL     1      41.523 -11.916   3.776  1.00  0.00    -0.272 OA
BRANCH  24  27
HETATM   27  C   UNL     1      39.897 -11.748   1.390  1.00  0.00     0.084 C 
HETATM   28  C   UNL     1      39.742 -11.241  -0.056  1.00  0.00     0.025 C 
HETATM   29  C   UNL     1      38.637 -11.955  -0.831  1.00  0.00     0.002 C 
HETATM   30  C   UNL     1      37.283 -11.885  -0.126  1.00  0.00     0.000 C 
HETATM   31  C   UNL     1      37.378 -11.820   1.399  1.00  0.00     0.002 C 
HETATM   32  C   UNL     1      38.651 -12.472   1.924  1.00  0.00     0.025 C 
ENDBRANCH  24  27
ENDBRANCH  22  23
ENDBRANCH   2  22
TORSDOF 4
ENDMDL
MODEL 10
REMARK VINA RESULT:      -7.7      2.405      6.157
REMARK  4 active torsions:
REMARK  status: ('A' for Active; 'I' for Inactive)
REMARK    1  A    between atoms: C_7  and  C_8 
REMARK    2  A    between atoms: N_9  and  C_10 
REMARK    3  A    between atoms: C_10  and  C_11 
REMARK       I    between atoms: C_11  and  N_12 
REMARK    4  A    between atoms: N_12  and  C_13 
ROOT
HETATM    1  C   UNL     1      42.244 -15.650   3.884  1.00  0.00     0.158 A 
HETATM    2  N   UNL     1      41.693 -16.754   3.116  1.00  0.00    -0.326 N 
HETATM    3  C   UNL     1      42.352 -17.942   3.352  1.00  0.00     0.255 A 
HETATM    4  O   UNL     1      42.215 -18.998   2.767  1.00  0.00    -0.267 OA
HETATM    5  C   UNL     1      43.320 -17.687   4.427  1.00  0.00     0.040 A 
HETATM    6  C   UNL     1      43.257 -16.331   4.759  1.00  0.00    -0.015 A 
HETATM    7  C   UNL     1      44.167 -18.578   5.057  1.00  0.00     0.017 A 
HETATM    8  C   UNL     1      44.988 -18.074   6.067  1.00  0.00     0.001 A 
HETATM    9  C   UNL     1      44.947 -16.708   6.409  1.00  0.00     0.001 A 
HETATM   10  C   UNL     1      44.083 -15.826   5.751  1.00  0.00     0.011 A 
ENDROOT
BRANCH   1  11
HETATM   11  C   UNL     1      41.230 -15.010   4.782  1.00  0.00     0.004 A 
HETATM   12  C   UNL     1      40.537 -15.553   5.863  1.00  0.00     0.015 A 
HETATM   13  C   UNL     1      40.577 -16.905   6.482  1.00  0.00     0.069 C 
HETATM   14  N   UNL     1      39.706 -14.580   6.361  1.00  0.00    -0.359 N 
HETATM   15  H   UNL     1      39.080 -14.697   7.146  1.00  0.00     0.166 HD
HETATM   16  C   UNL     1      39.835 -13.415   5.646  1.00  0.00     0.043 A 
HETATM   17  C   UNL     1      40.780 -13.648   4.651  1.00  0.00     0.001 A 
HETATM   18  C   UNL     1      39.185 -12.186   5.809  1.00  0.00     0.030 A 
HETATM   19  C   UNL     1      41.094 -12.590   3.771  1.00  0.00     0.014 A 
HETATM   20  C   UNL     1      40.456 -11.352   3.919  1.00  0.00     0.001 A 
HETATM   21  C   UNL     1      39.514 -11.156   4.925  1.00  0.00     0.002 A 
ENDBRANCH   1  11
BRANCH   2  22
HETATM   22  C   UNL     1      40.669 -16.565   2.099  1.00  0.00     0.229 C 
BRANCH  22  23
HETATM   23  C   UNL     1      41.145 -15.830   0.843  1.00  0.00     0.235 C 
HETATM   24  N   UNL     1      40.140 -15.263   0.087  1.00  0.00    -0.355 N 
HETATM   25  H   UNL     1      39.229 -15.222   0.535  1.00  0.00     0.162 HD
HETATM   26  O   UNL     1      42.341 -15.662   0.621  1.00  0.00    -0.272 OA
BRANCH  24  27
HETATM   27  C   UNL     1      40.363 -14.344  -1.026  1.00  0.00     0.084 C 
HETATM   28  C   UNL     1      40.899 -12.975  -0.566  1.00  0.00     0.025 C 
HETATM   29  C   UNL     1      42.356 -12.737  -0.951  1.00  0.00     0.002 C 
HETATM   30  C   UNL     1      42.603 -12.894  -2.451  1.00  0.00     0.000 C 
HETATM   31  C   UNL     1      41.673 -13.898  -3.133  1.00  0.00     0.002 C 
HETATM   32  C   UNL     1      41.178 -14.969  -2.170  1.00  0.00     0.025 C 
ENDBRANCH  24  27
ENDBRANCH  22  23
ENDBRANCH   2  22
TORSDOF 4
ENDMDL
