MODEL 1
REMARK VINA RESULT:      -8.7      0.000      0.000
REMARK  5 active torsions:
REMARK  status: ('A' for Active; 'I' for Inactive)
REMARK    1  A    between atoms: C_3  and  N_4 
REMARK       I    between atoms: N_4  and  C_5 
REMARK    2  A    between atoms: C_9  and  N_10 
REMARK       I    between atoms: N_10  and  C_11 
REMARK    3  A    between atoms: C_11  and  C_12 
REMARK    4  A    between atoms: C_17  and  C_18 
REMARK    5  A    between atoms: C_24  and  C_25 
ROOT
HETATM    1  C   UNL     1      41.427 -15.800   0.605  1.00  0.00     0.148 A 
HETATM    2  N   UNL     1      41.386 -16.138  -0.705  1.00  0.00    -0.165 NA
HETATM    3  N   UNL     1      41.224 -14.956  -1.331  1.00  0.00    -0.240 N 
HETATM    4  C   UNL     1      41.200 -13.882  -0.485  1.00  0.00     0.123 A 
HETATM    5  N   UNL     1      41.095 -12.618  -0.945  1.00  0.00    -0.364 N 
HETATM    6  C   UNL     1      40.786 -12.332  -2.345  1.00  0.00     0.143 C 
HETATM    7  C   UNL     1      41.399 -13.418  -3.247  1.00  0.00     0.068 C 
HETATM    8  C   UNL     1      41.134 -14.862  -2.776  1.00  0.00     0.221 C 
HETATM    9  C   UNL     1      41.321 -14.394   0.778  1.00  0.00     0.089 A 
HETATM   10  H   UNL     1      40.913 -11.848  -0.301  1.00  0.00     0.162 HD
ENDROOT
BRANCH   1  11
HETATM   11  C   UNL     1      41.566 -16.807   1.671  1.00  0.00     0.276 C 
HETATM   12  N   UNL     1      42.821 -17.384   1.678  1.00  0.00    -0.322 N 
HETATM   13  H   UNL     1      43.436 -17.024   0.950  1.00  0.00     0.169 HD
HETATM   14  O   UNL     1      40.634 -17.071   2.425  1.00  0.00    -0.266 OA
BRANCH  12  15
HETATM   15  C   UNL     1      43.315 -18.396   2.520  1.00  0.00     0.037 A 
HETATM   16  C   UNL     1      43.330 -18.310   3.914  1.00  0.00     0.059 A 
HETATM   17  C   UNL     1      43.813 -19.361   4.723  1.00  0.00     0.042 A 
HETATM   18  C   UNL     1      44.364 -20.496   4.106  1.00  0.00    -0.035 A 
HETATM   19  C   UNL     1      45.042 -21.626   4.829  1.00  0.00     0.050 C 
HETATM   20  C   UNL     1      44.323 -20.584   2.700  1.00  0.00     0.011 A 
HETATM   21  C   UNL     1      43.807 -19.549   1.919  1.00  0.00     0.030 A 
BRANCH  17  22
HETATM   22  N   UNL     1      43.728 -19.115   6.114  1.00  0.00    -0.327 N 
HETATM   23  C   UNL     1      44.610 -18.419   6.917  1.00  0.00     0.218 C 
HETATM   24  C   UNL     1      44.122 -18.305   8.342  1.00  0.00     0.117 C 
HETATM   25  O   UNL     1      45.685 -17.931   6.591  1.00  0.00    -0.274 OA
HETATM   26  H   UNL     1      43.084 -19.718   6.612  1.00  0.00     0.169 HD
ENDBRANCH  17  22
ENDBRANCH  12  15
ENDBRANCH   1  11
BRANCH   8  27
HETATM   27  C   UNL     1      39.817 -15.432  -3.254  1.00  0.00     0.409 C 
HETATM   28  F   UNL     1      39.427 -14.880  -4.428  1.00  0.00    -0.169 F 
HETATM   29  F   UNL     1      39.831 -16.767  -3.425  1.00  0.00    -0.169 F 
HETATM   30  F   UNL     1      38.831 -15.149  -2.364  1.00  0.00    -0.169 F 
ENDBRANCH   8  27
BRANCH   6  31
HETATM   31  C   UNL     1      39.342 -12.073  -2.632  1.00  0.00     0.075 A 
HETATM   32  O   UNL     1      39.020 -11.827  -3.936  1.00  0.00    -0.325 OA
HETATM   33  C   UNL     1      37.683 -11.595  -3.980  1.00  0.00     0.142 A 
HETATM   34  C   UNL     1      37.137 -11.684  -2.723  1.00  0.00     0.027 A 
HETATM   35  C   UNL     1      38.209 -11.983  -1.848  1.00  0.00     0.037 A 
ENDBRANCH   6  31
TORSDOF 5
ENDMDL
MODEL 2
REMARK VINA RESULT:      -8.5      2.150      2.811
REMARK  5 active torsions:
REMARK  status: ('A' for Active; 'I' for Inactive)
REMARK    1  A    between atoms: C_3  and  N_4 
REMARK       I    between atoms: N_4  and  C_5 
REMARK    2  A    between atoms: C_9  and  N_10 
REMARK       I    between atoms: N_10  and  C_11 
REMARK    3  A    between atoms: C_11  and  C_12 
REMARK    4  A    between atoms: C_17  and  C_18 
REMARK    5  A    between atoms: C_24  and  C_25 
ROOT
HETATM    1  C   UNL     1      41.202 -16.211   1.130  1.00  0.00     0.148 A 
HETATM    2  N   UNL     1      40.195 -15.309   1.197  1.00  0.00    -0.165 NA
HETATM    3  N   UNL     1      40.251 -14.686   0.003  1.00  0.00    -0.240 N 
HETATM    4  C   UNL     1      41.218 -15.175  -0.831  1.00  0.00     0.123 A 
HETATM    5  N   UNL     1      41.382 -14.703  -2.084  1.00  0.00    -0.364 N 
HETATM    6  C   UNL     1      40.687 -13.502  -2.550  1.00  0.00     0.143 C 
HETATM    7  C   UNL     1      39.306 -13.405  -1.877  1.00  0.00     0.068 C 
HETATM    8  C   UNL     1      39.323 -13.628  -0.351  1.00  0.00     0.221 C 
HETATM    9  C   UNL     1      41.859 -16.160  -0.129  1.00  0.00     0.089 A 
HETATM   10  H   UNL     1      42.205 -14.959  -2.629  1.00  0.00     0.162 HD
ENDROOT
BRANCH   1  11
HETATM   11  C   UNL     1      41.529 -17.106   2.254  1.00  0.00     0.276 C 
HETATM   12  N   UNL     1      42.646 -17.875   1.994  1.00  0.00    -0.322 N 
HETATM   13  H   UNL     1      43.053 -17.701   1.077  1.00  0.00     0.169 HD
HETATM   14  O   UNL     1      40.842 -17.131   3.271  1.00  0.00    -0.266 OA
BRANCH  12  15
HETATM   15  C   UNL     1      43.241 -18.857   2.807  1.00  0.00     0.037 A 
HETATM   16  C   UNL     1      43.350 -18.757   4.196  1.00  0.00     0.059 A 
HETATM   17  C   UNL     1      43.934 -19.778   4.976  1.00  0.00     0.042 A 
HETATM   18  C   UNL     1      44.489 -20.894   4.330  1.00  0.00    -0.035 A 
HETATM   19  C   UNL     1      45.264 -21.986   5.011  1.00  0.00     0.050 C 
HETATM   20  C   UNL     1      44.354 -20.998   2.931  1.00  0.00     0.011 A 
HETATM   21  C   UNL     1      43.741 -19.994   2.180  1.00  0.00     0.030 A 
BRANCH  17  22
HETATM   22  N   UNL     1      43.935 -19.522   6.368  1.00  0.00    -0.327 N 
HETATM   23  C   UNL     1      44.686 -18.600   7.070  1.00  0.00     0.218 C 
HETATM   24  C   UNL     1      44.339 -18.574   8.539  1.00  0.00     0.117 C 
HETATM   25  O   UNL     1      45.556 -17.860   6.628  1.00  0.00    -0.274 OA
HETATM   26  H   UNL     1      43.525 -20.256   6.934  1.00  0.00     0.169 HD
ENDBRANCH  17  22
ENDBRANCH  12  15
ENDBRANCH   1  11
BRANCH   8  27
HETATM   27  C   UNL     1      39.626 -12.381   0.449  1.00  0.00     0.409 C 
HETATM   28  F   UNL     1      40.942 -12.291   0.759  1.00  0.00    -0.169 F 
HETATM   29  F   UNL     1      39.284 -11.238  -0.174  1.00  0.00    -0.169 F 
HETATM   30  F   UNL     1      38.964 -12.409   1.634  1.00  0.00    -0.169 F 
ENDBRANCH   8  27
BRANCH   6  31
HETATM   31  C   UNL     1      41.480 -12.239  -2.456  1.00  0.00     0.075 A 
HETATM   32  O   UNL     1      40.851 -11.100  -2.871  1.00  0.00    -0.325 OA
HETATM   33  C   UNL     1      41.738 -10.081  -2.731  1.00  0.00     0.142 A 
HETATM   34  C   UNL     1      42.932 -10.546  -2.235  1.00  0.00     0.027 A 
HETATM   35  C   UNL     1      42.770 -11.942  -2.065  1.00  0.00     0.037 A 
ENDBRANCH   6  31
TORSDOF 5
ENDMDL
MODEL 3
REMARK VINA RESULT:      -8.3      3.568      9.884
REMARK  5 active torsions:
REMARK  status: ('A' for Active; 'I' for Inactive)
REMARK    1  A    between atoms: C_3  and  N_4 
REMARK       I    between atoms: N_4  and  C_5 
REMARK    2  A    between atoms: C_9  and  N_10 
REMARK       I    between atoms: N_10  and  C_11 
REMARK    3  A    between atoms: C_11  and  C_12 
REMARK    4  A    between atoms: C_17  and  C_18 
REMARK    5  A    between atoms: C_24  and  C_25 
ROOT
HETATM    1  C   UNL     1      40.786 -15.482   0.992  1.00  0.00     0.148 A 
HETATM    2  N   UNL     1      41.560 -16.560   1.256  1.00  0.00    -0.165 NA
HETATM    3  N   UNL     1      41.501 -16.670   2.598  1.00  0.00    -0.240 N 
HETATM    4  C   UNL     1      40.694 -15.739   3.193  1.00  0.00     0.123 A 
HETATM    5  N   UNL     1      40.479 -15.733   4.525  1.00  0.00    -0.364 N 
HETATM    6  C   UNL     1      41.255 -16.577   5.433  1.00  0.00     0.143 C 
HETATM    7  C   UNL     1      41.625 -17.895   4.731  1.00  0.00     0.068 C 
HETATM    8  C   UNL     1      42.201 -17.722   3.311  1.00  0.00     0.221 C 
HETATM    9  C   UNL     1      40.222 -14.947   2.182  1.00  0.00     0.089 A 
HETATM   10  H   UNL     1      40.014 -14.941   4.969  1.00  0.00     0.162 HD
ENDROOT
BRANCH   1  11
HETATM   11  C   UNL     1      40.591 -14.973  -0.377  1.00  0.00     0.276 C 
HETATM   12  N   UNL     1      39.875 -13.792  -0.392  1.00  0.00    -0.322 N 
HETATM   13  H   UNL     1      39.600 -13.473   0.535  1.00  0.00     0.169 HD
HETATM   14  O   UNL     1      41.025 -15.580  -1.351  1.00  0.00    -0.266 OA
BRANCH  12  15
HETATM   15  C   UNL     1      39.470 -13.028  -1.501  1.00  0.00     0.037 A 
HETATM   16  C   UNL     1      38.314 -13.284  -2.243  1.00  0.00     0.059 A 
HETATM   17  C   UNL     1      37.933 -12.477  -3.336  1.00  0.00     0.042 A 
HETATM   18  C   UNL     1      38.779 -11.430  -3.736  1.00  0.00    -0.035 A 
HETATM   19  C   UNL     1      38.578 -10.580  -4.959  1.00  0.00     0.050 C 
HETATM   20  C   UNL     1      39.930 -11.164  -2.968  1.00  0.00     0.011 A 
HETATM   21  C   UNL     1      40.272 -11.953  -1.868  1.00  0.00     0.030 A 
BRANCH  17  22
HETATM   22  N   UNL     1      36.720 -12.864  -3.954  1.00  0.00    -0.327 N 
HETATM   23  C   UNL     1      36.399 -14.080  -4.525  1.00  0.00     0.218 C 
HETATM   24  C   UNL     1      34.969 -14.128  -5.008  1.00  0.00     0.117 C 
HETATM   25  O   UNL     1      37.133 -15.050  -4.669  1.00  0.00    -0.274 OA
HETATM   26  H   UNL     1      36.117 -12.096  -4.222  1.00  0.00     0.169 HD
ENDBRANCH  17  22
ENDBRANCH  12  15
ENDBRANCH   1  11
BRANCH   8  27
HETATM   27  C   UNL     1      43.692 -17.468   3.279  1.00  0.00     0.409 C 
HETATM   28  F   UNL     1      44.279 -18.059   2.211  1.00  0.00    -0.169 F 
HETATM   29  F   UNL     1      44.022 -16.164   3.246  1.00  0.00    -0.169 F 
HETATM   30  F   UNL     1      44.285 -18.007   4.376  1.00  0.00    -0.169 F 
ENDBRANCH   8  27
BRANCH   6  31
HETATM   31  C   UNL     1      42.423 -15.903   6.078  1.00  0.00     0.075 A 
HETATM   32  O   UNL     1      42.699 -14.636   5.651  1.00  0.00    -0.325 OA
HETATM   33  C   UNL     1      43.797 -14.216   6.332  1.00  0.00     0.142 A 
HETATM   34  C   UNL     1      44.235 -15.195   7.190  1.00  0.00     0.027 A 
HETATM   35  C   UNL     1      43.354 -16.290   7.021  1.00  0.00     0.037 A 
ENDBRANCH   6  31
TORSDOF 5
ENDMDL
MODEL 4
REMARK VINA RESULT:      -8.3      2.172      3.297
REMARK  5 active torsions:
REMARK  status: ('A' for Active; 'I' for Inactive)
REMARK    1  A    between atoms: C_3  and  N_4 
REMARK       I    between atoms: N_4  and  C_5 
REMARK    2  A    between atoms: C_9  and  N_10 
REMARK       I    between atoms: N_10  and  C_11 
REMARK    3  A    between atoms: C_11  and  C_12 
REMARK    4  A    between atoms: C_17  and  C_18 
REMARK    5  A    between atoms: C_24  and  C_25 
ROOT
HETATM    1  C   UNL     1      40.952 -15.538   1.026  1.00  0.00     0.148 A 
HETATM    2  N   UNL     1      39.873 -14.777   0.726  1.00  0.00    -0.165 NA
HETATM    3  N   UNL     1      40.008 -14.546  -0.595  1.00  0.00    -0.240 N 
HETATM    4  C   UNL     1      41.096 -15.156  -1.154  1.00  0.00     0.123 A 
HETATM    5  N   UNL     1      41.356 -15.074  -2.475  1.00  0.00    -0.364 N 
HETATM    6  C   UNL     1      40.621 -14.158  -3.348  1.00  0.00     0.143 C 
HETATM    7  C   UNL     1      39.172 -14.014  -2.849  1.00  0.00     0.068 C 
HETATM    8  C   UNL     1      39.041 -13.757  -1.335  1.00  0.00     0.221 C 
HETATM    9  C   UNL     1      41.735 -15.801  -0.130  1.00  0.00     0.089 A 
HETATM   10  H   UNL     1      42.252 -15.391  -2.846  1.00  0.00     0.162 HD
ENDROOT
BRANCH   1  11
HETATM   11  C   UNL     1      41.226 -16.004   2.397  1.00  0.00     0.276 C 
HETATM   12  N   UNL     1      42.551 -16.357   2.567  1.00  0.00    -0.322 N 
HETATM   13  H   UNL     1      43.112 -16.241   1.725  1.00  0.00     0.169 HD
HETATM   14  O   UNL     1      40.338 -16.064   3.240  1.00  0.00    -0.266 OA
BRANCH  12  15
HETATM   15  C   UNL     1      43.179 -16.870   3.716  1.00  0.00     0.037 A 
HETATM   16  C   UNL     1      43.710 -18.158   3.804  1.00  0.00     0.059 A 
HETATM   17  C   UNL     1      44.354 -18.624   4.970  1.00  0.00     0.042 A 
HETATM   18  C   UNL     1      44.396 -17.793   6.101  1.00  0.00    -0.035 A 
HETATM   19  C   UNL     1      44.918 -18.201   7.451  1.00  0.00     0.050 C 
HETATM   20  C   UNL     1      43.878 -16.487   5.997  1.00  0.00     0.011 A 
HETATM   21  C   UNL     1      43.277 -16.032   4.822  1.00  0.00     0.030 A 
BRANCH  17  22
HETATM   22  N   UNL     1      44.857 -19.944   4.874  1.00  0.00    -0.327 N 
HETATM   23  C   UNL     1      44.466 -21.063   5.582  1.00  0.00     0.218 C 
HETATM   24  C   UNL     1      45.190 -22.310   5.130  1.00  0.00     0.117 C 
HETATM   25  O   UNL     1      43.646 -21.119   6.490  1.00  0.00    -0.274 OA
HETATM   26  H   UNL     1      45.757 -20.021   4.417  1.00  0.00     0.169 HD
ENDBRANCH  17  22
ENDBRANCH  12  15
ENDBRANCH   1  11
BRANCH   8  27
HETATM   27  C   UNL     1      39.153 -12.299  -0.948  1.00  0.00     0.409 C 
HETATM   28  F   UNL     1      38.375 -12.002   0.121  1.00  0.00    -0.169 F 
HETATM   29  F   UNL     1      40.406 -11.910  -0.649  1.00  0.00    -0.169 F 
HETATM   30  F   UNL     1      38.714 -11.507  -1.960  1.00  0.00    -0.169 F 
ENDBRANCH   8  27
BRANCH   6  31
HETATM   31  C   UNL     1      41.293 -12.846  -3.596  1.00  0.00     0.075 A 
HETATM   32  O   UNL     1      40.587 -11.934  -4.326  1.00  0.00    -0.325 OA
HETATM   33  C   UNL     1      41.372 -10.835  -4.458  1.00  0.00     0.142 A 
HETATM   34  C   UNL     1      42.578 -11.025  -3.827  1.00  0.00     0.027 A 
HETATM   35  C   UNL     1      42.533 -12.328  -3.277  1.00  0.00     0.037 A 
ENDBRANCH   6  31
TORSDOF 5
ENDMDL
MODEL 5
REMARK VINA RESULT:      -8.3      8.403     11.604
REMARK  5 active torsions:
REMARK  status: ('A' for Active; 'I' for Inactive)
REMARK    1  A    between atoms: C_3  and  N_4 
REMARK       I    between atoms: N_4  and  C_5 
REMARK    2  A    between atoms: C_9  and  N_10 
REMARK       I    between atoms: N_10  and  C_11 
REMARK    3  A    between atoms: C_11  and  C_12 
REMARK    4  A    between atoms: C_17  and  C_18 
REMARK    5  A    between atoms: C_24  and  C_25 
ROOT
HETATM    1  C   UNL     1      43.746 -11.761   8.855  1.00  0.00     0.148 A 
HETATM    2  N   UNL     1      42.482 -11.278   8.832  1.00  0.00    -0.165 NA
HETATM    3  N   UNL     1      42.483 -10.343   9.803  1.00  0.00    -0.240 N 
HETATM    4  C   UNL     1      43.697 -10.183  10.413  1.00  0.00     0.123 A 
HETATM    5  N   UNL     1      43.892  -9.255  11.373  1.00  0.00    -0.364 N 
HETATM    6  C   UNL     1      42.778  -8.518  11.968  1.00  0.00     0.143 C 
HETATM    7  C   UNL     1      41.676  -8.300  10.916  1.00  0.00     0.068 C 
HETATM    8  C   UNL     1      41.301  -9.563  10.114  1.00  0.00     0.221 C 
HETATM    9  C   UNL     1      44.536 -11.093   9.829  1.00  0.00     0.089 A 
HETATM   10  H   UNL     1      44.747  -9.260  11.929  1.00  0.00     0.162 HD
ENDROOT
BRANCH   1  11
HETATM   11  C   UNL     1      44.188 -12.845   7.961  1.00  0.00     0.276 C 
HETATM   12  N   UNL     1      43.247 -13.130   6.990  1.00  0.00    -0.322 N 
HETATM   13  H   UNL     1      42.411 -12.553   7.055  1.00  0.00     0.169 HD
HETATM   14  O   UNL     1      45.270 -13.402   8.118  1.00  0.00    -0.266 OA
BRANCH  12  15
HETATM   15  C   UNL     1      43.297 -14.112   5.984  1.00  0.00     0.037 A 
HETATM   16  C   UNL     1      43.292 -15.485   6.235  1.00  0.00     0.059 A 
HETATM   17  C   UNL     1      43.320 -16.436   5.193  1.00  0.00     0.042 A 
HETATM   18  C   UNL     1      43.431 -15.989   3.867  1.00  0.00    -0.035 A 
HETATM   19  C   UNL     1      43.613 -16.879   2.669  1.00  0.00     0.050 C 
HETATM   20  C   UNL     1      43.412 -14.602   3.621  1.00  0.00     0.011 A 
HETATM   21  C   UNL     1      43.348 -13.676   4.664  1.00  0.00     0.030 A 
BRANCH  17  22
HETATM   22  N   UNL     1      43.281 -17.783   5.628  1.00  0.00    -0.327 N 
HETATM   23  C   UNL     1      44.299 -18.535   6.181  1.00  0.00     0.218 C 
HETATM   24  C   UNL     1      43.836 -19.912   6.593  1.00  0.00     0.117 C 
HETATM   25  O   UNL     1      45.466 -18.200   6.342  1.00  0.00    -0.274 OA
HETATM   26  H   UNL     1      42.499 -18.320   5.273  1.00  0.00     0.169 HD
ENDBRANCH  17  22
ENDBRANCH  12  15
ENDBRANCH   1  11
BRANCH   8  27
HETATM   27  C   UNL     1      40.265 -10.434  10.789  1.00  0.00     0.409 C 
HETATM   28  F   UNL     1      40.835 -11.459  11.467  1.00  0.00    -0.169 F 
HETATM   29  F   UNL     1      39.478  -9.771  11.657  1.00  0.00    -0.169 F 
HETATM   30  F   UNL     1      39.453 -11.005   9.863  1.00  0.00    -0.169 F 
ENDBRANCH   8  27
BRANCH   6  31
HETATM   31  C   UNL     1      42.263  -9.082  13.253  1.00  0.00     0.075 A 
HETATM   32  O   UNL     1      41.264  -8.379  13.864  1.00  0.00    -0.325 OA
HETATM   33  C   UNL     1      40.960  -9.035  15.013  1.00  0.00     0.142 A 
HETATM   34  C   UNL     1      41.751 -10.150  15.156  1.00  0.00     0.027 A 
HETATM   35  C   UNL     1      42.600 -10.177  14.024  1.00  0.00     0.037 A 
ENDBRANCH   6  31
TORSDOF 5
ENDMDL
MODEL 6
REMARK VINA RESULT:      -8.2      3.409      9.866
REMARK  5 active torsions:
REMARK  status: ('A' for Active; 'I' for Inactive)
REMARK    1  A    between atoms: C_3  and  N_4 
REMARK       I    between atoms: N_4  and  C_5 
REMARK    2  A    between atoms: C_9  and  N_10 
REMARK       I    between atoms: N_10  and  C_11 
REMARK    3  A    between atoms: C_11  and  C_12 
REMARK    4  A    between atoms: C_17  and  C_18 
REMARK    5  A    between atoms: C_24  and  C_25 
ROOT
HETATM    1  C   UNL     1      41.218 -15.570   0.639  1.00  0.00     0.148 A 
HETATM    2  N   UNL     1      41.868 -16.702   0.996  1.00  0.00    -0.165 NA
HETATM    3  N   UNL     1      41.681 -16.767   2.329  1.00  0.00    -0.240 N 
HETATM    4  C   UNL     1      40.910 -15.753   2.828  1.00  0.00     0.123 A 
HETATM    5  N   UNL     1      40.579 -15.689   4.135  1.00  0.00    -0.364 N 
HETATM    6  C   UNL     1      41.196 -16.569   5.128  1.00  0.00     0.143 C 
HETATM    7  C   UNL     1      41.510 -17.934   4.491  1.00  0.00     0.068 C 
HETATM    8  C   UNL     1      42.221 -17.853   3.125  1.00  0.00     0.221 C 
HETATM    9  C   UNL     1      40.600 -14.954   1.761  1.00  0.00     0.089 A 
HETATM   10  H   UNL     1      40.149 -14.848   4.518  1.00  0.00     0.162 HD
ENDROOT
BRANCH   1  11
HETATM   11  C   UNL     1      41.190 -15.087  -0.752  1.00  0.00     0.276 C 
HETATM   12  N   UNL     1      41.397 -13.723  -0.830  1.00  0.00    -0.322 N 
HETATM   13  H   UNL     1      41.530 -13.281   0.077  1.00  0.00     0.169 HD
HETATM   14  O   UNL     1      40.986 -15.852  -1.689  1.00  0.00    -0.266 OA
BRANCH  12  15
HETATM   15  C   UNL     1      41.411 -12.904  -1.974  1.00  0.00     0.037 A 
HETATM   16  C   UNL     1      40.282 -12.633  -2.751  1.00  0.00     0.059 A 
HETATM   17  C   UNL     1      40.337 -11.786  -3.878  1.00  0.00     0.042 A 
HETATM   18  C   UNL     1      41.577 -11.258  -4.273  1.00  0.00    -0.035 A 
HETATM   19  C   UNL     1      41.814 -10.461  -5.525  1.00  0.00     0.050 C 
HETATM   20  C   UNL     1      42.705 -11.518  -3.470  1.00  0.00     0.011 A 
HETATM   21  C   UNL     1      42.624 -12.330  -2.338  1.00  0.00     0.030 A 
BRANCH  17  22
HETATM   22  N   UNL     1      39.095 -11.600  -4.531  1.00  0.00    -0.327 N 
HETATM   23  C   UNL     1      38.201 -10.557  -4.393  1.00  0.00     0.218 C 
HETATM   24  C   UNL     1      37.023 -10.682  -5.330  1.00  0.00     0.117 C 
HETATM   25  O   UNL     1      38.277  -9.611  -3.619  1.00  0.00    -0.274 OA
HETATM   26  H   UNL     1      38.712 -12.435  -4.958  1.00  0.00     0.169 HD
ENDBRANCH  17  22
ENDBRANCH  12  15
ENDBRANCH   1  11
BRANCH   8  27
HETATM   27  C   UNL     1      43.725 -17.728   3.223  1.00  0.00     0.409 C 
HETATM   28  F   UNL     1      44.135 -16.448   3.056  1.00  0.00    -0.169 F 
HETATM   29  F   UNL     1      44.233 -18.161   4.391  1.00  0.00    -0.169 F 
HETATM   30  F   UNL     1      44.322 -18.443   2.234  1.00  0.00    -0.169 F 
ENDBRANCH   8  27
BRANCH   6  31
HETATM   31  C   UNL     1      42.357 -15.978   5.860  1.00  0.00     0.075 A 
HETATM   32  O   UNL     1      42.847 -16.709   6.904  1.00  0.00    -0.325 OA
HETATM   33  C   UNL     1      43.868 -15.996   7.445  1.00  0.00     0.142 A 
HETATM   34  C   UNL     1      44.043 -14.813   6.767  1.00  0.00     0.027 A 
HETATM   35  C   UNL     1      43.061 -14.796   5.748  1.00  0.00     0.037 A 
ENDBRANCH   6  31
TORSDOF 5
ENDMDL
MODEL 7
REMARK VINA RESULT:      -8.1      3.600      9.938
REMARK  5 active torsions:
REMARK  status: ('A' for Active; 'I' for Inactive)
REMARK    1  A    between atoms: C_3  and  N_4 
REMARK       I    between atoms: N_4  and  C_5 
REMARK    2  A    between atoms: C_9  and  N_10 
REMARK       I    between atoms: N_10  and  C_11 
REMARK    3  A    between atoms: C_11  and  C_12 
REMARK    4  A    between atoms: C_17  and  C_18 
REMARK    5  A    between atoms: C_24  and  C_25 
ROOT
HETATM    1  C   UNL     1      40.506 -15.171   1.023  1.00  0.00     0.148 A 
HETATM    2  N   UNL     1      41.318 -16.243   1.172  1.00  0.00    -0.165 NA
HETATM    3  N   UNL     1      41.349 -16.432   2.506  1.00  0.00    -0.240 N 
HETATM    4  C   UNL     1      40.563 -15.559   3.206  1.00  0.00     0.123 A 
HETATM    5  N   UNL     1      40.435 -15.636   4.547  1.00  0.00    -0.364 N 
HETATM    6  C   UNL     1      41.287 -16.511   5.351  1.00  0.00     0.143 C 
HETATM    7  C   UNL     1      41.639 -17.776   4.549  1.00  0.00     0.068 C 
HETATM    8  C   UNL     1      42.117 -17.506   3.108  1.00  0.00     0.221 C 
HETATM    9  C   UNL     1      40.009 -14.721   2.276  1.00  0.00     0.089 A 
HETATM   10  H   UNL     1      39.984 -14.883   5.066  1.00  0.00     0.162 HD
ENDROOT
BRANCH   1  11
HETATM   11  C   UNL     1      40.211 -14.588  -0.298  1.00  0.00     0.276 C 
HETATM   12  N   UNL     1      38.855 -14.401  -0.489  1.00  0.00    -0.322 N 
HETATM   13  H   UNL     1      38.290 -14.696   0.304  1.00  0.00     0.169 HD
HETATM   14  O   UNL     1      41.106 -14.335  -1.098  1.00  0.00    -0.266 OA
BRANCH  12  15
HETATM   15  C   UNL     1      38.193 -13.900  -1.624  1.00  0.00     0.037 A 
HETATM   16  C   UNL     1      37.748 -12.582  -1.747  1.00  0.00     0.059 A 
HETATM   17  C   UNL     1      37.108 -12.115  -2.915  1.00  0.00     0.042 A 
HETATM   18  C   UNL     1      36.845 -13.021  -3.955  1.00  0.00    -0.035 A 
HETATM   19  C   UNL     1      36.052 -12.705  -5.192  1.00  0.00     0.050 C 
HETATM   20  C   UNL     1      37.319 -14.342  -3.833  1.00  0.00     0.011 A 
HETATM   21  C   UNL     1      37.982 -14.776  -2.683  1.00  0.00     0.030 A 
BRANCH  17  22
HETATM   22  N   UNL     1      36.749 -10.746  -2.879  1.00  0.00    -0.327 N 
HETATM   23  C   UNL     1      35.618 -10.171  -2.333  1.00  0.00     0.218 C 
HETATM   24  C   UNL     1      35.640  -8.664  -2.421  1.00  0.00     0.117 C 
HETATM   25  O   UNL     1      34.662 -10.747  -1.828  1.00  0.00    -0.274 OA
HETATM   26  H   UNL     1      37.252 -10.158  -3.532  1.00  0.00     0.169 HD
ENDBRANCH  17  22
ENDBRANCH  12  15
ENDBRANCH   1  11
BRANCH   8  27
HETATM   27  C   UNL     1      43.597 -17.213   2.996  1.00  0.00     0.409 C 
HETATM   28  F   UNL     1      43.848 -15.882   3.010  1.00  0.00    -0.169 F 
HETATM   29  F   UNL     1      44.337 -17.769   3.973  1.00  0.00    -0.169 F 
HETATM   30  F   UNL     1      44.079 -17.672   1.813  1.00  0.00    -0.169 F 
ENDBRANCH   8  27
BRANCH   6  31
HETATM   31  C   UNL     1      42.480 -15.846   5.959  1.00  0.00     0.075 A 
HETATM   32  O   UNL     1      42.690 -14.544   5.606  1.00  0.00    -0.325 OA
HETATM   33  C   UNL     1      43.822 -14.138   6.237  1.00  0.00     0.142 A 
HETATM   34  C   UNL     1      44.348 -15.160   6.989  1.00  0.00     0.027 A 
HETATM   35  C   UNL     1      43.487 -16.268   6.803  1.00  0.00     0.037 A 
ENDBRANCH   6  31
TORSDOF 5
ENDMDL
MODEL 8
REMARK VINA RESULT:      -8.1      7.956     11.372
REMARK  5 active torsions:
REMARK  status: ('A' for Active; 'I' for Inactive)
REMARK    1  A    between atoms: C_3  and  N_4 
REMARK       I    between atoms: N_4  and  C_5 
REMARK    2  A    between atoms: C_9  and  N_10 
REMARK       I    between atoms: N_10  and  C_11 
REMARK    3  A    between atoms: C_11  and  C_12 
REMARK    4  A    between atoms: C_17  and  C_18 
REMARK    5  A    between atoms: C_24  and  C_25 
ROOT
HETATM    1  C   UNL     1      44.116 -12.121   8.574  1.00  0.00     0.148 A 
HETATM    2  N   UNL     1      42.855 -11.640   8.471  1.00  0.00    -0.165 NA
HETATM    3  N   UNL     1      42.803 -10.687   9.422  1.00  0.00    -0.240 N 
HETATM    4  C   UNL     1      43.981 -10.512  10.094  1.00  0.00     0.123 A 
HETATM    5  N   UNL     1      44.123  -9.565  11.045  1.00  0.00    -0.364 N 
HETATM    6  C   UNL     1      42.978  -8.818  11.563  1.00  0.00     0.143 C 
HETATM    7  C   UNL     1      41.935  -8.623  10.448  1.00  0.00     0.068 C 
HETATM    8  C   UNL     1      41.605  -9.902   9.653  1.00  0.00     0.221 C 
HETATM    9  C   UNL     1      44.852 -11.432   9.575  1.00  0.00     0.089 A 
HETATM   10  H   UNL     1      44.947  -9.557  11.647  1.00  0.00     0.162 HD
ENDROOT
BRANCH   1  11
HETATM   11  C   UNL     1      44.607 -13.222   7.727  1.00  0.00     0.276 C 
HETATM   12  N   UNL     1      43.585 -14.060   7.325  1.00  0.00    -0.322 N 
HETATM   13  H   UNL     1      42.672 -13.784   7.680  1.00  0.00     0.169 HD
HETATM   14  O   UNL     1      45.799 -13.337   7.457  1.00  0.00    -0.266 OA
BRANCH  12  15
HETATM   15  C   UNL     1      43.666 -15.225   6.541  1.00  0.00     0.037 A 
HETATM   16  C   UNL     1      43.376 -15.266   5.176  1.00  0.00     0.059 A 
HETATM   17  C   UNL     1      43.493 -16.453   4.422  1.00  0.00     0.042 A 
HETATM   18  C   UNL     1      43.842 -17.644   5.078  1.00  0.00    -0.035 A 
HETATM   19  C   UNL     1      43.869 -19.005   4.439  1.00  0.00     0.050 C 
HETATM   20  C   UNL     1      44.157 -17.589   6.451  1.00  0.00     0.011 A 
HETATM   21  C   UNL     1      44.069 -16.397   7.172  1.00  0.00     0.030 A 
BRANCH  17  22
HETATM   22  N   UNL     1      43.186 -16.307   3.048  1.00  0.00    -0.327 N 
HETATM   23  C   UNL     1      41.976 -16.512   2.414  1.00  0.00     0.218 C 
HETATM   24  C   UNL     1      42.032 -16.168   0.944  1.00  0.00     0.117 C 
HETATM   25  O   UNL     1      40.938 -16.929   2.911  1.00  0.00    -0.274 OA
HETATM   26  H   UNL     1      43.991 -16.288   2.433  1.00  0.00     0.169 HD
ENDBRANCH  17  22
ENDBRANCH  12  15
ENDBRANCH   1  11
BRANCH   8  27
HETATM   27  C   UNL     1      40.534 -10.761  10.288  1.00  0.00     0.409 C 
HETATM   28  F   UNL     1      39.670 -10.023  11.026  1.00  0.00    -0.169 F 
HETATM   29  F   UNL     1      39.804 -11.464   9.402  1.00  0.00    -0.169 F 
HETATM   30  F   UNL     1      41.093 -11.651  11.147  1.00  0.00    -0.169 F 
ENDBRANCH   8  27
BRANCH   6  31
HETATM   31  C   UNL     1      42.394  -9.356  12.830  1.00  0.00     0.075 A 
HETATM   32  O   UNL     1      41.269  -8.733  13.289  1.00  0.00    -0.325 OA
HETATM   33  C   UNL     1      40.917  -9.348  14.447  1.00  0.00     0.142 A 
HETATM   34  C   UNL     1      41.801 -10.357  14.745  1.00  0.00     0.027 A 
HETATM   35  C   UNL     1      42.761 -10.358  13.705  1.00  0.00     0.037 A 
ENDBRANCH   6  31
TORSDOF 5
ENDMDL
MODEL 9
REMARK VINA RESULT:      -7.9      3.498      9.777
REMARK  5 active torsions:
REMARK  status: ('A' for Active; 'I' for Inactive)
REMARK    1  A    between atoms: C_3  and  N_4 
REMARK       I    between atoms: N_4  and  C_5 
REMARK    2  A    between atoms: C_9  and  N_10 
REMARK       I    between atoms: N_10  and  C_11 
REMARK    3  A    between atoms: C_11  and  C_12 
REMARK    4  A    between atoms: C_17  and  C_18 
REMARK    5  A    between atoms: C_24  and  C_25 
ROOT
HETATM    1  C   UNL     1      40.756 -15.436   0.914  1.00  0.00     0.148 A 
HETATM    2  N   UNL     1      41.508 -16.529   1.181  1.00  0.00    -0.165 NA
HETATM    3  N   UNL     1      41.451 -16.631   2.524  1.00  0.00    -0.240 N 
HETATM    4  C   UNL     1      40.668 -15.679   3.117  1.00  0.00     0.123 A 
HETATM    5  N   UNL     1      40.458 -15.661   4.450  1.00  0.00    -0.364 N 
HETATM    6  C   UNL     1      41.219 -16.517   5.359  1.00  0.00     0.143 C 
HETATM    7  C   UNL     1      41.558 -17.847   4.663  1.00  0.00     0.068 C 
HETATM    8  C   UNL     1      42.131 -17.694   3.240  1.00  0.00     0.221 C 
HETATM    9  C   UNL     1      40.209 -14.883   2.103  1.00  0.00     0.089 A 
HETATM   10  H   UNL     1      40.012 -14.857   4.891  1.00  0.00     0.162 HD
ENDROOT
BRANCH   1  11
HETATM   11  C   UNL     1      40.567 -14.930  -0.457  1.00  0.00     0.276 C 
HETATM   12  N   UNL     1      39.852 -13.748  -0.477  1.00  0.00    -0.322 N 
HETATM   13  H   UNL     1      39.573 -13.427   0.448  1.00  0.00     0.169 HD
HETATM   14  O   UNL     1      41.003 -15.540  -1.428  1.00  0.00    -0.266 OA
BRANCH  12  15
HETATM   15  C   UNL     1      39.451 -12.987  -1.590  1.00  0.00     0.037 A 
HETATM   16  C   UNL     1      40.175 -11.905  -2.095  1.00  0.00     0.059 A 
HETATM   17  C   UNL     1      39.748 -11.184  -3.230  1.00  0.00     0.042 A 
HETATM   18  C   UNL     1      38.521 -11.517  -3.825  1.00  0.00    -0.035 A 
HETATM   19  C   UNL     1      37.871 -10.753  -4.945  1.00  0.00     0.050 C 
HETATM   20  C   UNL     1      37.808 -12.625  -3.325  1.00  0.00     0.011 A 
HETATM   21  C   UNL     1      38.266 -13.349  -2.222  1.00  0.00     0.030 A 
BRANCH  17  22
HETATM   22  N   UNL     1      40.617 -10.136  -3.619  1.00  0.00    -0.327 N 
HETATM   23  C   UNL     1      41.764 -10.214  -4.383  1.00  0.00     0.218 C 
HETATM   24  C   UNL     1      42.369  -8.855  -4.650  1.00  0.00     0.117 C 
HETATM   25  O   UNL     1      42.298 -11.225  -4.822  1.00  0.00    -0.274 OA
HETATM   26  H   UNL     1      40.520  -9.284  -3.080  1.00  0.00     0.169 HD
ENDBRANCH  17  22
ENDBRANCH  12  15
ENDBRANCH   1  11
BRANCH   8  27
HETATM   27  C   UNL     1      43.627 -17.473   3.201  1.00  0.00     0.409 C 
HETATM   28  F   UNL     1      44.189 -18.032   2.102  1.00  0.00    -0.169 F 
HETATM   29  F   UNL     1      43.987 -16.176   3.216  1.00  0.00    -0.169 F 
HETATM   30  F   UNL     1      44.220 -18.069   4.267  1.00  0.00    -0.169 F 
ENDBRANCH   8  27
BRANCH   6  31
HETATM   31  C   UNL     1      42.404 -15.865   5.996  1.00  0.00     0.075 A 
HETATM   32  O   UNL     1      42.646 -14.570   5.635  1.00  0.00    -0.325 OA
HETATM   33  C   UNL     1      43.766 -14.176   6.295  1.00  0.00     0.142 A 
HETATM   34  C   UNL     1      44.252 -15.198   7.074  1.00  0.00     0.027 A 
HETATM   35  C   UNL     1      43.379 -16.294   6.875  1.00  0.00     0.037 A 
ENDBRANCH   6  31
TORSDOF 5
ENDMDL
MODEL 10
REMARK VINA RESULT:      -7.9      2.027      2.587
REMARK  5 active torsions:
REMARK  status: ('A' for Active; 'I' for Inactive)
REMARK    1  A    between atoms: C_3  and  N_4 
REMARK       I    between atoms: N_4  and  C_5 
REMARK    2  A    between atoms: C_9  and  N_10 
REMARK       I    between atoms: N_10  and  C_11 
REMARK    3  A    between atoms: C_11  and  C_12 
REMARK    4  A    between atoms: C_17  and  C_18 
REMARK    5  A    between atoms: C_24  and  C_25 
ROOT
HETATM    1  C   UNL     1      41.832 -13.537   1.438  1.00  0.00     0.148 A 
HETATM    2  N   UNL     1      41.433 -13.787   0.169  1.00  0.00    -0.165 NA
HETATM    3  N   UNL     1      40.643 -12.736  -0.126  1.00  0.00    -0.240 N 
HETATM    4  C   UNL     1      40.555 -11.812   0.878  1.00  0.00     0.123 A 
HETATM    5  N   UNL     1      39.847 -10.673   0.735  1.00  0.00    -0.364 N 
HETATM    6  C   UNL     1      38.963 -10.455  -0.409  1.00  0.00     0.143 C 
HETATM    7  C   UNL     1      39.542 -11.149  -1.655  1.00  0.00     0.068 C 
HETATM    8  C   UNL     1      40.000 -12.603  -1.420  1.00  0.00     0.221 C 
HETATM    9  C   UNL     1      41.306 -12.305   1.911  1.00  0.00     0.089 A 
HETATM   10  H   UNL     1      39.655 -10.079   1.542  1.00  0.00     0.162 HD
ENDROOT
BRANCH   1  11
HETATM   11  C   UNL     1      42.701 -14.464   2.184  1.00  0.00     0.276 C 
HETATM   12  N   UNL     1      42.366 -15.784   1.956  1.00  0.00    -0.322 N 
HETATM   13  H   UNL     1      41.579 -15.898   1.319  1.00  0.00     0.169 HD
HETATM   14  O   UNL     1      43.593 -14.051   2.919  1.00  0.00    -0.266 OA
BRANCH  12  15
HETATM   15  C   UNL     1      42.943 -16.942   2.508  1.00  0.00     0.037 A 
HETATM   16  C   UNL     1      42.994 -17.209   3.878  1.00  0.00     0.059 A 
HETATM   17  C   UNL     1      43.563 -18.396   4.387  1.00  0.00     0.042 A 
HETATM   18  C   UNL     1      44.161 -19.301   3.495  1.00  0.00    -0.035 A 
HETATM   19  C   UNL     1      44.926 -20.530   3.899  1.00  0.00     0.050 C 
HETATM   20  C   UNL     1      44.084 -19.035   2.114  1.00  0.00     0.011 A 
HETATM   21  C   UNL     1      43.485 -17.872   1.627  1.00  0.00     0.030 A 
BRANCH  17  22
HETATM   22  N   UNL     1      43.505 -18.515   5.796  1.00  0.00    -0.327 N 
HETATM   23  C   UNL     1      44.495 -18.246   6.721  1.00  0.00     0.218 C 
HETATM   24  C   UNL     1      44.015 -18.418   8.142  1.00  0.00     0.117 C 
HETATM   25  O   UNL     1      45.651 -17.913   6.495  1.00  0.00    -0.274 OA
HETATM   26  H   UNL     1      42.743 -19.086   6.142  1.00  0.00     0.169 HD
ENDBRANCH  17  22
ENDBRANCH  12  15
ENDBRANCH   1  11
BRANCH   8  27
HETATM   27  C   UNL     1      38.894 -13.625  -1.558  1.00  0.00     0.409 C 
HETATM   28  F   UNL     1      39.328 -14.757  -2.163  1.00  0.00    -0.169 F 
HETATM   29  F   UNL     1      38.337 -13.987  -0.388  1.00  0.00    -0.169 F 
HETATM   30  F   UNL     1      37.899 -13.140  -2.345  1.00  0.00    -0.169 F 
ENDBRANCH   8  27
BRANCH   6  31
HETATM   31  C   UNL     1      37.525 -10.782  -0.167  1.00  0.00     0.075 A 
HETATM   32  O   UNL     1      36.657 -10.470  -1.174  1.00  0.00    -0.325 OA
HETATM   33  C   UNL     1      35.414 -10.818  -0.751  1.00  0.00     0.142 A 
HETATM   34  C   UNL     1      35.466 -11.347   0.516  1.00  0.00     0.027 A 
HETATM   35  C   UNL     1      36.829 -11.316   0.899  1.00  0.00     0.037 A 
ENDBRANCH   6  31
TORSDOF 5
ENDMDL
