MODEL 1
REMARK VINA RESULT:      -8.6      0.000      0.000
REMARK  7 active torsions:
REMARK  status: ('A' for Active; 'I' for Inactive)
REMARK    1  A    between atoms: C_2  and  C_3 
REMARK    2  A    between atoms: C_3  and  C_4 
REMARK    3  A    between atoms: C_7  and  C_8 
REMARK    4  A    between atoms: C_14  and  C_15 
REMARK    5  A    between atoms: C_18  and  O_19 
REMARK    6  A    between atoms: O_19  and  C_20 
REMARK       I    between atoms: C_20  and  N_21 
REMARK    7  A    between atoms: C_33  and  N_34 
ROOT
HETATM    1  C   UNL     1      41.798 -15.090   1.217  1.00  0.00     0.099 A 
HETATM    2  N   UNL     1      42.045 -14.611  -0.020  1.00  0.00    -0.172 NA
HETATM    3  N   UNL     1      41.464 -13.400  -0.046  1.00  0.00    -0.256 N 
HETATM    4  H   UNL     1      41.511 -12.853  -0.898  1.00  0.00     0.191 HD
HETATM    5  C   UNL     1      40.879 -13.073   1.130  1.00  0.00     0.175 A 
HETATM    6  C   UNL     1      41.070 -14.133   1.981  1.00  0.00     0.040 A 
HETATM    7  C   UNL     1      40.531 -14.057   3.371  1.00  0.00     0.106 A 
HETATM    8  C   UNL     1      39.769 -12.746   3.587  1.00  0.00     0.081 A 
HETATM    9  C   UNL     1      39.104 -12.592   4.839  1.00  0.00     0.100 C 
HETATM   10  N   UNL     1      38.555 -12.465   5.853  1.00  0.00    -0.191 NA
HETATM   11  C   UNL     1      39.663 -11.785   2.630  1.00  0.00     0.140 A 
HETATM   12  O   UNL     1      40.253 -11.927   1.364  1.00  0.00    -0.279 OA
ENDROOT
BRANCH   7  13
HETATM   13  C   UNL     1      41.711 -14.218   4.322  1.00  0.00    -0.044 A 
HETATM   14  C   UNL     1      41.703 -15.127   5.397  1.00  0.00     0.011 A 
HETATM   15  C   UNL     1      42.812 -15.250   6.238  1.00  0.00     0.038 A 
HETATM   16  C   UNL     1      43.949 -14.486   5.988  1.00  0.00     0.081 A 
HETATM   17  C   UNL     1      43.986 -13.583   4.931  1.00  0.00     0.038 A 
HETATM   18  C   UNL     1      42.877 -13.462   4.094  1.00  0.00     0.011 A 
BRANCH  16  19
HETATM   19  O   UNL     1      45.005 -14.585   6.906  1.00  0.00    -0.261 OA
BRANCH  19  20
HETATM   20  C   UNL     1      45.812 -13.463   7.094  1.00  0.00     0.368 C 
HETATM   21  N   UNL     1      45.508 -12.789   8.267  1.00  0.00    -0.324 N 
HETATM   22  C   UNL     1      46.394 -11.717   8.714  1.00  0.00     0.154 C 
HETATM   23  C   UNL     1      44.636 -13.347   9.301  1.00  0.00     0.154 C 
HETATM   24  C   UNL     1      45.640 -10.683   9.554  1.00  0.00     0.187 C 
HETATM   25  O   UNL     1      44.927 -11.312  10.632  1.00  0.00    -0.388 OA
HETATM   26  C   UNL     1      43.962 -12.240  10.117  1.00  0.00     0.187 C 
HETATM   27  O   UNL     1      46.688 -13.099   6.316  1.00  0.00    -0.238 OA
ENDBRANCH  19  20
ENDBRANCH  16  19
ENDBRANCH   7  13
BRANCH  11  28
HETATM   28  N   UNL     1      38.982 -10.595   2.764  1.00  0.00    -0.282 NA
HETATM   29  H   UNL     1      37.985 -10.635   2.562  1.00  0.00     0.126 HD
HETATM   30  H   UNL     1      39.191 -10.131   3.644  1.00  0.00     0.126 HD
ENDBRANCH  11  28
BRANCH   1  31
HETATM   31  C   UNL     1      42.303 -16.409   1.608  1.00  0.00    -0.005 A 
HETATM   32  C   UNL     1      43.641 -16.742   1.355  1.00  0.00     0.014 A 
HETATM   33  C   UNL     1      44.155 -17.986   1.731  1.00  0.00     0.008 A 
HETATM   34  C   UNL     1      43.339 -18.924   2.372  1.00  0.00    -0.058 A 
HETATM   35  C   UNL     1      41.998 -18.601   2.613  1.00  0.00     0.008 A 
HETATM   36  C   UNL     1      41.482 -17.359   2.225  1.00  0.00     0.014 A 
BRANCH  34  37
HETATM   37  C   UNL     1      43.901 -20.257   2.802  1.00  0.00     0.042 C 
BRANCH  37  38
HETATM   38  C   UNL     1      44.767 -20.184   4.075  1.00  0.00    -0.019 C 
HETATM   39  C   UNL     1      45.006 -21.564   4.693  1.00  0.00     0.010 C 
HETATM   40  C   UNL     1      44.093 -19.272   5.105  1.00  0.00     0.010 C 
ENDBRANCH  37  38
ENDBRANCH  34  37
ENDBRANCH   1  31
TORSDOF 7
ENDMDL
MODEL 2
REMARK VINA RESULT:      -8.4      3.225      6.783
REMARK  7 active torsions:
REMARK  status: ('A' for Active; 'I' for Inactive)
REMARK    1  A    between atoms: C_2  and  C_3 
REMARK    2  A    between atoms: C_3  and  C_4 
REMARK    3  A    between atoms: C_7  and  C_8 
REMARK    4  A    between atoms: C_14  and  C_15 
REMARK    5  A    between atoms: C_18  and  O_19 
REMARK    6  A    between atoms: O_19  and  C_20 
REMARK       I    between atoms: C_20  and  N_21 
REMARK    7  A    between atoms: C_33  and  N_34 
ROOT
HETATM    1  C   UNL     1      39.240 -13.467   1.796  1.00  0.00     0.099 A 
HETATM    2  N   UNL     1      37.931 -13.198   1.985  1.00  0.00    -0.172 NA
HETATM    3  N   UNL     1      37.363 -13.362   0.778  1.00  0.00    -0.256 N 
HETATM    4  H   UNL     1      36.368 -13.195   0.679  1.00  0.00     0.191 HD
HETATM    5  C   UNL     1      38.249 -13.750  -0.169  1.00  0.00     0.175 A 
HETATM    6  C   UNL     1      39.476 -13.835   0.439  1.00  0.00     0.040 A 
HETATM    7  C   UNL     1      40.661 -14.250  -0.367  1.00  0.00     0.106 A 
HETATM    8  C   UNL     1      40.272 -14.468  -1.833  1.00  0.00     0.081 A 
HETATM    9  C   UNL     1      41.333 -14.759  -2.740  1.00  0.00     0.100 C 
HETATM   10  N   UNL     1      42.194 -14.988  -3.483  1.00  0.00    -0.191 NA
HETATM   11  C   UNL     1      38.996 -14.337  -2.287  1.00  0.00     0.140 A 
HETATM   12  O   UNL     1      37.934 -13.993  -1.435  1.00  0.00    -0.279 OA
ENDROOT
BRANCH   7  13
HETATM   13  C   UNL     1      41.234 -15.503   0.284  1.00  0.00    -0.044 A 
HETATM   14  C   UNL     1      40.498 -16.695   0.418  1.00  0.00     0.011 A 
HETATM   15  C   UNL     1      41.068 -17.824   1.013  1.00  0.00     0.038 A 
HETATM   16  C   UNL     1      42.390 -17.777   1.446  1.00  0.00     0.081 A 
HETATM   17  C   UNL     1      43.143 -16.614   1.321  1.00  0.00     0.038 A 
HETATM   18  C   UNL     1      42.570 -15.488   0.729  1.00  0.00     0.011 A 
BRANCH  16  19
HETATM   19  O   UNL     1      42.892 -18.908   2.108  1.00  0.00    -0.261 OA
BRANCH  19  20
HETATM   20  C   UNL     1      43.104 -18.818   3.483  1.00  0.00     0.368 C 
HETATM   21  N   UNL     1      43.826 -19.895   3.974  1.00  0.00    -0.324 N 
HETATM   22  C   UNL     1      44.310 -19.851   5.352  1.00  0.00     0.154 C 
HETATM   23  C   UNL     1      44.506 -20.857   3.106  1.00  0.00     0.154 C 
HETATM   24  C   UNL     1      44.461 -21.257   5.936  1.00  0.00     0.187 C 
HETATM   25  O   UNL     1      45.265 -22.088   5.083  1.00  0.00    -0.388 OA
HETATM   26  C   UNL     1      44.652 -22.219   3.792  1.00  0.00     0.187 C 
HETATM   27  O   UNL     1      42.698 -17.901   4.191  1.00  0.00    -0.238 OA
ENDBRANCH  19  20
ENDBRANCH  16  19
ENDBRANCH   7  13
BRANCH  11  28
HETATM   28  N   UNL     1      38.591 -14.508  -3.592  1.00  0.00    -0.282 NA
HETATM   29  H   UNL     1      39.009 -15.296  -4.081  1.00  0.00     0.126 HD
HETATM   30  H   UNL     1      37.579 -14.472  -3.687  1.00  0.00     0.126 HD
ENDBRANCH  11  28
BRANCH   1  31
HETATM   31  C   UNL     1      40.175 -13.395   2.921  1.00  0.00    -0.005 A 
HETATM   32  C   UNL     1      40.056 -14.307   3.979  1.00  0.00     0.014 A 
HETATM   33  C   UNL     1      40.943 -14.274   5.058  1.00  0.00     0.008 A 
HETATM   34  C   UNL     1      41.972 -13.327   5.099  1.00  0.00    -0.058 A 
HETATM   35  C   UNL     1      42.086 -12.406   4.051  1.00  0.00     0.008 A 
HETATM   36  C   UNL     1      41.189 -12.433   2.977  1.00  0.00     0.014 A 
BRANCH  34  37
HETATM   37  C   UNL     1      42.947 -13.308   6.252  1.00  0.00     0.042 C 
BRANCH  37  38
HETATM   38  C   UNL     1      44.064 -14.365   6.137  1.00  0.00    -0.019 C 
HETATM   39  C   UNL     1      43.695 -15.676   6.833  1.00  0.00     0.010 C 
HETATM   40  C   UNL     1      45.359 -13.812   6.739  1.00  0.00     0.010 C 
ENDBRANCH  37  38
ENDBRANCH  34  37
ENDBRANCH   1  31
TORSDOF 7
ENDMDL
MODEL 3
REMARK VINA RESULT:      -8.2      2.953      4.282
REMARK  7 active torsions:
REMARK  status: ('A' for Active; 'I' for Inactive)
REMARK    1  A    between atoms: C_2  and  C_3 
REMARK    2  A    between atoms: C_3  and  C_4 
REMARK    3  A    between atoms: C_7  and  C_8 
REMARK    4  A    between atoms: C_14  and  C_15 
REMARK    5  A    between atoms: C_18  and  O_19 
REMARK    6  A    between atoms: O_19  and  C_20 
REMARK       I    between atoms: C_20  and  N_21 
REMARK    7  A    between atoms: C_33  and  N_34 
ROOT
HETATM    1  C   UNL     1      41.959 -16.121   1.876  1.00  0.00     0.099 A 
HETATM    2  N   UNL     1      42.887 -16.512   0.978  1.00  0.00    -0.172 NA
HETATM    3  N   UNL     1      42.436 -16.064  -0.206  1.00  0.00    -0.256 N 
HETATM    4  H   UNL     1      42.976 -16.259  -1.041  1.00  0.00     0.191 HD
HETATM    5  C   UNL     1      41.272 -15.381  -0.099  1.00  0.00     0.175 A 
HETATM    6  C   UNL     1      40.923 -15.388   1.228  1.00  0.00     0.040 A 
HETATM    7  C   UNL     1      39.670 -14.698   1.655  1.00  0.00     0.106 A 
HETATM    8  C   UNL     1      38.930 -14.118   0.447  1.00  0.00     0.081 A 
HETATM    9  C   UNL     1      37.657 -13.529   0.699  1.00  0.00     0.100 C 
HETATM   10  N   UNL     1      36.617 -13.055   0.897  1.00  0.00    -0.191 NA
HETATM   11  C   UNL     1      39.410 -14.201  -0.825  1.00  0.00     0.140 A 
HETATM   12  O   UNL     1      40.632 -14.826  -1.120  1.00  0.00    -0.279 OA
ENDROOT
BRANCH   7  13
HETATM   13  C   UNL     1      40.065 -13.634   2.672  1.00  0.00    -0.044 A 
HETATM   14  C   UNL     1      40.757 -12.461   2.317  1.00  0.00     0.011 A 
HETATM   15  C   UNL     1      41.089 -11.507   3.282  1.00  0.00     0.038 A 
HETATM   16  C   UNL     1      40.699 -11.704   4.604  1.00  0.00     0.081 A 
HETATM   17  C   UNL     1      40.010 -12.852   4.983  1.00  0.00     0.038 A 
HETATM   18  C   UNL     1      39.682 -13.804   4.017  1.00  0.00     0.011 A 
BRANCH  16  19
HETATM   19  O   UNL     1      41.124 -10.759   5.549  1.00  0.00    -0.261 OA
BRANCH  19  20
HETATM   20  C   UNL     1      40.189 -10.295   6.473  1.00  0.00     0.368 C 
HETATM   21  N   UNL     1      40.719 -10.195   7.751  1.00  0.00    -0.324 N 
HETATM   22  C   UNL     1      39.935  -9.532   8.790  1.00  0.00     0.154 C 
HETATM   23  C   UNL     1      42.152 -10.305   8.027  1.00  0.00     0.154 C 
HETATM   24  C   UNL     1      40.289 -10.063  10.181  1.00  0.00     0.187 C 
HETATM   25  O   UNL     1      41.705  -9.998  10.416  1.00  0.00    -0.388 OA
HETATM   26  C   UNL     1      42.407 -10.799   9.454  1.00  0.00     0.187 C 
HETATM   27  O   UNL     1      39.026 -10.012   6.204  1.00  0.00    -0.238 OA
ENDBRANCH  19  20
ENDBRANCH  16  19
ENDBRANCH   7  13
BRANCH  11  28
HETATM   28  N   UNL     1      38.784 -13.709  -1.948  1.00  0.00    -0.282 NA
HETATM   29  H   UNL     1      37.785 -13.539  -1.855  1.00  0.00     0.126 HD
HETATM   30  H   UNL     1      39.285 -12.923  -2.354  1.00  0.00     0.126 HD
ENDBRANCH  11  28
BRANCH   1  31
HETATM   31  C   UNL     1      42.134 -16.436   3.297  1.00  0.00    -0.005 A 
HETATM   32  C   UNL     1      41.580 -17.613   3.818  1.00  0.00     0.014 A 
HETATM   33  C   UNL     1      41.744 -17.948   5.165  1.00  0.00     0.008 A 
HETATM   34  C   UNL     1      42.469 -17.110   6.019  1.00  0.00    -0.058 A 
HETATM   35  C   UNL     1      43.011 -15.926   5.505  1.00  0.00     0.008 A 
HETATM   36  C   UNL     1      42.836 -15.587   4.159  1.00  0.00     0.014 A 
BRANCH  34  37
HETATM   37  C   UNL     1      42.669 -17.485   7.468  1.00  0.00     0.042 C 
BRANCH  37  38
HETATM   38  C   UNL     1      43.943 -18.315   7.724  1.00  0.00    -0.019 C 
HETATM   39  C   UNL     1      45.091 -17.916   6.794  1.00  0.00     0.010 C 
HETATM   40  C   UNL     1      43.632 -19.804   7.545  1.00  0.00     0.010 C 
ENDBRANCH  37  38
ENDBRANCH  34  37
ENDBRANCH   1  31
TORSDOF 7
ENDMDL
MODEL 4
REMARK VINA RESULT:      -8.1      2.793      4.120
REMARK  7 active torsions:
REMARK  status: ('A' for Active; 'I' for Inactive)
REMARK    1  A    between atoms: C_2  and  C_3 
REMARK    2  A    between atoms: C_3  and  C_4 
REMARK    3  A    between atoms: C_7  and  C_8 
REMARK    4  A    between atoms: C_14  and  C_15 
REMARK    5  A    between atoms: C_18  and  O_19 
REMARK    6  A    between atoms: O_19  and  C_20 
REMARK       I    between atoms: C_20  and  N_21 
REMARK    7  A    between atoms: C_33  and  N_34 
ROOT
HETATM    1  C   UNL     1      41.804 -12.817   2.928  1.00  0.00     0.099 A 
HETATM    2  N   UNL     1      42.597 -12.809   1.836  1.00  0.00    -0.172 NA
HETATM    3  N   UNL     1      42.091 -11.847   1.046  1.00  0.00    -0.256 N 
HETATM    4  H   UNL     1      42.528 -11.672   0.148  1.00  0.00     0.191 HD
HETATM    5  C   UNL     1      41.026 -11.221   1.598  1.00  0.00     0.175 A 
HETATM    6  C   UNL     1      40.801 -11.810   2.817  1.00  0.00     0.040 A 
HETATM    7  C   UNL     1      39.678 -11.319   3.667  1.00  0.00     0.106 A 
HETATM    8  C   UNL     1      38.899 -10.211   2.952  1.00  0.00     0.081 A 
HETATM    9  C   UNL     1      37.728  -9.727   3.606  1.00  0.00     0.100 C 
HETATM   10  N   UNL     1      36.770  -9.336   4.130  1.00  0.00    -0.191 NA
HETATM   11  C   UNL     1      39.248  -9.734   1.726  1.00  0.00     0.140 A 
HETATM   12  O   UNL     1      40.360 -10.227   1.025  1.00  0.00    -0.279 OA
ENDROOT
BRANCH   7  13
HETATM   13  C   UNL     1      40.280 -10.858   4.989  1.00  0.00    -0.044 A 
HETATM   14  C   UNL     1      40.108 -11.569   6.192  1.00  0.00     0.011 A 
HETATM   15  C   UNL     1      40.688 -11.114   7.380  1.00  0.00     0.038 A 
HETATM   16  C   UNL     1      41.471  -9.964   7.364  1.00  0.00     0.081 A 
HETATM   17  C   UNL     1      41.661  -9.244   6.189  1.00  0.00     0.038 A 
HETATM   18  C   UNL     1      41.080  -9.699   5.005  1.00  0.00     0.011 A 
BRANCH  16  19
HETATM   19  O   UNL     1      41.965  -9.503   8.594  1.00  0.00    -0.261 OA
BRANCH  19  20
HETATM   20  C   UNL     1      42.790 -10.356   9.326  1.00  0.00     0.368 C 
HETATM   21  N   UNL     1      42.326 -10.554  10.618  1.00  0.00    -0.324 N 
HETATM   22  C   UNL     1      42.958 -11.578  11.445  1.00  0.00     0.154 C 
HETATM   23  C   UNL     1      40.995 -10.134  11.056  1.00  0.00     0.154 C 
HETATM   24  C   UNL     1      42.841 -11.245  12.934  1.00  0.00     0.187 C 
HETATM   25  O   UNL     1      41.476 -10.987  13.301  1.00  0.00    -0.388 OA
HETATM   26  C   UNL     1      40.964  -9.867  12.564  1.00  0.00     0.187 C 
HETATM   27  O   UNL     1      43.815 -10.873   8.893  1.00  0.00    -0.238 OA
ENDBRANCH  19  20
ENDBRANCH  16  19
ENDBRANCH   7  13
BRANCH  11  28
HETATM   28  N   UNL     1      38.580  -8.750   1.031  1.00  0.00    -0.282 NA
HETATM   29  H   UNL     1      38.371  -8.964   0.059  1.00  0.00     0.126 HD
HETATM   30  H   UNL     1      37.774  -8.399   1.543  1.00  0.00     0.126 HD
ENDBRANCH  11  28
BRANCH   1  31
HETATM   31  C   UNL     1      42.072 -13.752   4.024  1.00  0.00    -0.005 A 
HETATM   32  C   UNL     1      41.186 -14.811   4.263  1.00  0.00     0.014 A 
HETATM   33  C   UNL     1      41.423 -15.728   5.290  1.00  0.00     0.008 A 
HETATM   34  C   UNL     1      42.557 -15.605   6.100  1.00  0.00    -0.058 A 
HETATM   35  C   UNL     1      43.437 -14.540   5.874  1.00  0.00     0.008 A 
HETATM   36  C   UNL     1      43.191 -13.616   4.852  1.00  0.00     0.014 A 
BRANCH  34  37
HETATM   37  C   UNL     1      42.828 -16.611   7.192  1.00  0.00     0.042 C 
BRANCH  37  38
HETATM   38  C   UNL     1      44.131 -17.411   6.990  1.00  0.00    -0.019 C 
HETATM   39  C   UNL     1      44.209 -18.050   5.601  1.00  0.00     0.010 C 
HETATM   40  C   UNL     1      44.239 -18.499   8.062  1.00  0.00     0.010 C 
ENDBRANCH  37  38
ENDBRANCH  34  37
ENDBRANCH   1  31
TORSDOF 7
ENDMDL
MODEL 5
REMARK VINA RESULT:      -8.1      2.785      7.464
REMARK  7 active torsions:
REMARK  status: ('A' for Active; 'I' for Inactive)
REMARK    1  A    between atoms: C_2  and  C_3 
REMARK    2  A    between atoms: C_3  and  C_4 
REMARK    3  A    between atoms: C_7  and  C_8 
REMARK    4  A    between atoms: C_14  and  C_15 
REMARK    5  A    between atoms: C_18  and  O_19 
REMARK    6  A    between atoms: O_19  and  C_20 
REMARK       I    between atoms: C_20  and  N_21 
REMARK    7  A    between atoms: C_33  and  N_34 
ROOT
HETATM    1  C   UNL     1      39.480  -9.946   5.982  1.00  0.00     0.099 A 
HETATM    2  N   UNL     1      38.311  -9.272   6.030  1.00  0.00    -0.172 NA
HETATM    3  N   UNL     1      37.893  -9.210   4.754  1.00  0.00    -0.256 N 
HETATM    4  H   UNL     1      37.026  -8.727   4.547  1.00  0.00     0.191 HD
HETATM    5  C   UNL     1      38.731  -9.839   3.897  1.00  0.00     0.175 A 
HETATM    6  C   UNL     1      39.771 -10.333   4.642  1.00  0.00     0.040 A 
HETATM    7  C   UNL     1      40.862 -11.088   3.958  1.00  0.00     0.106 A 
HETATM    8  C   UNL     1      40.630 -11.128   2.445  1.00  0.00     0.081 A 
HETATM    9  C   UNL     1      41.658 -11.723   1.656  1.00  0.00     0.100 C 
HETATM   10  N   UNL     1      42.494 -12.198   1.008  1.00  0.00    -0.191 NA
HETATM   11  C   UNL     1      39.537 -10.577   1.850  1.00  0.00     0.140 A 
HETATM   12  O   UNL     1      38.533  -9.931   2.588  1.00  0.00    -0.279 OA
ENDROOT
BRANCH   7  13
HETATM   13  C   UNL     1      40.912 -12.477   4.584  1.00  0.00    -0.044 A 
HETATM   14  C   UNL     1      39.838 -13.385   4.508  1.00  0.00     0.011 A 
HETATM   15  C   UNL     1      39.932 -14.653   5.088  1.00  0.00     0.038 A 
HETATM   16  C   UNL     1      41.113 -15.033   5.719  1.00  0.00     0.081 A 
HETATM   17  C   UNL     1      42.192 -14.158   5.805  1.00  0.00     0.038 A 
HETATM   18  C   UNL     1      42.094 -12.892   5.227  1.00  0.00     0.011 A 
BRANCH  16  19
HETATM   19  O   UNL     1      41.131 -16.283   6.355  1.00  0.00    -0.261 OA
BRANCH  19  20
HETATM   20  C   UNL     1      42.370 -16.825   6.693  1.00  0.00     0.368 C 
HETATM   21  N   UNL     1      42.946 -17.517   5.637  1.00  0.00    -0.324 N 
HETATM   22  C   UNL     1      44.330 -17.967   5.760  1.00  0.00     0.154 C 
HETATM   23  C   UNL     1      42.434 -17.447   4.269  1.00  0.00     0.154 C 
HETATM   24  C   UNL     1      44.592 -19.209   4.906  1.00  0.00     0.187 C 
HETATM   25  O   UNL     1      44.188 -18.995   3.544  1.00  0.00    -0.388 OA
HETATM   26  C   UNL     1      42.783 -18.712   3.479  1.00  0.00     0.187 C 
HETATM   27  O   UNL     1      42.899 -16.718   7.794  1.00  0.00    -0.238 OA
ENDBRANCH  19  20
ENDBRANCH  16  19
ENDBRANCH   7  13
BRANCH  11  28
HETATM   28  N   UNL     1      39.282 -10.572   0.496  1.00  0.00    -0.282 NA
HETATM   29  H   UNL     1      38.324 -10.788   0.229  1.00  0.00     0.126 HD
HETATM   30  H   UNL     1      39.644  -9.738   0.041  1.00  0.00     0.126 HD
ENDBRANCH  11  28
BRANCH   1  31
HETATM   31  C   UNL     1      40.225 -10.213   7.215  1.00  0.00    -0.005 A 
HETATM   32  C   UNL     1      39.549 -10.708   8.339  1.00  0.00     0.014 A 
HETATM   33  C   UNL     1      40.235 -10.988   9.524  1.00  0.00     0.008 A 
HETATM   34  C   UNL     1      41.615 -10.779   9.608  1.00  0.00    -0.058 A 
HETATM   35  C   UNL     1      42.292 -10.271   8.492  1.00  0.00     0.008 A 
HETATM   36  C   UNL     1      41.601  -9.981   7.310  1.00  0.00     0.014 A 
BRANCH  34  37
HETATM   37  C   UNL     1      42.362 -11.106  10.879  1.00  0.00     0.042 C 
BRANCH  37  38
HETATM   38  C   UNL     1      43.588 -10.206  11.128  1.00  0.00    -0.019 C 
HETATM   39  C   UNL     1      44.906 -10.930  10.844  1.00  0.00     0.010 C 
HETATM   40  C   UNL     1      43.577  -9.710  12.577  1.00  0.00     0.010 C 
ENDBRANCH  37  38
ENDBRANCH  34  37
ENDBRANCH   1  31
TORSDOF 7
ENDMDL
MODEL 6
REMARK VINA RESULT:      -8.1      2.780      5.127
REMARK  7 active torsions:
REMARK  status: ('A' for Active; 'I' for Inactive)
REMARK    1  A    between atoms: C_2  and  C_3 
REMARK    2  A    between atoms: C_3  and  C_4 
REMARK    3  A    between atoms: C_7  and  C_8 
REMARK    4  A    between atoms: C_14  and  C_15 
REMARK    5  A    between atoms: C_18  and  O_19 
REMARK    6  A    between atoms: O_19  and  C_20 
REMARK       I    between atoms: C_20  and  N_21 
REMARK    7  A    between atoms: C_33  and  N_34 
ROOT
HETATM    1  C   UNL     1      40.825 -11.266   2.934  1.00  0.00     0.099 A 
HETATM    2  N   UNL     1      41.178 -10.130   2.297  1.00  0.00    -0.172 NA
HETATM    3  N   UNL     1      41.054  -9.160   3.219  1.00  0.00    -0.256 N 
HETATM    4  H   UNL     1      41.258  -8.203   2.953  1.00  0.00     0.191 HD
HETATM    5  C   UNL     1      40.662  -9.631   4.425  1.00  0.00     0.175 A 
HETATM    6  C   UNL     1      40.502 -10.988   4.294  1.00  0.00     0.040 A 
HETATM    7  C   UNL     1      40.073 -11.789   5.478  1.00  0.00     0.106 A 
HETATM    8  C   UNL     1      39.822 -10.882   6.686  1.00  0.00     0.081 A 
HETATM    9  C   UNL     1      39.297 -11.505   7.856  1.00  0.00     0.100 C 
HETATM   10  N   UNL     1      38.862 -12.005   8.808  1.00  0.00    -0.191 NA
HETATM   11  C   UNL     1      40.022  -9.536   6.655  1.00  0.00     0.140 A 
HETATM   12  O   UNL     1      40.482  -8.878   5.502  1.00  0.00    -0.279 OA
ENDROOT
BRANCH   7  13
HETATM   13  C   UNL     1      41.155 -12.830   5.736  1.00  0.00    -0.044 A 
HETATM   14  C   UNL     1      42.449 -12.489   6.177  1.00  0.00     0.011 A 
HETATM   15  C   UNL     1      43.407 -13.479   6.411  1.00  0.00     0.038 A 
HETATM   16  C   UNL     1      43.067 -14.817   6.239  1.00  0.00     0.081 A 
HETATM   17  C   UNL     1      41.795 -15.183   5.810  1.00  0.00     0.038 A 
HETATM   18  C   UNL     1      40.841 -14.193   5.574  1.00  0.00     0.011 A 
BRANCH  16  19
HETATM   19  O   UNL     1      44.085 -15.768   6.409  1.00  0.00    -0.261 OA
BRANCH  19  20
HETATM   20  C   UNL     1      43.880 -16.783   7.342  1.00  0.00     0.368 C 
HETATM   21  N   UNL     1      44.070 -18.044   6.795  1.00  0.00    -0.324 N 
HETATM   22  C   UNL     1      44.096 -19.202   7.685  1.00  0.00     0.154 C 
HETATM   23  C   UNL     1      44.674 -18.256   5.480  1.00  0.00     0.154 C 
HETATM   24  C   UNL     1      43.646 -20.473   6.962  1.00  0.00     0.187 C 
HETATM   25  O   UNL     1      44.395 -20.674   5.753  1.00  0.00    -0.388 OA
HETATM   26  C   UNL     1      44.200 -19.572   4.856  1.00  0.00     0.187 C 
HETATM   27  O   UNL     1      43.559 -16.599   8.512  1.00  0.00    -0.238 OA
ENDBRANCH  19  20
ENDBRANCH  16  19
ENDBRANCH   7  13
BRANCH  11  28
HETATM   28  N   UNL     1      39.803  -8.671   7.704  1.00  0.00    -0.282 NA
HETATM   29  H   UNL     1      40.235  -8.933   8.586  1.00  0.00     0.126 HD
HETATM   30  H   UNL     1      39.980  -7.703   7.446  1.00  0.00     0.126 HD
ENDBRANCH  11  28
BRANCH   1  31
HETATM   31  C   UNL     1      40.853 -12.546   2.222  1.00  0.00    -0.005 A 
HETATM   32  C   UNL     1      42.080 -13.080   1.805  1.00  0.00     0.014 A 
HETATM   33  C   UNL     1      42.140 -14.307   1.139  1.00  0.00     0.008 A 
HETATM   34  C   UNL     1      40.970 -15.028   0.879  1.00  0.00    -0.058 A 
HETATM   35  C   UNL     1      39.741 -14.492   1.281  1.00  0.00     0.008 A 
HETATM   36  C   UNL     1      39.682 -13.257   1.937  1.00  0.00     0.014 A 
BRANCH  34  37
HETATM   37  C   UNL     1      41.037 -16.366   0.183  1.00  0.00     0.042 C 
BRANCH  37  38
HETATM   38  C   UNL     1      41.603 -17.497   1.065  1.00  0.00    -0.019 C 
HETATM   39  C   UNL     1      41.281 -17.291   2.548  1.00  0.00     0.010 C 
HETATM   40  C   UNL     1      43.120 -17.586   0.878  1.00  0.00     0.010 C 
ENDBRANCH  37  38
ENDBRANCH  34  37
ENDBRANCH   1  31
TORSDOF 7
ENDMDL
MODEL 7
REMARK VINA RESULT:      -8.0      2.617      4.096
REMARK  7 active torsions:
REMARK  status: ('A' for Active; 'I' for Inactive)
REMARK    1  A    between atoms: C_2  and  C_3 
REMARK    2  A    between atoms: C_3  and  C_4 
REMARK    3  A    between atoms: C_7  and  C_8 
REMARK    4  A    between atoms: C_14  and  C_15 
REMARK    5  A    between atoms: C_18  and  O_19 
REMARK    6  A    between atoms: O_19  and  C_20 
REMARK       I    between atoms: C_20  and  N_21 
REMARK    7  A    between atoms: C_33  and  N_34 
ROOT
HETATM    1  C   UNL     1      41.827 -12.790   2.945  1.00  0.00     0.099 A 
HETATM    2  N   UNL     1      42.562 -12.811   1.813  1.00  0.00    -0.172 NA
HETATM    3  N   UNL     1      42.027 -11.855   1.033  1.00  0.00    -0.256 N 
HETATM    4  H   UNL     1      42.419 -11.700   0.111  1.00  0.00     0.191 HD
HETATM    5  C   UNL     1      40.999 -11.207   1.629  1.00  0.00     0.175 A 
HETATM    6  C   UNL     1      40.832 -11.773   2.868  1.00  0.00     0.040 A 
HETATM    7  C   UNL     1      39.759 -11.253   3.767  1.00  0.00     0.106 A 
HETATM    8  C   UNL     1      38.958 -10.148   3.074  1.00  0.00     0.081 A 
HETATM    9  C   UNL     1      37.828  -9.639   3.779  1.00  0.00     0.100 C 
HETATM   10  N   UNL     1      36.903  -9.227   4.345  1.00  0.00    -0.191 NA
HETATM   11  C   UNL     1      39.248  -9.696   1.824  1.00  0.00     0.140 A 
HETATM   12  O   UNL     1      40.317 -10.214   1.074  1.00  0.00    -0.279 OA
ENDROOT
BRANCH   7  13
HETATM   13  C   UNL     1      40.435 -10.779   5.048  1.00  0.00    -0.044 A 
HETATM   14  C   UNL     1      41.069  -9.526   5.155  1.00  0.00     0.011 A 
HETATM   15  C   UNL     1      41.666  -9.128   6.354  1.00  0.00     0.038 A 
HETATM   16  C   UNL     1      41.603  -9.965   7.464  1.00  0.00     0.081 A 
HETATM   17  C   UNL     1      40.977 -11.206   7.388  1.00  0.00     0.038 A 
HETATM   18  C   UNL     1      40.384 -11.602   6.189  1.00  0.00     0.011 A 
BRANCH  16  19
HETATM   19  O   UNL     1      42.285  -9.558   8.619  1.00  0.00    -0.261 OA
BRANCH  19  20
HETATM   20  C   UNL     1      42.071 -10.280   9.792  1.00  0.00     0.368 C 
HETATM   21  N   UNL     1      43.195 -10.995  10.180  1.00  0.00    -0.324 N 
HETATM   22  C   UNL     1      43.204 -11.637  11.492  1.00  0.00     0.154 C 
HETATM   23  C   UNL     1      44.512 -10.791   9.578  1.00  0.00     0.154 C 
HETATM   24  C   UNL     1      44.121 -12.862  11.509  1.00  0.00     0.187 C 
HETATM   25  O   UNL     1      45.436 -12.531  11.034  1.00  0.00    -0.388 OA
HETATM   26  C   UNL     1      45.373 -12.054   9.682  1.00  0.00     0.187 C 
HETATM   27  O   UNL     1      41.014 -10.298  10.415  1.00  0.00    -0.238 OA
ENDBRANCH  19  20
ENDBRANCH  16  19
ENDBRANCH   7  13
BRANCH  11  28
HETATM   28  N   UNL     1      38.557  -8.715   1.148  1.00  0.00    -0.282 NA
HETATM   29  H   UNL     1      38.782  -8.620   0.160  1.00  0.00     0.126 HD
HETATM   30  H   UNL     1      37.556  -8.760   1.324  1.00  0.00     0.126 HD
ENDBRANCH  11  28
BRANCH   1  31
HETATM   31  C   UNL     1      42.140 -13.710   4.041  1.00  0.00    -0.005 A 
HETATM   32  C   UNL     1      41.219 -14.706   4.394  1.00  0.00     0.014 A 
HETATM   33  C   UNL     1      41.497 -15.609   5.424  1.00  0.00     0.008 A 
HETATM   34  C   UNL     1      42.707 -15.534   6.122  1.00  0.00    -0.058 A 
HETATM   35  C   UNL     1      43.623 -14.532   5.782  1.00  0.00     0.008 A 
HETATM   36  C   UNL     1      43.338 -13.621   4.758  1.00  0.00     0.014 A 
BRANCH  34  37
HETATM   37  C   UNL     1      43.019 -16.526   7.217  1.00  0.00     0.042 C 
BRANCH  37  38
HETATM   38  C   UNL     1      44.240 -17.418   6.916  1.00  0.00    -0.019 C 
HETATM   39  C   UNL     1      44.147 -18.083   5.541  1.00  0.00     0.010 C 
HETATM   40  C   UNL     1      44.370 -18.494   7.998  1.00  0.00     0.010 C 
ENDBRANCH  37  38
ENDBRANCH  34  37
ENDBRANCH   1  31
TORSDOF 7
ENDMDL
MODEL 8
REMARK VINA RESULT:      -7.9      3.276      6.234
REMARK  7 active torsions:
REMARK  status: ('A' for Active; 'I' for Inactive)
REMARK    1  A    between atoms: C_2  and  C_3 
REMARK    2  A    between atoms: C_3  and  C_4 
REMARK    3  A    between atoms: C_7  and  C_8 
REMARK    4  A    between atoms: C_14  and  C_15 
REMARK    5  A    between atoms: C_18  and  O_19 
REMARK    6  A    between atoms: O_19  and  C_20 
REMARK       I    between atoms: C_20  and  N_21 
REMARK    7  A    between atoms: C_33  and  N_34 
ROOT
HETATM    1  C   UNL     1      40.853 -11.142   1.682  1.00  0.00     0.099 A 
HETATM    2  N   UNL     1      41.311  -9.969   1.194  1.00  0.00    -0.172 NA
HETATM    3  N   UNL     1      41.301  -9.129   2.242  1.00  0.00    -0.256 N 
HETATM    4  H   UNL     1      41.597  -8.169   2.102  1.00  0.00     0.191 HD
HETATM    5  C   UNL     1      40.881  -9.720   3.385  1.00  0.00     0.175 A 
HETATM    6  C   UNL     1      40.581 -11.023   3.076  1.00  0.00     0.040 A 
HETATM    7  C   UNL     1      40.091 -11.932   4.153  1.00  0.00     0.106 A 
HETATM    8  C   UNL     1      39.953 -11.179   5.479  1.00  0.00     0.081 A 
HETATM    9  C   UNL     1      39.386 -11.902   6.570  1.00  0.00     0.100 C 
HETATM   10  N   UNL     1      38.917 -12.483   7.457  1.00  0.00    -0.191 NA
HETATM   11  C   UNL     1      40.290  -9.869   5.625  1.00  0.00     0.140 A 
HETATM   12  O   UNL     1      40.796  -9.108   4.559  1.00  0.00    -0.279 OA
ENDROOT
BRANCH   7  13
HETATM   13  C   UNL     1      41.065 -13.101   4.236  1.00  0.00    -0.044 A 
HETATM   14  C   UNL     1      42.435 -12.932   4.516  1.00  0.00     0.011 A 
HETATM   15  C   UNL     1      43.290 -14.034   4.594  1.00  0.00     0.038 A 
HETATM   16  C   UNL     1      42.774 -15.316   4.425  1.00  0.00     0.081 A 
HETATM   17  C   UNL     1      41.424 -15.513   4.152  1.00  0.00     0.038 A 
HETATM   18  C   UNL     1      40.573 -14.411   4.073  1.00  0.00     0.011 A 
BRANCH  16  19
HETATM   19  O   UNL     1      43.684 -16.383   4.432  1.00  0.00    -0.261 OA
BRANCH  19  20
HETATM   20  C   UNL     1      43.805 -17.144   3.270  1.00  0.00     0.368 C 
HETATM   21  N   UNL     1      44.010 -18.489   3.543  1.00  0.00    -0.324 N 
HETATM   22  C   UNL     1      43.951 -19.449   2.444  1.00  0.00     0.154 C 
HETATM   23  C   UNL     1      43.846 -19.062   4.879  1.00  0.00     0.154 C 
HETATM   24  C   UNL     1      44.811 -20.681   2.731  1.00  0.00     0.187 C 
HETATM   25  O   UNL     1      44.478 -21.260   4.003  1.00  0.00    -0.388 OA
HETATM   26  C   UNL     1      44.709 -20.315   5.057  1.00  0.00     0.187 C 
HETATM   27  O   UNL     1      43.746 -16.691   2.132  1.00  0.00    -0.238 OA
ENDBRANCH  19  20
ENDBRANCH  16  19
ENDBRANCH   7  13
BRANCH  11  28
HETATM   28  N   UNL     1      40.177  -9.139   6.787  1.00  0.00    -0.282 NA
HETATM   29  H   UNL     1      39.884  -8.171   6.671  1.00  0.00     0.126 HD
HETATM   30  H   UNL     1      39.645  -9.632   7.500  1.00  0.00     0.126 HD
ENDBRANCH  11  28
BRANCH   1  31
HETATM   31  C   UNL     1      40.738 -12.309   0.803  1.00  0.00    -0.005 A 
HETATM   32  C   UNL     1      41.852 -13.134   0.600  1.00  0.00     0.014 A 
HETATM   33  C   UNL     1      41.770 -14.263  -0.219  1.00  0.00     0.008 A 
HETATM   34  C   UNL     1      40.566 -14.591  -0.851  1.00  0.00    -0.058 A 
HETATM   35  C   UNL     1      39.454 -13.761  -0.663  1.00  0.00     0.008 A 
HETATM   36  C   UNL     1      39.543 -12.624   0.149  1.00  0.00     0.014 A 
BRANCH  34  37
HETATM   37  C   UNL     1      40.468 -15.826  -1.714  1.00  0.00     0.042 C 
BRANCH  37  38
HETATM   38  C   UNL     1      40.654 -15.547  -3.219  1.00  0.00    -0.019 C 
HETATM   39  C   UNL     1      41.253 -14.164  -3.482  1.00  0.00     0.010 C 
HETATM   40  C   UNL     1      39.305 -15.666  -3.935  1.00  0.00     0.010 C 
ENDBRANCH  37  38
ENDBRANCH  34  37
ENDBRANCH   1  31
TORSDOF 7
ENDMDL
MODEL 9
REMARK VINA RESULT:      -7.8      3.187      7.215
REMARK  7 active torsions:
REMARK  status: ('A' for Active; 'I' for Inactive)
REMARK    1  A    between atoms: C_2  and  C_3 
REMARK    2  A    between atoms: C_3  and  C_4 
REMARK    3  A    between atoms: C_7  and  C_8 
REMARK    4  A    between atoms: C_14  and  C_15 
REMARK    5  A    between atoms: C_18  and  O_19 
REMARK    6  A    between atoms: O_19  and  C_20 
REMARK       I    between atoms: C_20  and  N_21 
REMARK    7  A    between atoms: C_33  and  N_34 
ROOT
HETATM    1  C   UNL     1      41.573 -16.771   3.766  1.00  0.00     0.099 A 
HETATM    2  N   UNL     1      41.014 -17.990   3.923  1.00  0.00    -0.172 NA
HETATM    3  N   UNL     1      41.348 -18.369   5.167  1.00  0.00    -0.256 N 
HETATM    4  H   UNL     1      41.042 -19.276   5.501  1.00  0.00     0.191 HD
HETATM    5  C   UNL     1      42.075 -17.434   5.823  1.00  0.00     0.175 A 
HETATM    6  C   UNL     1      42.246 -16.380   4.960  1.00  0.00     0.040 A 
HETATM    7  C   UNL     1      43.014 -15.185   5.414  1.00  0.00     0.106 A 
HETATM    8  C   UNL     1      43.552 -15.390   6.833  1.00  0.00     0.081 A 
HETATM    9  C   UNL     1      44.402 -14.369   7.350  1.00  0.00     0.100 C 
HETATM   10  N   UNL     1      45.100 -13.545   7.772  1.00  0.00    -0.191 NA
HETATM   11  C   UNL     1      43.298 -16.509   7.565  1.00  0.00     0.140 A 
HETATM   12  O   UNL     1      42.514 -17.563   7.068  1.00  0.00    -0.279 OA
ENDROOT
BRANCH   7  13
HETATM   13  C   UNL     1      42.086 -13.981   5.303  1.00  0.00    -0.044 A 
HETATM   14  C   UNL     1      42.403 -12.843   4.538  1.00  0.00     0.011 A 
HETATM   15  C   UNL     1      41.515 -11.767   4.456  1.00  0.00     0.038 A 
HETATM   16  C   UNL     1      40.290 -11.837   5.112  1.00  0.00     0.081 A 
HETATM   17  C   UNL     1      39.948 -12.952   5.872  1.00  0.00     0.038 A 
HETATM   18  C   UNL     1      40.837 -14.024   5.953  1.00  0.00     0.011 A 
BRANCH  16  19
HETATM   19  O   UNL     1      39.468 -10.701   5.067  1.00  0.00    -0.261 OA
BRANCH  19  20
HETATM   20  C   UNL     1      38.477 -10.652   4.088  1.00  0.00     0.368 C 
HETATM   21  N   UNL     1      37.673  -9.529   4.211  1.00  0.00    -0.324 N 
HETATM   22  C   UNL     1      36.722  -9.222   3.145  1.00  0.00     0.154 C 
HETATM   23  C   UNL     1      38.003  -8.408   5.092  1.00  0.00     0.154 C 
HETATM   24  C   UNL     1      35.520  -8.439   3.678  1.00  0.00     0.187 C 
HETATM   25  O   UNL     1      35.942  -7.276   4.409  1.00  0.00    -0.388 OA
HETATM   26  C   UNL     1      36.743  -7.659   5.536  1.00  0.00     0.187 C 
HETATM   27  O   UNL     1      38.317 -11.502   3.217  1.00  0.00    -0.238 OA
ENDBRANCH  19  20
ENDBRANCH  16  19
ENDBRANCH   7  13
BRANCH  11  28
HETATM   28  N   UNL     1      43.763 -16.753   8.839  1.00  0.00    -0.282 NA
HETATM   29  H   UNL     1      43.156 -16.445   9.594  1.00  0.00     0.126 HD
HETATM   30  H   UNL     1      44.085 -17.712   8.952  1.00  0.00     0.126 HD
ENDBRANCH  11  28
BRANCH   1  31
HETATM   31  C   UNL     1      41.400 -16.040   2.508  1.00  0.00    -0.005 A 
HETATM   32  C   UNL     1      42.250 -16.312   1.427  1.00  0.00     0.014 A 
HETATM   33  C   UNL     1      42.100 -15.643   0.210  1.00  0.00     0.008 A 
HETATM   34  C   UNL     1      41.092 -14.687   0.048  1.00  0.00    -0.058 A 
HETATM   35  C   UNL     1      40.250 -14.401   1.130  1.00  0.00     0.008 A 
HETATM   36  C   UNL     1      40.410 -15.065   2.352  1.00  0.00     0.014 A 
BRANCH  34  37
HETATM   37  C   UNL     1      40.912 -13.983  -1.275  1.00  0.00     0.042 C 
BRANCH  37  38
HETATM   38  C   UNL     1      42.156 -13.196  -1.734  1.00  0.00    -0.019 C 
HETATM   39  C   UNL     1      42.445 -11.992  -0.834  1.00  0.00     0.010 C 
HETATM   40  C   UNL     1      41.962 -12.722  -3.177  1.00  0.00     0.010 C 
ENDBRANCH  37  38
ENDBRANCH  34  37
ENDBRANCH   1  31
TORSDOF 7
ENDMDL
MODEL 10
REMARK VINA RESULT:      -7.7      3.365      6.364
REMARK  7 active torsions:
REMARK  status: ('A' for Active; 'I' for Inactive)
REMARK    1  A    between atoms: C_2  and  C_3 
REMARK    2  A    between atoms: C_3  and  C_4 
REMARK    3  A    between atoms: C_7  and  C_8 
REMARK    4  A    between atoms: C_14  and  C_15 
REMARK    5  A    between atoms: C_18  and  O_19 
REMARK    6  A    between atoms: O_19  and  C_20 
REMARK       I    between atoms: C_20  and  N_21 
REMARK    7  A    between atoms: C_33  and  N_34 
ROOT
HETATM    1  C   UNL     1      41.597 -16.629   3.679  1.00  0.00     0.099 A 
HETATM    2  N   UNL     1      41.136 -17.897   3.711  1.00  0.00    -0.172 NA
HETATM    3  N   UNL     1      41.505 -18.371   4.913  1.00  0.00    -0.256 N 
HETATM    4  H   UNL     1      41.273 -19.328   5.153  1.00  0.00     0.191 HD
HETATM    5  C   UNL     1      42.158 -17.452   5.661  1.00  0.00     0.175 A 
HETATM    6  C   UNL     1      42.242 -16.308   4.908  1.00  0.00     0.040 A 
HETATM    7  C   UNL     1      42.916 -15.106   5.482  1.00  0.00     0.106 A 
HETATM    8  C   UNL     1      43.473 -15.410   6.876  1.00  0.00     0.081 A 
HETATM    9  C   UNL     1      44.242 -14.381   7.495  1.00  0.00     0.100 C 
HETATM   10  N   UNL     1      44.875 -13.551   8.000  1.00  0.00    -0.191 NA
HETATM   11  C   UNL     1      43.311 -16.613   7.492  1.00  0.00     0.140 A 
HETATM   12  O   UNL     1      42.611 -17.670   6.889  1.00  0.00    -0.279 OA
ENDROOT
BRANCH   7  13
HETATM   13  C   UNL     1      41.894 -13.975   5.489  1.00  0.00    -0.044 A 
HETATM   14  C   UNL     1      42.147 -12.718   4.907  1.00  0.00     0.011 A 
HETATM   15  C   UNL     1      41.177 -11.713   4.927  1.00  0.00     0.038 A 
HETATM   16  C   UNL     1      39.934 -11.971   5.499  1.00  0.00     0.081 A 
HETATM   17  C   UNL     1      39.655 -13.206   6.077  1.00  0.00     0.038 A 
HETATM   18  C   UNL     1      40.627 -14.206   6.058  1.00  0.00     0.011 A 
BRANCH  16  19
HETATM   19  O   UNL     1      39.022 -10.907   5.566  1.00  0.00    -0.261 OA
BRANCH  19  20
HETATM   20  C   UNL     1      39.527  -9.631   5.810  1.00  0.00     0.368 C 
HETATM   21  N   UNL     1      39.523  -9.314   7.161  1.00  0.00    -0.324 N 
HETATM   22  C   UNL     1      40.207  -8.101   7.603  1.00  0.00     0.154 C 
HETATM   23  C   UNL     1      39.274 -10.305   8.208  1.00  0.00     0.154 C 
HETATM   24  C   UNL     1      39.587  -7.547   8.887  1.00  0.00     0.187 C 
HETATM   25  O   UNL     1      39.515  -8.557   9.906  1.00  0.00    -0.388 OA
HETATM   26  C   UNL     1      38.697  -9.651   9.467  1.00  0.00     0.187 C 
HETATM   27  O   UNL     1      39.924  -8.862   4.940  1.00  0.00    -0.238 OA
ENDBRANCH  19  20
ENDBRANCH  16  19
ENDBRANCH   7  13
BRANCH  11  28
HETATM   28  N   UNL     1      43.800 -16.945   8.736  1.00  0.00    -0.282 NA
HETATM   29  H   UNL     1      43.311 -16.529   9.525  1.00  0.00     0.126 HD
HETATM   30  H   UNL     1      43.938 -17.947   8.838  1.00  0.00     0.126 HD
ENDBRANCH  11  28
BRANCH   1  31
HETATM   31  C   UNL     1      41.362 -15.792   2.500  1.00  0.00    -0.005 A 
HETATM   32  C   UNL     1      42.271 -15.829   1.432  1.00  0.00     0.014 A 
HETATM   33  C   UNL     1      42.065 -15.054   0.288  1.00  0.00     0.008 A 
HETATM   34  C   UNL     1      40.942 -14.226   0.186  1.00  0.00    -0.058 A 
HETATM   35  C   UNL     1      40.040 -14.175   1.256  1.00  0.00     0.008 A 
HETATM   36  C   UNL     1      40.254 -14.943   2.407  1.00  0.00     0.014 A 
BRANCH  34  37
HETATM   37  C   UNL     1      40.706 -13.409  -1.061  1.00  0.00     0.042 C 
BRANCH  37  38
HETATM   38  C   UNL     1      41.581 -13.835  -2.257  1.00  0.00    -0.019 C 
HETATM   39  C   UNL     1      42.597 -12.758  -2.643  1.00  0.00     0.010 C 
HETATM   40  C   UNL     1      40.689 -14.153  -3.460  1.00  0.00     0.010 C 
ENDBRANCH  37  38
ENDBRANCH  34  37
ENDBRANCH   1  31
TORSDOF 7
ENDMDL
