MODEL 1
REMARK VINA RESULT:     -10.0      0.000      0.000
REMARK  6 active torsions:
REMARK  status: ('A' for Active; 'I' for Inactive)
REMARK    1  A    between atoms: C_7  and  C_8 
REMARK    2  A    between atoms: C_8  and  O_9 
REMARK    3  A    between atoms: O_9  and  C_10 
REMARK    4  A    between atoms: C_10  and  C_11 
REMARK       I    between atoms: C_11  and  N_12 
REMARK    5  A    between atoms: N_12  and  N_13 
REMARK    6  A    between atoms: C_17  and  C_18 
ROOT
HETATM    1  C   UNL     1      44.610 -14.034   6.900  1.00  0.00     0.261 C 
HETATM    2  N   UNL     1      43.987 -15.086   7.541  1.00  0.00    -0.255 N 
HETATM    3  O   UNL     1      44.512 -13.811   5.694  1.00  0.00    -0.269 OA
HETATM    4  H   UNL     1      44.323 -15.377   8.461  1.00  0.00     0.191 HD
ENDROOT
BRANCH   1   5
HETATM    5  C   UNL     1      45.407 -13.126   7.841  1.00  0.00     0.283 C 
BRANCH   5   6
HETATM    6  O   UNL     1      44.714 -12.721   9.023  1.00  0.00    -0.308 OA
BRANCH   6   7
HETATM    7  C   UNL     1      44.940 -11.447   9.425  1.00  0.00     0.293 C 
HETATM    8  O   UNL     1      45.923 -10.784   9.120  1.00  0.00    -0.259 OA
BRANCH   7   9
HETATM    9  C   UNL     1      43.834 -10.939  10.279  1.00  0.00     0.040 A 
HETATM   10  C   UNL     1      44.152 -10.504  11.570  1.00  0.00     0.020 A 
HETATM   11  C   UNL     1      43.168 -10.012  12.433  1.00  0.00     0.031 A 
HETATM   12  C   UNL     1      41.853  -9.971  11.956  1.00  0.00     0.043 A 
HETATM   13  C   UNL     1      41.495 -10.401  10.679  1.00  0.00    -0.001 A 
HETATM   14  N   UNL     1      40.705  -9.535  12.573  1.00  0.00    -0.359 N 
HETATM   15  C   UNL     1      40.080 -10.218  10.547  1.00  0.00    -0.027 A 
HETATM   16  C   UNL     1      42.505 -10.892   9.825  1.00  0.00     0.032 A 
HETATM   17  C   UNL     1      39.250 -10.538   9.354  1.00  0.00     0.051 C 
HETATM   18  C   UNL     1      39.627  -9.668  11.736  1.00  0.00     0.012 A 
HETATM   19  C   UNL     1      38.262  -9.253  12.153  1.00  0.00     0.068 C 
HETATM   20  H   UNL     1      40.671  -9.161  13.511  1.00  0.00     0.166 HD
ENDBRANCH   7   9
ENDBRANCH   6   7
ENDBRANCH   5   6
ENDBRANCH   1   5
BRANCH   2  21
HETATM   21  N   UNL     1      43.419 -16.071   6.757  1.00  0.00    -0.167 N 
HETATM   22  C   UNL     1      42.112 -16.067   6.353  1.00  0.00     0.345 A 
HETATM   23  O   UNL     1      41.264 -15.211   6.550  1.00  0.00    -0.245 OA
HETATM   24  N   UNL     1      41.900 -17.210   5.610  1.00  0.00    -0.319 N 
HETATM   25  C   UNL     1      43.131 -17.949   5.367  1.00  0.00     0.141 A 
HETATM   26  H   UNL     1      41.032 -17.336   5.107  1.00  0.00     0.166 HD
HETATM   27  C   UNL     1      43.050 -19.359   5.960  1.00  0.00     0.055 C 
HETATM   28  C   UNL     1      44.121 -17.125   6.231  1.00  0.00     0.279 A 
HETATM   29  O   UNL     1      45.315 -17.362   6.384  1.00  0.00    -0.268 OA
BRANCH  25  30
HETATM   30  C   UNL     1      43.427 -17.952   3.868  1.00  0.00    -0.021 A 
HETATM   31  C   UNL     1      43.630 -16.772   3.131  1.00  0.00     0.010 A 
HETATM   32  C   UNL     1      43.869 -16.814   1.754  1.00  0.00     0.001 A 
HETATM   33  C   UNL     1      43.907 -18.034   1.085  1.00  0.00     0.000 A 
HETATM   34  C   UNL     1      43.706 -19.214   1.791  1.00  0.00     0.001 A 
HETATM   35  C   UNL     1      43.467 -19.175   3.166  1.00  0.00     0.010 A 
ENDBRANCH  25  30
ENDBRANCH   2  21
TORSDOF 6
ENDMDL
MODEL 2
REMARK VINA RESULT:      -9.7      5.310      9.016
REMARK  6 active torsions:
REMARK  status: ('A' for Active; 'I' for Inactive)
REMARK    1  A    between atoms: C_7  and  C_8 
REMARK    2  A    between atoms: C_8  and  O_9 
REMARK    3  A    between atoms: O_9  and  C_10 
REMARK    4  A    between atoms: C_10  and  C_11 
REMARK       I    between atoms: C_11  and  N_12 
REMARK    5  A    between atoms: N_12  and  N_13 
REMARK    6  A    between atoms: C_17  and  C_18 
ROOT
HETATM    1  C   UNL     1      42.047 -13.777   3.120  1.00  0.00     0.261 C 
HETATM    2  N   UNL     1      40.971 -14.128   2.330  1.00  0.00    -0.255 N 
HETATM    3  O   UNL     1      43.146 -13.447   2.674  1.00  0.00    -0.269 OA
HETATM    4  H   UNL     1      40.197 -14.650   2.747  1.00  0.00     0.191 HD
ENDROOT
BRANCH   1   5
HETATM    5  C   UNL     1      41.739 -13.787   4.619  1.00  0.00     0.283 C 
BRANCH   5   6
HETATM    6  O   UNL     1      42.042 -15.011   5.291  1.00  0.00    -0.308 OA
BRANCH   6   7
HETATM    7  C   UNL     1      43.335 -15.168   5.664  1.00  0.00     0.293 C 
HETATM    8  O   UNL     1      44.045 -14.277   6.110  1.00  0.00    -0.259 OA
BRANCH   7   9
HETATM    9  C   UNL     1      43.791 -16.572   5.480  1.00  0.00     0.040 A 
HETATM   10  C   UNL     1      44.550 -17.153   6.502  1.00  0.00     0.020 A 
HETATM   11  C   UNL     1      45.014 -18.468   6.404  1.00  0.00     0.031 A 
HETATM   12  C   UNL     1      44.691 -19.180   5.244  1.00  0.00     0.043 A 
HETATM   13  C   UNL     1      43.944 -18.636   4.201  1.00  0.00    -0.001 A 
HETATM   14  N   UNL     1      45.002 -20.472   4.888  1.00  0.00    -0.359 N 
HETATM   15  C   UNL     1      43.820 -19.645   3.190  1.00  0.00    -0.027 A 
HETATM   16  C   UNL     1      43.484 -17.308   4.322  1.00  0.00     0.032 A 
HETATM   17  C   UNL     1      43.105 -19.519   1.891  1.00  0.00     0.051 C 
HETATM   18  C   UNL     1      44.477 -20.773   3.657  1.00  0.00     0.012 A 
HETATM   19  C   UNL     1      44.654 -22.114   3.043  1.00  0.00     0.068 C 
HETATM   20  H   UNL     1      45.535 -21.108   5.465  1.00  0.00     0.166 HD
ENDBRANCH   7   9
ENDBRANCH   6   7
ENDBRANCH   5   6
ENDBRANCH   1   5
BRANCH   2  21
HETATM   21  N   UNL     1      41.204 -14.348   0.986  1.00  0.00    -0.167 N 
HETATM   22  C   UNL     1      41.786 -15.480   0.487  1.00  0.00     0.345 A 
HETATM   23  O   UNL     1      42.135 -16.480   1.094  1.00  0.00    -0.245 OA
HETATM   24  N   UNL     1      41.876 -15.336  -0.883  1.00  0.00    -0.319 N 
HETATM   25  C   UNL     1      41.202 -14.135  -1.358  1.00  0.00     0.141 A 
HETATM   26  H   UNL     1      42.157 -16.117  -1.460  1.00  0.00     0.166 HD
HETATM   27  C   UNL     1      42.187 -13.197  -2.062  1.00  0.00     0.055 C 
HETATM   28  C   UNL     1      40.810 -13.486  -0.005  1.00  0.00     0.279 A 
HETATM   29  O   UNL     1      40.226 -12.417   0.139  1.00  0.00    -0.268 OA
BRANCH  25  30
HETATM   30  C   UNL     1      40.027 -14.538  -2.248  1.00  0.00    -0.021 A 
HETATM   31  C   UNL     1      38.735 -14.007  -2.088  1.00  0.00     0.010 A 
HETATM   32  C   UNL     1      37.678 -14.424  -2.903  1.00  0.00     0.001 A 
HETATM   33  C   UNL     1      37.888 -15.381  -3.892  1.00  0.00     0.000 A 
HETATM   34  C   UNL     1      39.156 -15.923  -4.067  1.00  0.00     0.001 A 
HETATM   35  C   UNL     1      40.214 -15.509  -3.254  1.00  0.00     0.010 A 
ENDBRANCH  25  30
ENDBRANCH   2  21
TORSDOF 6
ENDMDL
MODEL 3
REMARK VINA RESULT:      -9.7      1.315      2.132
REMARK  6 active torsions:
REMARK  status: ('A' for Active; 'I' for Inactive)
REMARK    1  A    between atoms: C_7  and  C_8 
REMARK    2  A    between atoms: C_8  and  O_9 
REMARK    3  A    between atoms: O_9  and  C_10 
REMARK    4  A    between atoms: C_10  and  C_11 
REMARK       I    between atoms: C_11  and  N_12 
REMARK    5  A    between atoms: N_12  and  N_13 
REMARK    6  A    between atoms: C_17  and  C_18 
ROOT
HETATM    1  C   UNL     1      44.912 -13.758   6.645  1.00  0.00     0.261 C 
HETATM    2  N   UNL     1      43.732 -14.285   7.128  1.00  0.00    -0.255 N 
HETATM    3  O   UNL     1      45.203 -13.708   5.450  1.00  0.00    -0.269 OA
HETATM    4  H   UNL     1      43.671 -14.550   8.113  1.00  0.00     0.191 HD
ENDROOT
BRANCH   1   5
HETATM    5  C   UNL     1      45.824 -13.189   7.735  1.00  0.00     0.283 C 
BRANCH   5   6
HETATM    6  O   UNL     1      45.154 -12.763   8.923  1.00  0.00    -0.308 OA
BRANCH   6   7
HETATM    7  C   UNL     1      45.298 -11.453   9.238  1.00  0.00     0.293 C 
HETATM    8  O   UNL     1      46.317 -10.801   9.054  1.00  0.00    -0.259 OA
BRANCH   7   9
HETATM    9  C   UNL     1      44.054 -10.893   9.829  1.00  0.00     0.040 A 
HETATM   10  C   UNL     1      42.909 -10.855   9.025  1.00  0.00     0.020 A 
HETATM   11  C   UNL     1      41.700 -10.344   9.508  1.00  0.00     0.031 A 
HETATM   12  C   UNL     1      41.680  -9.871  10.824  1.00  0.00     0.043 A 
HETATM   13  C   UNL     1      42.800  -9.885  11.654  1.00  0.00    -0.001 A 
HETATM   14  N   UNL     1      40.645  -9.331  11.551  1.00  0.00    -0.359 N 
HETATM   15  C   UNL     1      42.408  -9.323  12.913  1.00  0.00    -0.027 A 
HETATM   16  C   UNL     1      44.008 -10.407  11.147  1.00  0.00     0.032 A 
HETATM   17  C   UNL     1      43.272  -9.133  14.109  1.00  0.00     0.051 C 
HETATM   18  C   UNL     1      41.062  -9.003  12.815  1.00  0.00     0.012 A 
HETATM   19  C   UNL     1      40.132  -8.415  13.813  1.00  0.00     0.068 C 
HETATM   20  H   UNL     1      39.706  -9.207  11.197  1.00  0.00     0.166 HD
ENDBRANCH   7   9
ENDBRANCH   6   7
ENDBRANCH   5   6
ENDBRANCH   1   5
BRANCH   2  21
HETATM   21  N   UNL     1      42.942 -15.003   6.251  1.00  0.00    -0.167 N 
HETATM   22  C   UNL     1      41.943 -14.452   5.496  1.00  0.00     0.345 A 
HETATM   23  O   UNL     1      41.619 -13.278   5.415  1.00  0.00    -0.245 OA
HETATM   24  N   UNL     1      41.362 -15.468   4.765  1.00  0.00    -0.319 N 
HETATM   25  C   UNL     1      42.075 -16.730   4.906  1.00  0.00     0.141 A 
HETATM   26  H   UNL     1      40.688 -15.254   4.043  1.00  0.00     0.166 HD
HETATM   27  C   UNL     1      41.167 -17.808   5.503  1.00  0.00     0.055 C 
HETATM   28  C   UNL     1      43.119 -16.336   5.984  1.00  0.00     0.279 A 
HETATM   29  O   UNL     1      43.964 -17.078   6.475  1.00  0.00    -0.268 OA
BRANCH  25  30
HETATM   30  C   UNL     1      42.661 -17.129   3.553  1.00  0.00    -0.021 A 
HETATM   31  C   UNL     1      43.495 -18.248   3.385  1.00  0.00     0.010 A 
HETATM   32  C   UNL     1      44.037 -18.564   2.135  1.00  0.00     0.001 A 
HETATM   33  C   UNL     1      43.759 -17.767   1.028  1.00  0.00     0.000 A 
HETATM   34  C   UNL     1      42.939 -16.653   1.169  1.00  0.00     0.001 A 
HETATM   35  C   UNL     1      42.397 -16.335   2.416  1.00  0.00     0.010 A 
ENDBRANCH  25  30
ENDBRANCH   2  21
TORSDOF 6
ENDMDL
MODEL 4
REMARK VINA RESULT:      -9.5      5.325      8.905
REMARK  6 active torsions:
REMARK  status: ('A' for Active; 'I' for Inactive)
REMARK    1  A    between atoms: C_7  and  C_8 
REMARK    2  A    between atoms: C_8  and  O_9 
REMARK    3  A    between atoms: O_9  and  C_10 
REMARK    4  A    between atoms: C_10  and  C_11 
REMARK       I    between atoms: C_11  and  N_12 
REMARK    5  A    between atoms: N_12  and  N_13 
REMARK    6  A    between atoms: C_17  and  C_18 
ROOT
HETATM    1  C   UNL     1      40.557 -15.100   4.742  1.00  0.00     0.261 C 
HETATM    2  N   UNL     1      40.595 -15.688   3.494  1.00  0.00    -0.255 N 
HETATM    3  O   UNL     1      40.329 -13.906   4.931  1.00  0.00    -0.269 OA
HETATM    4  H   UNL     1      41.055 -16.594   3.384  1.00  0.00     0.191 HD
ENDROOT
BRANCH   1   5
HETATM    5  C   UNL     1      40.781 -16.085   5.893  1.00  0.00     0.283 C 
BRANCH   5   6
HETATM    6  O   UNL     1      41.923 -15.816   6.707  1.00  0.00    -0.308 OA
BRANCH   6   7
HETATM    7  C   UNL     1      43.107 -15.752   6.051  1.00  0.00     0.293 C 
HETATM    8  O   UNL     1      43.749 -14.727   5.869  1.00  0.00    -0.259 OA
BRANCH   7   9
HETATM    9  C   UNL     1      43.545 -17.095   5.585  1.00  0.00     0.040 A 
HETATM   10  C   UNL     1      44.115 -17.959   6.527  1.00  0.00     0.020 A 
HETATM   11  C   UNL     1      44.552 -19.238   6.167  1.00  0.00     0.031 A 
HETATM   12  C   UNL     1      44.397 -19.620   4.830  1.00  0.00     0.043 A 
HETATM   13  C   UNL     1      43.841 -18.787   3.861  1.00  0.00    -0.001 A 
HETATM   14  N   UNL     1      44.724 -20.802   4.208  1.00  0.00    -0.359 N 
HETATM   15  C   UNL     1      43.850 -19.505   2.621  1.00  0.00    -0.027 A 
HETATM   16  C   UNL     1      43.405 -17.501   4.247  1.00  0.00     0.032 A 
HETATM   17  C   UNL     1      43.355 -19.014   1.306  1.00  0.00     0.051 C 
HETATM   18  C   UNL     1      44.393 -20.754   2.878  1.00  0.00     0.012 A 
HETATM   19  C   UNL     1      44.627 -21.912   1.976  1.00  0.00     0.068 C 
HETATM   20  H   UNL     1      45.140 -21.594   4.676  1.00  0.00     0.166 HD
ENDBRANCH   7   9
ENDBRANCH   6   7
ENDBRANCH   5   6
ENDBRANCH   1   5
BRANCH   2  21
HETATM   21  N   UNL     1      40.611 -14.856   2.392  1.00  0.00    -0.167 N 
HETATM   22  C   UNL     1      41.732 -14.227   1.925  1.00  0.00     0.345 A 
HETATM   23  O   UNL     1      42.877 -14.324   2.335  1.00  0.00    -0.245 OA
HETATM   24  N   UNL     1      41.362 -13.468   0.833  1.00  0.00    -0.319 N 
HETATM   25  C   UNL     1      39.978 -13.696   0.443  1.00  0.00     0.141 A 
HETATM   26  H   UNL     1      42.067 -13.026   0.259  1.00  0.00     0.166 HD
HETATM   27  C   UNL     1      39.165 -12.401   0.530  1.00  0.00     0.055 C 
HETATM   28  C   UNL     1      39.517 -14.626   1.596  1.00  0.00     0.279 A 
HETATM   29  O   UNL     1      38.391 -15.090   1.742  1.00  0.00    -0.268 OA
BRANCH  25  30
HETATM   30  C   UNL     1      39.945 -14.325  -0.949  1.00  0.00    -0.021 A 
HETATM   31  C   UNL     1      40.964 -15.168  -1.426  1.00  0.00     0.010 A 
HETATM   32  C   UNL     1      40.914 -15.701  -2.718  1.00  0.00     0.001 A 
HETATM   33  C   UNL     1      39.847 -15.400  -3.560  1.00  0.00     0.000 A 
HETATM   34  C   UNL     1      38.828 -14.567  -3.112  1.00  0.00     0.001 A 
HETATM   35  C   UNL     1      38.876 -14.033  -1.822  1.00  0.00     0.010 A 
ENDBRANCH  25  30
ENDBRANCH   2  21
TORSDOF 6
ENDMDL
MODEL 5
REMARK VINA RESULT:      -9.2      5.414      9.434
REMARK  6 active torsions:
REMARK  status: ('A' for Active; 'I' for Inactive)
REMARK    1  A    between atoms: C_7  and  C_8 
REMARK    2  A    between atoms: C_8  and  O_9 
REMARK    3  A    between atoms: O_9  and  C_10 
REMARK    4  A    between atoms: C_10  and  C_11 
REMARK       I    between atoms: C_11  and  N_12 
REMARK    5  A    between atoms: N_12  and  N_13 
REMARK    6  A    between atoms: C_17  and  C_18 
ROOT
HETATM    1  C   UNL     1      42.252 -13.066   3.203  1.00  0.00     0.261 C 
HETATM    2  N   UNL     1      40.965 -12.573   3.272  1.00  0.00    -0.255 N 
HETATM    3  O   UNL     1      42.857 -13.260   2.149  1.00  0.00    -0.269 OA
HETATM    4  H   UNL     1      40.429 -12.698   4.134  1.00  0.00     0.191 HD
ENDROOT
BRANCH   1   5
HETATM    5  C   UNL     1      42.890 -13.312   4.573  1.00  0.00     0.283 C 
BRANCH   5   6
HETATM    6  O   UNL     1      43.101 -14.687   4.904  1.00  0.00    -0.308 OA
BRANCH   6   7
HETATM    7  C   UNL     1      42.020 -15.493   4.766  1.00  0.00     0.293 C 
HETATM    8  O   UNL     1      40.922 -15.277   5.262  1.00  0.00    -0.259 OA
BRANCH   7   9
HETATM    9  C   UNL     1      42.326 -16.676   3.920  1.00  0.00     0.040 A 
HETATM   10  C   UNL     1      41.745 -16.738   2.648  1.00  0.00     0.020 A 
HETATM   11  C   UNL     1      41.985 -17.818   1.793  1.00  0.00     0.031 A 
HETATM   12  C   UNL     1      42.827 -18.834   2.257  1.00  0.00     0.043 A 
HETATM   13  C   UNL     1      43.420 -18.813   3.518  1.00  0.00    -0.001 A 
HETATM   14  N   UNL     1      43.238 -19.990   1.636  1.00  0.00    -0.359 N 
HETATM   15  C   UNL     1      44.201 -20.007   3.645  1.00  0.00    -0.027 A 
HETATM   16  C   UNL     1      43.166 -17.712   4.364  1.00  0.00     0.032 A 
HETATM   17  C   UNL     1      45.013 -20.418   4.823  1.00  0.00     0.051 C 
HETATM   18  C   UNL     1      44.074 -20.706   2.454  1.00  0.00     0.012 A 
HETATM   19  C   UNL     1      44.676 -21.992   2.018  1.00  0.00     0.068 C 
HETATM   20  H   UNL     1      42.965 -20.261   0.702  1.00  0.00     0.166 HD
ENDBRANCH   7   9
ENDBRANCH   6   7
ENDBRANCH   5   6
ENDBRANCH   1   5
BRANCH   2  21
HETATM   21  N   UNL     1      40.235 -12.514   2.101  1.00  0.00    -0.167 N 
HETATM   22  C   UNL     1      40.309 -11.483   1.205  1.00  0.00     0.345 A 
HETATM   23  O   UNL     1      41.037 -10.504   1.241  1.00  0.00    -0.245 OA
HETATM   24  N   UNL     1      39.429 -11.756   0.178  1.00  0.00    -0.319 N 
HETATM   25  C   UNL     1      38.841 -13.084   0.291  1.00  0.00     0.141 A 
HETATM   26  H   UNL     1      39.426 -11.183  -0.655  1.00  0.00     0.166 HD
HETATM   27  C   UNL     1      37.318 -12.999   0.417  1.00  0.00     0.055 C 
HETATM   28  C   UNL     1      39.409 -13.520   1.667  1.00  0.00     0.279 A 
HETATM   29  O   UNL     1      39.183 -14.582   2.237  1.00  0.00    -0.268 OA
BRANCH  25  30
HETATM   30  C   UNL     1      39.292 -13.935  -0.895  1.00  0.00    -0.021 A 
HETATM   31  C   UNL     1      40.503 -14.649  -0.902  1.00  0.00     0.010 A 
HETATM   32  C   UNL     1      40.897 -15.393  -2.019  1.00  0.00     0.001 A 
HETATM   33  C   UNL     1      40.089 -15.437  -3.152  1.00  0.00     0.000 A 
HETATM   34  C   UNL     1      38.888 -14.738  -3.170  1.00  0.00     0.001 A 
HETATM   35  C   UNL     1      38.494 -13.994  -2.057  1.00  0.00     0.010 A 
ENDBRANCH  25  30
ENDBRANCH   2  21
TORSDOF 6
ENDMDL
MODEL 6
REMARK VINA RESULT:      -9.1      2.115      3.559
REMARK  6 active torsions:
REMARK  status: ('A' for Active; 'I' for Inactive)
REMARK    1  A    between atoms: C_7  and  C_8 
REMARK    2  A    between atoms: C_8  and  O_9 
REMARK    3  A    between atoms: O_9  and  C_10 
REMARK    4  A    between atoms: C_10  and  C_11 
REMARK       I    between atoms: C_11  and  N_12 
REMARK    5  A    between atoms: N_12  and  N_13 
REMARK    6  A    between atoms: C_17  and  C_18 
ROOT
HETATM    1  C   UNL     1      40.399 -14.130   5.069  1.00  0.00     0.261 C 
HETATM    2  N   UNL     1      41.173 -14.497   6.151  1.00  0.00    -0.255 N 
HETATM    3  O   UNL     1      40.099 -14.893   4.151  1.00  0.00    -0.269 OA
HETATM    4  H   UNL     1      41.612 -13.768   6.719  1.00  0.00     0.191 HD
ENDROOT
BRANCH   1   5
HETATM    5  C   UNL     1      39.898 -12.684   5.132  1.00  0.00     0.283 C 
BRANCH   5   6
HETATM    6  O   UNL     1      40.523 -11.871   6.127  1.00  0.00    -0.308 OA
BRANCH   6   7
HETATM    7  C   UNL     1      39.756 -10.876   6.635  1.00  0.00     0.293 C 
HETATM    8  O   UNL     1      38.865 -10.302   6.023  1.00  0.00    -0.259 OA
BRANCH   7   9
HETATM    9  C   UNL     1      40.118 -10.572   8.044  1.00  0.00     0.040 A 
HETATM   10  C   UNL     1      39.087 -10.220   8.923  1.00  0.00     0.020 A 
HETATM   11  C   UNL     1      39.347  -9.920  10.264  1.00  0.00     0.031 A 
HETATM   12  C   UNL     1      40.677  -9.986  10.693  1.00  0.00     0.043 A 
HETATM   13  C   UNL     1      41.732 -10.326   9.849  1.00  0.00    -0.001 A 
HETATM   14  N   UNL     1      41.213  -9.755  11.938  1.00  0.00    -0.359 N 
HETATM   15  C   UNL     1      42.935 -10.284  10.627  1.00  0.00    -0.027 A 
HETATM   16  C   UNL     1      41.447 -10.626   8.500  1.00  0.00     0.032 A 
HETATM   17  C   UNL     1      44.314 -10.573  10.148  1.00  0.00     0.051 C 
HETATM   18  C   UNL     1      42.573  -9.939  11.919  1.00  0.00     0.012 A 
HETATM   19  C   UNL     1      43.397  -9.767  13.143  1.00  0.00     0.068 C 
HETATM   20  H   UNL     1      40.672  -9.496  12.751  1.00  0.00     0.166 HD
ENDBRANCH   7   9
ENDBRANCH   6   7
ENDBRANCH   5   6
ENDBRANCH   1   5
BRANCH   2  21
HETATM   21  N   UNL     1      41.838 -15.706   6.087  1.00  0.00    -0.167 N 
HETATM   22  C   UNL     1      41.320 -16.887   6.541  1.00  0.00     0.345 A 
HETATM   23  O   UNL     1      40.212 -17.095   7.008  1.00  0.00    -0.245 OA
HETATM   24  N   UNL     1      42.268 -17.868   6.332  1.00  0.00    -0.319 N 
HETATM   25  C   UNL     1      43.414 -17.379   5.578  1.00  0.00     0.141 A 
HETATM   26  H   UNL     1      42.035 -18.841   6.478  1.00  0.00     0.166 HD
HETATM   27  C   UNL     1      44.704 -17.515   6.391  1.00  0.00     0.055 C 
HETATM   28  C   UNL     1      43.062 -15.870   5.491  1.00  0.00     0.279 A 
HETATM   29  O   UNL     1      43.743 -15.000   4.958  1.00  0.00    -0.268 OA
BRANCH  25  30
HETATM   30  C   UNL     1      43.479 -18.107   4.236  1.00  0.00    -0.021 A 
HETATM   31  C   UNL     1      42.732 -17.703   3.115  1.00  0.00     0.010 A 
HETATM   32  C   UNL     1      42.794 -18.414   1.912  1.00  0.00     0.001 A 
HETATM   33  C   UNL     1      43.602 -19.542   1.805  1.00  0.00     0.000 A 
HETATM   34  C   UNL     1      44.348 -19.963   2.900  1.00  0.00     0.001 A 
HETATM   35  C   UNL     1      44.287 -19.255   4.102  1.00  0.00     0.010 A 
ENDBRANCH  25  30
ENDBRANCH   2  21
TORSDOF 6
ENDMDL
MODEL 7
REMARK VINA RESULT:      -9.1      2.579      3.908
REMARK  6 active torsions:
REMARK  status: ('A' for Active; 'I' for Inactive)
REMARK    1  A    between atoms: C_7  and  C_8 
REMARK    2  A    between atoms: C_8  and  O_9 
REMARK    3  A    between atoms: O_9  and  C_10 
REMARK    4  A    between atoms: C_10  and  C_11 
REMARK       I    between atoms: C_11  and  N_12 
REMARK    5  A    between atoms: N_12  and  N_13 
REMARK    6  A    between atoms: C_17  and  C_18 
ROOT
HETATM    1  C   UNL     1      40.655 -13.954   4.887  1.00  0.00     0.261 C 
HETATM    2  N   UNL     1      41.801 -14.710   5.028  1.00  0.00    -0.255 N 
HETATM    3  O   UNL     1      39.835 -14.114   3.983  1.00  0.00    -0.269 OA
HETATM    4  H   UNL     1      42.562 -14.356   5.612  1.00  0.00     0.191 HD
ENDROOT
BRANCH   1   5
HETATM    5  C   UNL     1      40.463 -12.913   5.993  1.00  0.00     0.283 C 
BRANCH   5   6
HETATM    6  O   UNL     1      41.617 -12.122   6.286  1.00  0.00    -0.308 OA
BRANCH   6   7
HETATM    7  C   UNL     1      41.407 -10.785   6.351  1.00  0.00     0.293 C 
HETATM    8  O   UNL     1      41.153 -10.072   5.389  1.00  0.00    -0.259 OA
BRANCH   7   9
HETATM    9  C   UNL     1      41.509 -10.283   7.746  1.00  0.00     0.040 A 
HETATM   10  C   UNL     1      40.537  -9.379   8.190  1.00  0.00     0.020 A 
HETATM   11  C   UNL     1      40.564  -8.863   9.489  1.00  0.00     0.031 A 
HETATM   12  C   UNL     1      41.601  -9.284  10.328  1.00  0.00     0.043 A 
HETATM   13  C   UNL     1      42.592 -10.177   9.924  1.00  0.00    -0.001 A 
HETATM   14  N   UNL     1      41.866  -8.951  11.636  1.00  0.00    -0.359 N 
HETATM   15  C   UNL     1      43.477 -10.368  11.034  1.00  0.00    -0.027 A 
HETATM   16  C   UNL     1      42.543 -10.687   8.609  1.00  0.00     0.032 A 
HETATM   17  C   UNL     1      44.684 -11.237  11.070  1.00  0.00     0.051 C 
HETATM   18  C   UNL     1      42.988  -9.602  12.082  1.00  0.00     0.012 A 
HETATM   19  C   UNL     1      43.486  -9.431  13.471  1.00  0.00     0.068 C 
HETATM   20  H   UNL     1      41.300  -8.321  12.188  1.00  0.00     0.166 HD
ENDBRANCH   7   9
ENDBRANCH   6   7
ENDBRANCH   5   6
ENDBRANCH   1   5
BRANCH   2  21
HETATM   21  N   UNL     1      42.165 -15.527   3.977  1.00  0.00    -0.167 N 
HETATM   22  C   UNL     1      43.133 -15.212   3.063  1.00  0.00     0.345 A 
HETATM   23  O   UNL     1      43.857 -14.229   3.040  1.00  0.00    -0.245 OA
HETATM   24  N   UNL     1      43.205 -16.248   2.154  1.00  0.00    -0.319 N 
HETATM   25  C   UNL     1      42.370 -17.378   2.536  1.00  0.00     0.141 A 
HETATM   26  H   UNL     1      43.949 -16.274   1.471  1.00  0.00     0.166 HD
HETATM   27  C   UNL     1      41.311 -17.662   1.468  1.00  0.00     0.055 C 
HETATM   28  C   UNL     1      41.650 -16.783   3.774  1.00  0.00     0.279 A 
HETATM   29  O   UNL     1      40.804 -17.349   4.458  1.00  0.00    -0.268 OA
BRANCH  25  30
HETATM   30  C   UNL     1      43.261 -18.586   2.824  1.00  0.00    -0.021 A 
HETATM   31  C   UNL     1      43.407 -19.655   1.923  1.00  0.00     0.010 A 
HETATM   32  C   UNL     1      44.209 -20.757   2.235  1.00  0.00     0.001 A 
HETATM   33  C   UNL     1      44.878 -20.816   3.454  1.00  0.00     0.000 A 
HETATM   34  C   UNL     1      44.748 -19.772   4.363  1.00  0.00     0.001 A 
HETATM   35  C   UNL     1      43.948 -18.670   4.054  1.00  0.00     0.010 A 
ENDBRANCH  25  30
ENDBRANCH   2  21
TORSDOF 6
ENDMDL
MODEL 8
REMARK VINA RESULT:      -9.1      2.871     10.183
REMARK  6 active torsions:
REMARK  status: ('A' for Active; 'I' for Inactive)
REMARK    1  A    between atoms: C_7  and  C_8 
REMARK    2  A    between atoms: C_8  and  O_9 
REMARK    3  A    between atoms: O_9  and  C_10 
REMARK    4  A    between atoms: C_10  and  C_11 
REMARK       I    between atoms: C_11  and  N_12 
REMARK    5  A    between atoms: N_12  and  N_13 
REMARK    6  A    between atoms: C_17  and  C_18 
ROOT
HETATM    1  C   UNL     1      41.529 -12.365   5.355  1.00  0.00     0.261 C 
HETATM    2  N   UNL     1      40.526 -11.450   5.605  1.00  0.00    -0.255 N 
HETATM    3  O   UNL     1      42.222 -12.879   6.233  1.00  0.00    -0.269 OA
HETATM    4  H   UNL     1      40.187 -10.863   4.840  1.00  0.00     0.191 HD
ENDROOT
BRANCH   1   5
HETATM    5  C   UNL     1      41.677 -12.727   3.875  1.00  0.00     0.283 C 
BRANCH   5   6
HETATM    6  O   UNL     1      41.906 -14.113   3.611  1.00  0.00    -0.308 OA
BRANCH   6   7
HETATM    7  C   UNL     1      43.192 -14.454   3.356  1.00  0.00     0.293 C 
HETATM    8  O   UNL     1      44.153 -13.710   3.501  1.00  0.00    -0.259 OA
BRANCH   7   9
HETATM    9  C   UNL     1      43.301 -15.861   2.887  1.00  0.00     0.040 A 
HETATM   10  C   UNL     1      42.960 -16.135   1.557  1.00  0.00     0.020 A 
HETATM   11  C   UNL     1      43.037 -17.433   1.041  1.00  0.00     0.031 A 
HETATM   12  C   UNL     1      43.467 -18.446   1.905  1.00  0.00     0.043 A 
HETATM   13  C   UNL     1      43.809 -18.215   3.236  1.00  0.00    -0.001 A 
HETATM   14  N   UNL     1      43.643 -19.789   1.669  1.00  0.00    -0.359 N 
HETATM   15  C   UNL     1      44.191 -19.474   3.805  1.00  0.00    -0.027 A 
HETATM   16  C   UNL     1      43.726 -16.898   3.735  1.00  0.00     0.032 A 
HETATM   17  C   UNL     1      44.635 -19.719   5.204  1.00  0.00     0.051 C 
HETATM   18  C   UNL     1      44.088 -20.423   2.800  1.00  0.00     0.012 A 
HETATM   19  C   UNL     1      44.374 -21.881   2.813  1.00  0.00     0.068 C 
HETATM   20  H   UNL     1      43.475 -20.236   0.778  1.00  0.00     0.166 HD
ENDBRANCH   7   9
ENDBRANCH   6   7
ENDBRANCH   5   6
ENDBRANCH   1   5
BRANCH   2  21
HETATM   21  N   UNL     1      40.451 -10.909   6.873  1.00  0.00    -0.167 N 
HETATM   22  C   UNL     1      39.671 -11.416   7.876  1.00  0.00     0.345 A 
HETATM   23  O   UNL     1      38.979 -12.421   7.858  1.00  0.00    -0.245 OA
HETATM   24  N   UNL     1      39.834 -10.607   8.982  1.00  0.00    -0.319 N 
HETATM   25  C   UNL     1      40.868  -9.601   8.786  1.00  0.00     0.141 A 
HETATM   26  H   UNL     1      39.446 -10.882   9.874  1.00  0.00     0.166 HD
HETATM   27  C   UNL     1      40.289  -8.189   8.912  1.00  0.00     0.055 C 
HETATM   28  C   UNL     1      41.208  -9.844   7.292  1.00  0.00     0.279 A 
HETATM   29  O   UNL     1      42.026  -9.217   6.627  1.00  0.00    -0.268 OA
BRANCH  25  30
HETATM   30  C   UNL     1      42.014  -9.862   9.762  1.00  0.00    -0.021 A 
HETATM   31  C   UNL     1      43.068 -10.748   9.477  1.00  0.00     0.010 A 
HETATM   32  C   UNL     1      44.083 -10.984  10.409  1.00  0.00     0.001 A 
HETATM   33  C   UNL     1      44.066 -10.342  11.644  1.00  0.00     0.000 A 
HETATM   34  C   UNL     1      43.033  -9.464  11.950  1.00  0.00     0.001 A 
HETATM   35  C   UNL     1      42.017  -9.227  11.021  1.00  0.00     0.010 A 
ENDBRANCH  25  30
ENDBRANCH   2  21
TORSDOF 6
ENDMDL
MODEL 9
REMARK VINA RESULT:      -8.9      1.816      2.115
REMARK  6 active torsions:
REMARK  status: ('A' for Active; 'I' for Inactive)
REMARK    1  A    between atoms: C_7  and  C_8 
REMARK    2  A    between atoms: C_8  and  O_9 
REMARK    3  A    between atoms: O_9  and  C_10 
REMARK    4  A    between atoms: C_10  and  C_11 
REMARK       I    between atoms: C_11  and  N_12 
REMARK    5  A    between atoms: N_12  and  N_13 
REMARK    6  A    between atoms: C_17  and  C_18 
ROOT
HETATM    1  C   UNL     1      44.566 -14.029   7.360  1.00  0.00     0.261 C 
HETATM    2  N   UNL     1      44.187 -13.866   6.043  1.00  0.00    -0.255 N 
HETATM    3  O   UNL     1      44.084 -14.877   8.111  1.00  0.00    -0.269 OA
HETATM    4  H   UNL     1      44.410 -12.989   5.566  1.00  0.00     0.191 HD
ENDROOT
BRANCH   1   5
HETATM    5  C   UNL     1      45.686 -13.083   7.801  1.00  0.00     0.283 C 
BRANCH   5   6
HETATM    6  O   UNL     1      45.691 -12.758   9.193  1.00  0.00    -0.308 OA
BRANCH   6   7
HETATM    7  C   UNL     1      45.491 -11.451   9.488  1.00  0.00     0.293 C 
HETATM    8  O   UNL     1      46.243 -10.541   9.167  1.00  0.00    -0.259 OA
BRANCH   7   9
HETATM    9  C   UNL     1      44.227 -11.250  10.245  1.00  0.00     0.040 A 
HETATM   10  C   UNL     1      44.119 -11.843  11.508  1.00  0.00     0.020 A 
HETATM   11  C   UNL     1      42.963 -11.699  12.281  1.00  0.00     0.031 A 
HETATM   12  C   UNL     1      41.918 -10.940  11.744  1.00  0.00     0.043 A 
HETATM   13  C   UNL     1      41.983 -10.339  10.488  1.00  0.00    -0.001 A 
HETATM   14  N   UNL     1      40.690 -10.630  12.278  1.00  0.00    -0.359 N 
HETATM   15  C   UNL     1      40.741  -9.657  10.274  1.00  0.00    -0.027 A 
HETATM   16  C   UNL     1      43.161 -10.495   9.726  1.00  0.00     0.032 A 
HETATM   17  C   UNL     1      40.353  -8.873   9.070  1.00  0.00     0.051 C 
HETATM   18  C   UNL     1      39.970  -9.849  11.410  1.00  0.00     0.012 A 
HETATM   19  C   UNL     1      38.609  -9.359  11.750  1.00  0.00     0.068 C 
HETATM   20  H   UNL     1      40.374 -10.931  13.189  1.00  0.00     0.166 HD
ENDBRANCH   7   9
ENDBRANCH   6   7
ENDBRANCH   5   6
ENDBRANCH   1   5
BRANCH   2  21
HETATM   21  N   UNL     1      43.052 -14.525   5.613  1.00  0.00    -0.167 N 
HETATM   22  C   UNL     1      41.818 -13.942   5.524  1.00  0.00     0.345 A 
HETATM   23  O   UNL     1      41.515 -12.779   5.739  1.00  0.00    -0.245 OA
HETATM   24  N   UNL     1      40.932 -14.904   5.083  1.00  0.00    -0.319 N 
HETATM   25  C   UNL     1      41.599 -16.145   4.715  1.00  0.00     0.141 A 
HETATM   26  H   UNL     1      39.989 -14.647   4.824  1.00  0.00     0.166 HD
HETATM   27  C   UNL     1      41.099 -17.311   5.571  1.00  0.00     0.055 C 
HETATM   28  C   UNL     1      43.050 -15.818   5.156  1.00  0.00     0.279 A 
HETATM   29  O   UNL     1      44.015 -16.571   5.076  1.00  0.00    -0.268 OA
BRANCH  25  30
HETATM   30  C   UNL     1      41.417 -16.387   3.217  1.00  0.00    -0.021 A 
HETATM   31  C   UNL     1      41.664 -17.632   2.613  1.00  0.00     0.010 A 
HETATM   32  C   UNL     1      41.515 -17.806   1.233  1.00  0.00     0.001 A 
HETATM   33  C   UNL     1      41.119 -16.741   0.429  1.00  0.00     0.000 A 
HETATM   34  C   UNL     1      40.871 -15.499   1.003  1.00  0.00     0.001 A 
HETATM   35  C   UNL     1      41.020 -15.322   2.381  1.00  0.00     0.010 A 
ENDBRANCH  25  30
ENDBRANCH   2  21
TORSDOF 6
ENDMDL
MODEL 10
REMARK VINA RESULT:      -8.9      5.940      9.462
REMARK  6 active torsions:
REMARK  status: ('A' for Active; 'I' for Inactive)
REMARK    1  A    between atoms: C_7  and  C_8 
REMARK    2  A    between atoms: C_8  and  O_9 
REMARK    3  A    between atoms: O_9  and  C_10 
REMARK    4  A    between atoms: C_10  and  C_11 
REMARK       I    between atoms: C_11  and  N_12 
REMARK    5  A    between atoms: N_12  and  N_13 
REMARK    6  A    between atoms: C_17  and  C_18 
ROOT
HETATM    1  C   UNL     1      40.270 -15.424   2.247  1.00  0.00     0.261 C 
HETATM    2  N   UNL     1      40.217 -14.238   1.543  1.00  0.00    -0.255 N 
HETATM    3  O   UNL     1      40.289 -16.535   1.717  1.00  0.00    -0.269 OA
HETATM    4  H   UNL     1      39.925 -13.385   2.027  1.00  0.00     0.191 HD
ENDROOT
BRANCH   1   5
HETATM    5  C   UNL     1      40.353 -15.237   3.764  1.00  0.00     0.283 C 
BRANCH   5   6
HETATM    6  O   UNL     1      41.479 -14.486   4.221  1.00  0.00    -0.308 OA
BRANCH   6   7
HETATM    7  C   UNL     1      42.671 -14.832   3.677  1.00  0.00     0.293 C 
HETATM    8  O   UNL     1      43.253 -14.193   2.810  1.00  0.00    -0.259 OA
BRANCH   7   9
HETATM    9  C   UNL     1      43.202 -16.085   4.276  1.00  0.00     0.040 A 
HETATM   10  C   UNL     1      43.557 -16.064   5.629  1.00  0.00     0.020 A 
HETATM   11  C   UNL     1      44.063 -17.202   6.265  1.00  0.00     0.031 A 
HETATM   12  C   UNL     1      44.200 -18.362   5.496  1.00  0.00     0.043 A 
HETATM   13  C   UNL     1      43.864 -18.423   4.145  1.00  0.00    -0.001 A 
HETATM   14  N   UNL     1      44.655 -19.609   5.856  1.00  0.00    -0.359 N 
HETATM   15  C   UNL     1      44.141 -19.755   3.693  1.00  0.00    -0.027 A 
HETATM   16  C   UNL     1      43.354 -17.263   3.524  1.00  0.00     0.032 A 
HETATM   17  C   UNL     1      43.940 -20.287   2.318  1.00  0.00     0.051 C 
HETATM   18  C   UNL     1      44.618 -20.464   4.785  1.00  0.00     0.012 A 
HETATM   19  C   UNL     1      45.042 -21.883   4.907  1.00  0.00     0.068 C 
HETATM   20  H   UNL     1      44.962 -19.855   6.787  1.00  0.00     0.166 HD
ENDBRANCH   7   9
ENDBRANCH   6   7
ENDBRANCH   5   6
ENDBRANCH   1   5
BRANCH   2  21
HETATM   21  N   UNL     1      39.934 -14.302   0.193  1.00  0.00    -0.167 N 
HETATM   22  C   UNL     1      38.676 -14.187  -0.331  1.00  0.00     0.345 A 
HETATM   23  O   UNL     1      37.632 -13.958   0.258  1.00  0.00    -0.245 OA
HETATM   24  N   UNL     1      38.779 -14.324  -1.700  1.00  0.00    -0.319 N 
HETATM   25  C   UNL     1      40.163 -14.386  -2.148  1.00  0.00     0.141 A 
HETATM   26  H   UNL     1      37.980 -14.140  -2.291  1.00  0.00     0.166 HD
HETATM   27  C   UNL     1      40.448 -15.711  -2.862  1.00  0.00     0.055 C 
HETATM   28  C   UNL     1      40.894 -14.415  -0.780  1.00  0.00     0.279 A 
HETATM   29  O   UNL     1      42.107 -14.491  -0.612  1.00  0.00    -0.268 OA
BRANCH  25  30
HETATM   30  C   UNL     1      40.464 -13.166  -3.018  1.00  0.00    -0.021 A 
HETATM   31  C   UNL     1      41.771 -12.792  -3.376  1.00  0.00     0.010 A 
HETATM   32  C   UNL     1      42.009 -11.651  -4.149  1.00  0.00     0.001 A 
HETATM   33  C   UNL     1      40.947 -10.859  -4.577  1.00  0.00     0.000 A 
HETATM   34  C   UNL     1      39.645 -11.207  -4.233  1.00  0.00     0.001 A 
HETATM   35  C   UNL     1      39.406 -12.346  -3.461  1.00  0.00     0.010 A 
ENDBRANCH  25  30
ENDBRANCH   2  21
TORSDOF 6
ENDMDL
