MODEL 1
REMARK VINA RESULT:      -9.4      0.000      0.000
REMARK  9 active torsions:
REMARK  status: ('A' for Active; 'I' for Inactive)
REMARK       I    between atoms: N_2  and  C_3 
REMARK    1  A    between atoms: N_2  and  C_28 
REMARK    2  A    between atoms: C_3  and  C_4 
REMARK    3  A    between atoms: C_6  and  N_7 
REMARK       I    between atoms: N_7  and  C_8 
REMARK    4  A    between atoms: C_8  and  C_9 
REMARK    5  A    between atoms: C_9  and  O_10 
REMARK    6  A    between atoms: N_17  and  C_18 
REMARK    7  A    between atoms: C_18  and  C_19 
REMARK    8  A    between atoms: C_19  and  C_20 
REMARK    9  A    between atoms: C_28  and  C_29 
ROOT
HETATM    1  C   UNL     1      42.650 -13.612   4.023  1.00  0.00     0.036 C 
HETATM    2  C   UNL     1      41.730 -12.924   4.817  1.00  0.00     0.049 C 
HETATM    3  C   UNL     1      41.968 -12.661   6.178  1.00  0.00     0.065 C 
HETATM    4  C   UNL     1      43.242 -13.014   6.672  1.00  0.00     0.091 C 
HETATM    5  C   UNL     1      44.138 -13.768   5.902  1.00  0.00     0.088 C 
HETATM    6  N   UNL     1      45.254 -14.112   6.614  1.00  0.00    -0.242 NA
HETATM    7  C   UNL     1      45.110 -13.523   7.772  1.00  0.00     0.210 C 
HETATM    8  N   UNL     1      43.958 -12.775   7.834  1.00  0.00    -0.337 N 
HETATM    9  C   UNL     1      43.851 -14.071   4.565  1.00  0.00     0.051 C 
ENDROOT
BRANCH   1  10
HETATM   10  C   UNL     1      42.442 -13.750   2.562  1.00  0.00     0.253 C 
HETATM   11  N   UNL     1      41.841 -14.899   2.041  1.00  0.00    -0.350 N 
HETATM   12  C   UNL     1      41.473 -14.868   0.630  1.00  0.00     0.153 C 
HETATM   13  O   UNL     1      42.774 -12.789   1.868  1.00  0.00    -0.267 OA
BRANCH  11  14
HETATM   14  C   UNL     1      41.924 -16.231   2.676  1.00  0.00     0.158 C 
BRANCH  14  15
HETATM   15  C   UNL     1      43.234 -16.997   2.405  1.00  0.00     0.151 A 
HETATM   16  O   UNL     1      43.758 -17.521   3.660  1.00  0.00    -0.343 OA
HETATM   17  C   UNL     1      43.999 -18.843   3.438  1.00  0.00     0.075 A 
HETATM   18  C   UNL     1      43.603 -19.287   2.191  1.00  0.00    -0.022 A 
HETATM   19  C   UNL     1      44.572 -19.686   4.367  1.00  0.00     0.037 A 
HETATM   20  C   UNL     1      43.008 -18.169   1.428  1.00  0.00     0.075 A 
HETATM   21  C   UNL     1      43.764 -20.615   1.830  1.00  0.00     0.010 A 
HETATM   22  C   UNL     1      44.343 -21.489   2.756  1.00  0.00     0.001 A 
HETATM   23  C   UNL     1      44.747 -21.028   4.019  1.00  0.00     0.003 A 
ENDBRANCH  14  15
ENDBRANCH  11  14
ENDBRANCH   1  10
BRANCH   3  24
HETATM   24  N   UNL     1      40.981 -12.110   7.014  1.00  0.00    -0.323 N 
HETATM   25  C   UNL     1      40.726 -10.762   7.218  1.00  0.00     0.246 C 
HETATM   26  O   UNL     1      41.358  -9.816   6.751  1.00  0.00    -0.271 OA
HETATM   27  H   UNL     1      40.240 -12.713   7.345  1.00  0.00     0.169 HD
BRANCH  25  28
HETATM   28  C   UNL     1      39.480 -10.517   8.077  1.00  0.00     0.270 C 
BRANCH  28  29
HETATM   29  O   UNL     1      39.401 -11.412   9.186  1.00  0.00    -0.387 OA
HETATM   30  C   UNL     1      40.096 -10.896  10.317  1.00  0.00     0.202 C 
ENDBRANCH  28  29
ENDBRANCH  25  28
ENDBRANCH   3  24
BRANCH   8  31
HETATM   31  C   UNL     1      43.844 -11.652   8.745  1.00  0.00     0.134 C 
BRANCH  31  32
HETATM   32  C   UNL     1      44.420 -11.785  10.157  1.00  0.00     0.058 C 
BRANCH  32  33
HETATM   33  C   UNL     1      43.757 -11.009  11.261  1.00  0.00    -0.057 A 
HETATM   34  C   UNL     1      43.613  -9.618  11.193  1.00  0.00     0.007 A 
HETATM   35  C   UNL     1      42.974  -8.923  12.222  1.00  0.00     0.001 A 
HETATM   36  C   UNL     1      42.456  -9.613  13.316  1.00  0.00     0.000 A 
HETATM   37  C   UNL     1      42.575 -10.998  13.386  1.00  0.00     0.001 A 
HETATM   38  C   UNL     1      43.224 -11.692  12.365  1.00  0.00     0.007 A 
ENDBRANCH  32  33
ENDBRANCH  31  32
ENDBRANCH   8  31
TORSDOF 9
ENDMDL
MODEL 2
REMARK VINA RESULT:      -9.4      2.226      9.491
REMARK  9 active torsions:
REMARK  status: ('A' for Active; 'I' for Inactive)
REMARK       I    between atoms: N_2  and  C_3 
REMARK    1  A    between atoms: N_2  and  C_28 
REMARK    2  A    between atoms: C_3  and  C_4 
REMARK    3  A    between atoms: C_6  and  N_7 
REMARK       I    between atoms: N_7  and  C_8 
REMARK    4  A    between atoms: C_8  and  C_9 
REMARK    5  A    between atoms: C_9  and  O_10 
REMARK    6  A    between atoms: N_17  and  C_18 
REMARK    7  A    between atoms: C_18  and  C_19 
REMARK    8  A    between atoms: C_19  and  C_20 
REMARK    9  A    between atoms: C_28  and  C_29 
ROOT
HETATM    1  C   UNL     1      40.024 -13.356   5.162  1.00  0.00     0.036 C 
HETATM    2  C   UNL     1      40.708 -14.156   6.081  1.00  0.00     0.049 C 
HETATM    3  C   UNL     1      41.298 -15.378   5.711  1.00  0.00     0.065 C 
HETATM    4  C   UNL     1      41.280 -15.694   4.336  1.00  0.00     0.091 C 
HETATM    5  C   UNL     1      40.533 -14.933   3.425  1.00  0.00     0.088 C 
HETATM    6  N   UNL     1      40.545 -15.487   2.173  1.00  0.00    -0.242 NA
HETATM    7  C   UNL     1      41.341 -16.519   2.268  1.00  0.00     0.210 C 
HETATM    8  N   UNL     1      41.883 -16.642   3.526  1.00  0.00    -0.337 N 
HETATM    9  C   UNL     1      39.902 -13.752   3.830  1.00  0.00     0.051 C 
ENDROOT
BRANCH   1  10
HETATM   10  C   UNL     1      39.536 -12.009   5.542  1.00  0.00     0.253 C 
HETATM   11  N   UNL     1      40.400 -11.091   6.145  1.00  0.00    -0.350 N 
HETATM   12  C   UNL     1      39.913  -9.723   6.288  1.00  0.00     0.153 C 
HETATM   13  O   UNL     1      38.370 -11.745   5.248  1.00  0.00    -0.267 OA
BRANCH  11  14
HETATM   14  C   UNL     1      41.553 -11.475   6.986  1.00  0.00     0.158 C 
BRANCH  14  15
HETATM   15  C   UNL     1      41.822 -10.541   8.182  1.00  0.00     0.151 A 
HETATM   16  O   UNL     1      40.779 -10.723   9.183  1.00  0.00    -0.343 OA
HETATM   17  C   UNL     1      41.429 -10.933  10.362  1.00  0.00     0.075 A 
HETATM   18  C   UNL     1      42.804 -11.006  10.243  1.00  0.00    -0.022 A 
HETATM   19  C   UNL     1      40.791 -11.079  11.576  1.00  0.00     0.037 A 
HETATM   20  C   UNL     1      43.193 -10.834   8.827  1.00  0.00     0.075 A 
HETATM   21  C   UNL     1      43.598 -11.239  11.354  1.00  0.00     0.010 A 
HETATM   22  C   UNL     1      42.972 -11.390  12.596  1.00  0.00     0.001 A 
HETATM   23  C   UNL     1      41.576 -11.309  12.709  1.00  0.00     0.003 A 
ENDBRANCH  14  15
ENDBRANCH  11  14
ENDBRANCH   1  10
BRANCH   3  24
HETATM   24  N   UNL     1      41.848 -16.257   6.661  1.00  0.00    -0.323 N 
HETATM   25  C   UNL     1      43.139 -16.227   7.168  1.00  0.00     0.246 C 
HETATM   26  O   UNL     1      44.043 -15.465   6.831  1.00  0.00    -0.271 OA
HETATM   27  H   UNL     1      41.220 -16.839   7.198  1.00  0.00     0.169 HD
BRANCH  25  28
HETATM   28  C   UNL     1      43.355 -17.240   8.298  1.00  0.00     0.270 C 
BRANCH  28  29
HETATM   29  O   UNL     1      44.333 -18.224   7.965  1.00  0.00    -0.387 OA
HETATM   30  C   UNL     1      43.721 -19.433   7.525  1.00  0.00     0.202 C 
ENDBRANCH  28  29
ENDBRANCH  25  28
ENDBRANCH   3  24
BRANCH   8  31
HETATM   31  C   UNL     1      43.144 -17.329   3.732  1.00  0.00     0.134 C 
BRANCH  31  32
HETATM   32  C   UNL     1      43.759 -18.110   2.568  1.00  0.00     0.058 C 
BRANCH  32  33
HETATM   33  C   UNL     1      43.992 -19.583   2.758  1.00  0.00    -0.057 A 
HETATM   34  C   UNL     1      43.641 -20.512   1.771  1.00  0.00     0.007 A 
HETATM   35  C   UNL     1      43.887 -21.873   1.963  1.00  0.00     0.001 A 
HETATM   36  C   UNL     1      44.505 -22.315   3.132  1.00  0.00     0.000 A 
HETATM   37  C   UNL     1      44.876 -21.399   4.112  1.00  0.00     0.001 A 
HETATM   38  C   UNL     1      44.620 -20.041   3.927  1.00  0.00     0.007 A 
ENDBRANCH  32  33
ENDBRANCH  31  32
ENDBRANCH   8  31
TORSDOF 9
ENDMDL
MODEL 3
REMARK VINA RESULT:      -9.2      3.217      8.221
REMARK  9 active torsions:
REMARK  status: ('A' for Active; 'I' for Inactive)
REMARK       I    between atoms: N_2  and  C_3 
REMARK    1  A    between atoms: N_2  and  C_28 
REMARK    2  A    between atoms: C_3  and  C_4 
REMARK    3  A    between atoms: C_6  and  N_7 
REMARK       I    between atoms: N_7  and  C_8 
REMARK    4  A    between atoms: C_8  and  C_9 
REMARK    5  A    between atoms: C_9  and  O_10 
REMARK    6  A    between atoms: N_17  and  C_18 
REMARK    7  A    between atoms: C_18  and  C_19 
REMARK    8  A    between atoms: C_19  and  C_20 
REMARK    9  A    between atoms: C_28  and  C_29 
ROOT
HETATM    1  C   UNL     1      39.769 -12.967   4.032  1.00  0.00     0.036 C 
HETATM    2  C   UNL     1      40.867 -13.264   4.844  1.00  0.00     0.049 C 
HETATM    3  C   UNL     1      41.592 -14.460   4.709  1.00  0.00     0.065 C 
HETATM    4  C   UNL     1      41.238 -15.291   3.625  1.00  0.00     0.091 C 
HETATM    5  C   UNL     1      40.094 -15.035   2.856  1.00  0.00     0.088 C 
HETATM    6  N   UNL     1      39.861 -16.030   1.947  1.00  0.00    -0.242 NA
HETATM    7  C   UNL     1      40.871 -16.850   2.077  1.00  0.00     0.210 C 
HETATM    8  N   UNL     1      41.778 -16.410   3.013  1.00  0.00    -0.337 N 
HETATM    9  C   UNL     1      39.351 -13.865   3.050  1.00  0.00     0.051 C 
ENDROOT
BRANCH   1  10
HETATM   10  C   UNL     1      39.112 -11.640   4.097  1.00  0.00     0.253 C 
HETATM   11  N   UNL     1      39.500 -10.618   3.226  1.00  0.00    -0.350 N 
HETATM   12  C   UNL     1      38.666  -9.422   3.200  1.00  0.00     0.153 C 
HETATM   13  O   UNL     1      38.192 -11.523   4.906  1.00  0.00    -0.267 OA
BRANCH  11  14
HETATM   14  C   UNL     1      40.860 -10.491   2.662  1.00  0.00     0.158 C 
BRANCH  14  15
HETATM   15  C   UNL     1      40.960 -10.761   1.147  1.00  0.00     0.151 A 
HETATM   16  O   UNL     1      41.861 -11.882   0.914  1.00  0.00    -0.343 OA
HETATM   17  C   UNL     1      41.182 -12.741   0.104  1.00  0.00     0.075 A 
HETATM   18  C   UNL     1      39.879 -12.362  -0.155  1.00  0.00    -0.022 A 
HETATM   19  C   UNL     1      41.721 -13.903  -0.409  1.00  0.00     0.037 A 
HETATM   20  C   UNL     1      39.580 -11.093   0.543  1.00  0.00     0.075 A 
HETATM   21  C   UNL     1      39.057 -13.149  -0.944  1.00  0.00     0.010 A 
HETATM   22  C   UNL     1      39.582 -14.332  -1.475  1.00  0.00     0.001 A 
HETATM   23  C   UNL     1      40.908 -14.708  -1.211  1.00  0.00     0.003 A 
ENDBRANCH  14  15
ENDBRANCH  11  14
ENDBRANCH   1  10
BRANCH   3  24
HETATM   24  N   UNL     1      42.594 -14.831   5.624  1.00  0.00    -0.323 N 
HETATM   25  C   UNL     1      43.905 -14.378   5.645  1.00  0.00     0.246 C 
HETATM   26  O   UNL     1      44.434 -13.622   4.833  1.00  0.00    -0.271 OA
HETATM   27  H   UNL     1      42.318 -15.300   6.476  1.00  0.00     0.169 HD
BRANCH  25  28
HETATM   28  C   UNL     1      44.684 -14.873   6.869  1.00  0.00     0.270 C 
BRANCH  28  29
HETATM   29  O   UNL     1      44.443 -14.072   8.026  1.00  0.00    -0.387 OA
HETATM   30  C   UNL     1      45.358 -12.983   8.099  1.00  0.00     0.202 C 
ENDBRANCH  28  29
ENDBRANCH  25  28
ENDBRANCH   3  24
BRANCH   8  31
HETATM   31  C   UNL     1      43.169 -16.821   2.956  1.00  0.00     0.134 C 
BRANCH  31  32
HETATM   32  C   UNL     1      43.680 -17.841   3.976  1.00  0.00     0.058 C 
BRANCH  32  33
HETATM   33  C   UNL     1      43.931 -19.244   3.498  1.00  0.00    -0.057 A 
HETATM   34  C   UNL     1      44.600 -20.180   4.296  1.00  0.00     0.007 A 
HETATM   35  C   UNL     1      44.802 -21.483   3.837  1.00  0.00     0.001 A 
HETATM   36  C   UNL     1      44.320 -21.868   2.588  1.00  0.00     0.000 A 
HETATM   37  C   UNL     1      43.637 -20.952   1.793  1.00  0.00     0.001 A 
HETATM   38  C   UNL     1      43.445 -19.647   2.244  1.00  0.00     0.007 A 
ENDBRANCH  32  33
ENDBRANCH  31  32
ENDBRANCH   8  31
TORSDOF 9
ENDMDL
MODEL 4
REMARK VINA RESULT:      -9.1      1.989      9.102
REMARK  9 active torsions:
REMARK  status: ('A' for Active; 'I' for Inactive)
REMARK       I    between atoms: N_2  and  C_3 
REMARK    1  A    between atoms: N_2  and  C_28 
REMARK    2  A    between atoms: C_3  and  C_4 
REMARK    3  A    between atoms: C_6  and  N_7 
REMARK       I    between atoms: N_7  and  C_8 
REMARK    4  A    between atoms: C_8  and  C_9 
REMARK    5  A    between atoms: C_9  and  O_10 
REMARK    6  A    between atoms: N_17  and  C_18 
REMARK    7  A    between atoms: C_18  and  C_19 
REMARK    8  A    between atoms: C_19  and  C_20 
REMARK    9  A    between atoms: C_28  and  C_29 
ROOT
HETATM    1  C   UNL     1      39.870 -12.041   4.842  1.00  0.00     0.036 C 
HETATM    2  C   UNL     1      40.982 -12.477   5.567  1.00  0.00     0.049 C 
HETATM    3  C   UNL     1      41.581 -13.727   5.333  1.00  0.00     0.065 C 
HETATM    4  C   UNL     1      41.085 -14.467   4.239  1.00  0.00     0.091 C 
HETATM    5  C   UNL     1      39.927 -14.069   3.558  1.00  0.00     0.088 C 
HETATM    6  N   UNL     1      39.546 -14.992   2.622  1.00  0.00    -0.242 NA
HETATM    7  C   UNL     1      40.480 -15.906   2.651  1.00  0.00     0.210 C 
HETATM    8  N   UNL     1      41.480 -15.598   3.544  1.00  0.00    -0.337 N 
HETATM    9  C   UNL     1      39.310 -12.846   3.851  1.00  0.00     0.051 C 
ENDROOT
BRANCH   1  10
HETATM   10  C   UNL     1      39.346 -10.664   5.008  1.00  0.00     0.253 C 
HETATM   11  N   UNL     1      39.493  -9.996   6.226  1.00  0.00    -0.350 N 
HETATM   12  C   UNL     1      39.151  -8.578   6.244  1.00  0.00     0.153 C 
HETATM   13  O   UNL     1      38.839 -10.148   4.011  1.00  0.00    -0.267 OA
BRANCH  11  14
HETATM   14  C   UNL     1      39.567 -10.677   7.535  1.00  0.00     0.158 C 
BRANCH  14  15
HETATM   15  C   UNL     1      40.306  -9.889   8.634  1.00  0.00     0.151 A 
HETATM   16  O   UNL     1      40.009 -10.477   9.935  1.00  0.00    -0.343 OA
HETATM   17  C   UNL     1      41.216 -10.681  10.533  1.00  0.00     0.075 A 
HETATM   18  C   UNL     1      42.301 -10.381   9.733  1.00  0.00    -0.022 A 
HETATM   19  C   UNL     1      41.365 -11.161  11.818  1.00  0.00     0.037 A 
HETATM   20  C   UNL     1      41.833  -9.912   8.411  1.00  0.00     0.075 A 
HETATM   21  C   UNL     1      43.593 -10.561  10.198  1.00  0.00     0.010 A 
HETATM   22  C   UNL     1      43.769 -11.047  11.498  1.00  0.00     0.001 A 
HETATM   23  C   UNL     1      42.661 -11.344  12.306  1.00  0.00     0.003 A 
ENDBRANCH  14  15
ENDBRANCH  11  14
ENDBRANCH   1  10
BRANCH   3  24
HETATM   24  N   UNL     1      42.597 -14.233   6.164  1.00  0.00    -0.323 N 
HETATM   25  C   UNL     1      43.965 -14.087   5.982  1.00  0.00     0.246 C 
HETATM   26  O   UNL     1      44.526 -13.543   5.033  1.00  0.00    -0.271 OA
HETATM   27  H   UNL     1      42.348 -14.551   7.090  1.00  0.00     0.169 HD
BRANCH  25  28
HETATM   28  C   UNL     1      44.781 -14.636   7.158  1.00  0.00     0.270 C 
BRANCH  28  29
HETATM   29  O   UNL     1      44.758 -13.765   8.289  1.00  0.00    -0.387 OA
HETATM   30  C   UNL     1      45.757 -12.755   8.183  1.00  0.00     0.202 C 
ENDBRANCH  28  29
ENDBRANCH  25  28
ENDBRANCH   3  24
BRANCH   8  31
HETATM   31  C   UNL     1      42.819 -16.131   3.379  1.00  0.00     0.134 C 
BRANCH  31  32
HETATM   32  C   UNL     1      43.283 -17.262   4.300  1.00  0.00     0.058 C 
BRANCH  32  33
HETATM   33  C   UNL     1      43.606 -18.590   3.672  1.00  0.00    -0.057 A 
HETATM   34  C   UNL     1      43.120 -18.938   2.407  1.00  0.00     0.007 A 
HETATM   35  C   UNL     1      43.452 -20.169   1.837  1.00  0.00     0.001 A 
HETATM   36  C   UNL     1      44.288 -21.052   2.517  1.00  0.00     0.000 A 
HETATM   37  C   UNL     1      44.793 -20.709   3.768  1.00  0.00     0.001 A 
HETATM   38  C   UNL     1      44.453 -19.485   4.344  1.00  0.00     0.007 A 
ENDBRANCH  32  33
ENDBRANCH  31  32
ENDBRANCH   8  31
TORSDOF 9
ENDMDL
MODEL 5
REMARK VINA RESULT:      -8.9      2.116      9.062
REMARK  9 active torsions:
REMARK  status: ('A' for Active; 'I' for Inactive)
REMARK       I    between atoms: N_2  and  C_3 
REMARK    1  A    between atoms: N_2  and  C_28 
REMARK    2  A    between atoms: C_3  and  C_4 
REMARK    3  A    between atoms: C_6  and  N_7 
REMARK       I    between atoms: N_7  and  C_8 
REMARK    4  A    between atoms: C_8  and  C_9 
REMARK    5  A    between atoms: C_9  and  O_10 
REMARK    6  A    between atoms: N_17  and  C_18 
REMARK    7  A    between atoms: C_18  and  C_19 
REMARK    8  A    between atoms: C_19  and  C_20 
REMARK    9  A    between atoms: C_28  and  C_29 
ROOT
HETATM    1  C   UNL     1      40.184 -13.395   3.065  1.00  0.00     0.036 C 
HETATM    2  C   UNL     1      41.321 -13.472   3.873  1.00  0.00     0.049 C 
HETATM    3  C   UNL     1      42.064 -14.658   4.004  1.00  0.00     0.065 C 
HETATM    4  C   UNL     1      41.682 -15.734   3.176  1.00  0.00     0.091 C 
HETATM    5  C   UNL     1      40.501 -15.686   2.421  1.00  0.00     0.088 C 
HETATM    6  N   UNL     1      40.250 -16.878   1.796  1.00  0.00    -0.242 NA
HETATM    7  C   UNL     1      41.281 -17.631   2.078  1.00  0.00     0.210 C 
HETATM    8  N   UNL     1      42.218 -16.964   2.833  1.00  0.00    -0.337 N 
HETATM    9  C   UNL     1      39.743 -14.512   2.354  1.00  0.00     0.051 C 
ENDROOT
BRANCH   1  10
HETATM   10  C   UNL     1      39.503 -12.100   2.830  1.00  0.00     0.253 C 
HETATM   11  N   UNL     1      39.325 -11.196   3.881  1.00  0.00    -0.350 N 
HETATM   12  C   UNL     1      38.848  -9.864   3.531  1.00  0.00     0.153 C 
HETATM   13  O   UNL     1      39.166 -11.860   1.671  1.00  0.00    -0.267 OA
BRANCH  11  14
HETATM   14  C   UNL     1      39.192 -11.598   5.298  1.00  0.00     0.158 C 
BRANCH  14  15
HETATM   15  C   UNL     1      39.639 -10.532   6.317  1.00  0.00     0.151 A 
HETATM   16  O   UNL     1      39.040 -10.820   7.614  1.00  0.00    -0.343 OA
HETATM   17  C   UNL     1      40.067 -10.804   8.509  1.00  0.00     0.075 A 
HETATM   18  C   UNL     1      41.312 -10.629   7.936  1.00  0.00    -0.022 A 
HETATM   19  C   UNL     1      39.904 -10.963   9.870  1.00  0.00     0.037 A 
HETATM   20  C   UNL     1      41.175 -10.509   6.469  1.00  0.00     0.075 A 
HETATM   21  C   UNL     1      42.455 -10.615   8.719  1.00  0.00     0.010 A 
HETATM   22  C   UNL     1      42.313 -10.774  10.102  1.00  0.00     0.001 A 
HETATM   23  C   UNL     1      41.044 -10.946  10.676  1.00  0.00     0.003 A 
ENDBRANCH  14  15
ENDBRANCH  11  14
ENDBRANCH   1  10
BRANCH   3  24
HETATM   24  N   UNL     1      43.112 -14.782   4.934  1.00  0.00    -0.323 N 
HETATM   25  C   UNL     1      43.078 -15.482   6.131  1.00  0.00     0.246 C 
HETATM   26  O   UNL     1      42.110 -16.065   6.614  1.00  0.00    -0.271 OA
HETATM   27  H   UNL     1      44.046 -14.531   4.642  1.00  0.00     0.169 HD
BRANCH  25  28
HETATM   28  C   UNL     1      44.443 -15.533   6.827  1.00  0.00     0.270 C 
BRANCH  28  29
HETATM   29  O   UNL     1      45.132 -14.284   6.763  1.00  0.00    -0.387 OA
HETATM   30  C   UNL     1      44.775 -13.442   7.855  1.00  0.00     0.202 C 
ENDBRANCH  28  29
ENDBRANCH  25  28
ENDBRANCH   3  24
BRANCH   8  31
HETATM   31  C   UNL     1      43.613 -17.363   2.815  1.00  0.00     0.134 C 
BRANCH  31  32
HETATM   32  C   UNL     1      44.014 -18.613   2.028  1.00  0.00     0.058 C 
BRANCH  32  33
HETATM   33  C   UNL     1      44.242 -19.884   2.799  1.00  0.00    -0.057 A 
HETATM   34  C   UNL     1      44.184 -21.137   2.178  1.00  0.00     0.007 A 
HETATM   35  C   UNL     1      44.420 -22.301   2.912  1.00  0.00     0.001 A 
HETATM   36  C   UNL     1      44.738 -22.222   4.266  1.00  0.00     0.000 A 
HETATM   37  C   UNL     1      44.818 -20.981   4.891  1.00  0.00     0.001 A 
HETATM   38  C   UNL     1      44.570 -19.818   4.162  1.00  0.00     0.007 A 
ENDBRANCH  32  33
ENDBRANCH  31  32
ENDBRANCH   8  31
TORSDOF 9
ENDMDL
MODEL 6
REMARK VINA RESULT:      -8.8      4.379      8.797
REMARK  9 active torsions:
REMARK  status: ('A' for Active; 'I' for Inactive)
REMARK       I    between atoms: N_2  and  C_3 
REMARK    1  A    between atoms: N_2  and  C_28 
REMARK    2  A    between atoms: C_3  and  C_4 
REMARK    3  A    between atoms: C_6  and  N_7 
REMARK       I    between atoms: N_7  and  C_8 
REMARK    4  A    between atoms: C_8  and  C_9 
REMARK    5  A    between atoms: C_9  and  O_10 
REMARK    6  A    between atoms: N_17  and  C_18 
REMARK    7  A    between atoms: C_18  and  C_19 
REMARK    8  A    between atoms: C_19  and  C_20 
REMARK    9  A    between atoms: C_28  and  C_29 
ROOT
HETATM    1  C   UNL     1      42.093 -12.894   0.359  1.00  0.00     0.036 C 
HETATM    2  C   UNL     1      42.215 -12.986   1.747  1.00  0.00     0.049 C 
HETATM    3  C   UNL     1      41.993 -14.191   2.437  1.00  0.00     0.065 C 
HETATM    4  C   UNL     1      41.769 -15.337   1.645  1.00  0.00     0.091 C 
HETATM    5  C   UNL     1      41.573 -15.236   0.260  1.00  0.00     0.088 C 
HETATM    6  N   UNL     1      41.241 -16.443  -0.294  1.00  0.00    -0.242 NA
HETATM    7  C   UNL     1      41.306 -17.297   0.694  1.00  0.00     0.210 C 
HETATM    8  N   UNL     1      41.706 -16.703   1.868  1.00  0.00    -0.337 N 
HETATM    9  C   UNL     1      41.739 -14.012  -0.397  1.00  0.00     0.051 C 
ENDROOT
BRANCH   1  10
HETATM   10  C   UNL     1      42.471 -11.653  -0.358  1.00  0.00     0.253 C 
HETATM   11  N   UNL     1      42.482 -11.621  -1.755  1.00  0.00    -0.350 N 
HETATM   12  C   UNL     1      42.648 -10.316  -2.383  1.00  0.00     0.153 C 
HETATM   13  O   UNL     1      42.712 -10.669   0.341  1.00  0.00    -0.267 OA
BRANCH  11  14
HETATM   14  C   UNL     1      42.742 -12.803  -2.603  1.00  0.00     0.158 C 
BRANCH  14  15
HETATM   15  C   UNL     1      41.668 -13.083  -3.672  1.00  0.00     0.151 A 
HETATM   16  O   UNL     1      41.467 -14.521  -3.793  1.00  0.00    -0.343 OA
HETATM   17  C   UNL     1      40.123 -14.718  -3.690  1.00  0.00     0.075 A 
HETATM   18  C   UNL     1      39.403 -13.571  -3.416  1.00  0.00    -0.022 A 
HETATM   19  C   UNL     1      39.513 -15.948  -3.827  1.00  0.00     0.037 A 
HETATM   20  C   UNL     1      40.324 -12.418  -3.305  1.00  0.00     0.075 A 
HETATM   21  C   UNL     1      38.028 -13.619  -3.260  1.00  0.00     0.010 A 
HETATM   22  C   UNL     1      37.388 -14.855  -3.394  1.00  0.00     0.001 A 
HETATM   23  C   UNL     1      38.126 -16.015  -3.678  1.00  0.00     0.003 A 
ENDBRANCH  14  15
ENDBRANCH  11  14
ENDBRANCH   1  10
BRANCH   3  24
HETATM   24  N   UNL     1      41.961 -14.250   3.842  1.00  0.00    -0.323 N 
HETATM   25  C   UNL     1      40.841 -14.443   4.637  1.00  0.00     0.246 C 
HETATM   26  O   UNL     1      39.676 -14.535   4.256  1.00  0.00    -0.271 OA
HETATM   27  H   UNL     1      42.832 -14.379   4.338  1.00  0.00     0.169 HD
BRANCH  25  28
HETATM   28  C   UNL     1      41.189 -14.604   6.121  1.00  0.00     0.270 C 
BRANCH  28  29
HETATM   29  O   UNL     1      42.224 -15.563   6.335  1.00  0.00    -0.387 OA
HETATM   30  C   UNL     1      41.687 -16.857   6.590  1.00  0.00     0.202 C 
ENDBRANCH  28  29
ENDBRANCH  25  28
ENDBRANCH   3  24
BRANCH   8  31
HETATM   31  C   UNL     1      42.351 -17.474   2.914  1.00  0.00     0.134 C 
BRANCH  31  32
HETATM   32  C   UNL     1      43.778 -17.979   2.686  1.00  0.00     0.058 C 
BRANCH  32  33
HETATM   33  C   UNL     1      44.025 -19.457   2.805  1.00  0.00    -0.057 A 
HETATM   34  C   UNL     1      44.595 -20.013   3.957  1.00  0.00     0.007 A 
HETATM   35  C   UNL     1      44.796 -21.392   4.050  1.00  0.00     0.001 A 
HETATM   36  C   UNL     1      44.409 -22.228   3.005  1.00  0.00     0.000 A 
HETATM   37  C   UNL     1      43.824 -21.690   1.863  1.00  0.00     0.001 A 
HETATM   38  C   UNL     1      43.635 -20.312   1.762  1.00  0.00     0.007 A 
ENDBRANCH  32  33
ENDBRANCH  31  32
ENDBRANCH   8  31
TORSDOF 9
ENDMDL
MODEL 7
REMARK VINA RESULT:      -8.8      2.314      9.615
REMARK  9 active torsions:
REMARK  status: ('A' for Active; 'I' for Inactive)
REMARK       I    between atoms: N_2  and  C_3 
REMARK    1  A    between atoms: N_2  and  C_28 
REMARK    2  A    between atoms: C_3  and  C_4 
REMARK    3  A    between atoms: C_6  and  N_7 
REMARK       I    between atoms: N_7  and  C_8 
REMARK    4  A    between atoms: C_8  and  C_9 
REMARK    5  A    between atoms: C_9  and  O_10 
REMARK    6  A    between atoms: N_17  and  C_18 
REMARK    7  A    between atoms: C_18  and  C_19 
REMARK    8  A    between atoms: C_19  and  C_20 
REMARK    9  A    between atoms: C_28  and  C_29 
ROOT
HETATM    1  C   UNL     1      40.173 -12.556   4.886  1.00  0.00     0.036 C 
HETATM    2  C   UNL     1      40.523 -12.792   3.555  1.00  0.00     0.049 C 
HETATM    3  C   UNL     1      41.088 -14.010   3.137  1.00  0.00     0.065 C 
HETATM    4  C   UNL     1      41.165 -15.032   4.107  1.00  0.00     0.091 C 
HETATM    5  C   UNL     1      40.885 -14.777   5.456  1.00  0.00     0.088 C 
HETATM    6  N   UNL     1      41.148 -15.865   6.244  1.00  0.00    -0.242 NA
HETATM    7  C   UNL     1      41.503 -16.807   5.410  1.00  0.00     0.210 C 
HETATM    8  N   UNL     1      41.447 -16.388   4.101  1.00  0.00    -0.337 N 
HETATM    9  C   UNL     1      40.380 -13.534   5.858  1.00  0.00     0.051 C 
ENDROOT
BRANCH   1  10
HETATM   10  C   UNL     1      39.448 -11.323   5.275  1.00  0.00     0.253 C 
HETATM   11  N   UNL     1      40.154 -10.191   5.689  1.00  0.00    -0.350 N 
HETATM   12  C   UNL     1      39.391  -8.958   5.844  1.00  0.00     0.153 C 
HETATM   13  O   UNL     1      38.222 -11.348   5.158  1.00  0.00    -0.267 OA
BRANCH  11  14
HETATM   14  C   UNL     1      41.474 -10.241   6.353  1.00  0.00     0.158 C 
BRANCH  14  15
HETATM   15  C   UNL     1      41.474 -10.904   7.744  1.00  0.00     0.151 A 
HETATM   16  O   UNL     1      42.811 -11.401   8.045  1.00  0.00    -0.343 OA
HETATM   17  C   UNL     1      43.120 -10.909   9.277  1.00  0.00     0.075 A 
HETATM   18  C   UNL     1      42.170 -10.054   9.799  1.00  0.00    -0.022 A 
HETATM   19  C   UNL     1      44.283 -11.213   9.955  1.00  0.00     0.037 A 
HETATM   20  C   UNL     1      41.052  -9.905   8.842  1.00  0.00     0.075 A 
HETATM   21  C   UNL     1      42.358  -9.458  11.035  1.00  0.00     0.010 A 
HETATM   22  C   UNL     1      43.529  -9.750  11.741  1.00  0.00     0.001 A 
HETATM   23  C   UNL     1      44.488 -10.625  11.206  1.00  0.00     0.003 A 
ENDBRANCH  14  15
ENDBRANCH  11  14
ENDBRANCH   1  10
BRANCH   3  24
HETATM   24  N   UNL     1      41.585 -14.192   1.835  1.00  0.00    -0.323 N 
HETATM   25  C   UNL     1      40.846 -14.504   0.702  1.00  0.00     0.246 C 
HETATM   26  O   UNL     1      39.639 -14.734   0.653  1.00  0.00    -0.271 OA
HETATM   27  H   UNL     1      42.520 -13.870   1.626  1.00  0.00     0.169 HD
BRANCH  25  28
HETATM   28  C   UNL     1      41.687 -14.481  -0.579  1.00  0.00     0.270 C 
BRANCH  28  29
HETATM   29  O   UNL     1      40.898 -14.229  -1.742  1.00  0.00    -0.387 OA
HETATM   30  C   UNL     1      41.021 -15.285  -2.689  1.00  0.00     0.202 C 
ENDBRANCH  28  29
ENDBRANCH  25  28
ENDBRANCH   3  24
BRANCH   8  31
HETATM   31  C   UNL     1      41.268 -17.339   3.020  1.00  0.00     0.134 C 
BRANCH  31  32
HETATM   32  C   UNL     1      42.483 -17.743   2.182  1.00  0.00     0.058 C 
BRANCH  32  33
HETATM   33  C   UNL     1      43.231 -18.984   2.584  1.00  0.00    -0.057 A 
HETATM   34  C   UNL     1      43.250 -20.123   1.771  1.00  0.00     0.007 A 
HETATM   35  C   UNL     1      43.970 -21.255   2.158  1.00  0.00     0.001 A 
HETATM   36  C   UNL     1      44.694 -21.251   3.349  1.00  0.00     0.000 A 
HETATM   37  C   UNL     1      44.699 -20.118   4.157  1.00  0.00     0.001 A 
HETATM   38  C   UNL     1      43.970 -18.991   3.778  1.00  0.00     0.007 A 
ENDBRANCH  32  33
ENDBRANCH  31  32
ENDBRANCH   8  31
TORSDOF 9
ENDMDL
MODEL 8
REMARK VINA RESULT:      -8.7      3.274      8.802
REMARK  9 active torsions:
REMARK  status: ('A' for Active; 'I' for Inactive)
REMARK       I    between atoms: N_2  and  C_3 
REMARK    1  A    between atoms: N_2  and  C_28 
REMARK    2  A    between atoms: C_3  and  C_4 
REMARK    3  A    between atoms: C_6  and  N_7 
REMARK       I    between atoms: N_7  and  C_8 
REMARK    4  A    between atoms: C_8  and  C_9 
REMARK    5  A    between atoms: C_9  and  O_10 
REMARK    6  A    between atoms: N_17  and  C_18 
REMARK    7  A    between atoms: C_18  and  C_19 
REMARK    8  A    between atoms: C_19  and  C_20 
REMARK    9  A    between atoms: C_28  and  C_29 
ROOT
HETATM    1  C   UNL     1      39.804 -13.085   4.052  1.00  0.00     0.036 C 
HETATM    2  C   UNL     1      40.903 -13.346   4.873  1.00  0.00     0.049 C 
HETATM    3  C   UNL     1      41.659 -14.525   4.754  1.00  0.00     0.065 C 
HETATM    4  C   UNL     1      41.333 -15.375   3.676  1.00  0.00     0.091 C 
HETATM    5  C   UNL     1      40.188 -15.155   2.898  1.00  0.00     0.088 C 
HETATM    6  N   UNL     1      39.986 -16.165   1.997  1.00  0.00    -0.242 NA
HETATM    7  C   UNL     1      41.016 -16.957   2.141  1.00  0.00     0.210 C 
HETATM    8  N   UNL     1      41.906 -16.485   3.077  1.00  0.00    -0.337 N 
HETATM    9  C   UNL     1      39.414 -14.002   3.076  1.00  0.00     0.051 C 
ENDROOT
BRANCH   1  10
HETATM   10  C   UNL     1      39.112 -11.774   4.100  1.00  0.00     0.253 C 
HETATM   11  N   UNL     1      39.304 -10.839   3.080  1.00  0.00    -0.350 N 
HETATM   12  C   UNL     1      38.429  -9.673   3.082  1.00  0.00     0.153 C 
HETATM   13  O   UNL     1      38.339 -11.597   5.041  1.00  0.00    -0.267 OA
BRANCH  11  14
HETATM   14  C   UNL     1      40.542 -10.738   2.278  1.00  0.00     0.158 C 
BRANCH  14  15
HETATM   15  C   UNL     1      40.415 -11.237   0.825  1.00  0.00     0.151 A 
HETATM   16  O   UNL     1      40.023 -10.128  -0.036  1.00  0.00    -0.343 OA
HETATM   17  C   UNL     1      40.911 -10.130  -1.069  1.00  0.00     0.075 A 
HETATM   18  C   UNL     1      41.921 -11.065  -0.945  1.00  0.00    -0.022 A 
HETATM   19  C   UNL     1      40.839  -9.270  -2.146  1.00  0.00     0.037 A 
HETATM   20  C   UNL     1      41.749 -11.821   0.314  1.00  0.00     0.075 A 
HETATM   21  C   UNL     1      42.911 -11.168  -1.907  1.00  0.00     0.010 A 
HETATM   22  C   UNL     1      42.858 -10.307  -3.008  1.00  0.00     0.001 A 
HETATM   23  C   UNL     1      41.826  -9.363  -3.129  1.00  0.00     0.003 A 
ENDBRANCH  14  15
ENDBRANCH  11  14
ENDBRANCH   1  10
BRANCH   3  24
HETATM   24  N   UNL     1      42.665 -14.861   5.678  1.00  0.00    -0.323 N 
HETATM   25  C   UNL     1      43.964 -14.376   5.701  1.00  0.00     0.246 C 
HETATM   26  O   UNL     1      44.479 -13.616   4.884  1.00  0.00    -0.271 OA
HETATM   27  H   UNL     1      42.396 -15.327   6.533  1.00  0.00     0.169 HD
BRANCH  25  28
HETATM   28  C   UNL     1      44.748 -14.839   6.935  1.00  0.00     0.270 C 
BRANCH  28  29
HETATM   29  O   UNL     1      44.438 -14.067   8.095  1.00  0.00    -0.387 OA
HETATM   30  C   UNL     1      45.276 -12.920   8.192  1.00  0.00     0.202 C 
ENDBRANCH  28  29
ENDBRANCH  25  28
ENDBRANCH   3  24
BRANCH   8  31
HETATM   31  C   UNL     1      43.306 -16.861   3.033  1.00  0.00     0.134 C 
BRANCH  31  32
HETATM   32  C   UNL     1      43.820 -17.917   4.014  1.00  0.00     0.058 C 
BRANCH  32  33
HETATM   33  C   UNL     1      43.966 -19.327   3.514  1.00  0.00    -0.057 A 
HETATM   34  C   UNL     1      43.524 -19.701   2.239  1.00  0.00     0.007 A 
HETATM   35  C   UNL     1      43.690 -21.012   1.791  1.00  0.00     0.001 A 
HETATM   36  C   UNL     1      44.318 -21.956   2.602  1.00  0.00     0.000 A 
HETATM   37  C   UNL     1      44.778 -21.592   3.864  1.00  0.00     0.001 A 
HETATM   38  C   UNL     1      44.602 -20.285   4.319  1.00  0.00     0.007 A 
ENDBRANCH  32  33
ENDBRANCH  31  32
ENDBRANCH   8  31
TORSDOF 9
ENDMDL
MODEL 9
REMARK VINA RESULT:      -8.7      1.531      2.128
REMARK  9 active torsions:
REMARK  status: ('A' for Active; 'I' for Inactive)
REMARK       I    between atoms: N_2  and  C_3 
REMARK    1  A    between atoms: N_2  and  C_28 
REMARK    2  A    between atoms: C_3  and  C_4 
REMARK    3  A    between atoms: C_6  and  N_7 
REMARK       I    between atoms: N_7  and  C_8 
REMARK    4  A    between atoms: C_8  and  C_9 
REMARK    5  A    between atoms: C_9  and  O_10 
REMARK    6  A    between atoms: N_17  and  C_18 
REMARK    7  A    between atoms: C_18  and  C_19 
REMARK    8  A    between atoms: C_19  and  C_20 
REMARK    9  A    between atoms: C_28  and  C_29 
ROOT
HETATM    1  C   UNL     1      42.136 -13.150   3.737  1.00  0.00     0.036 C 
HETATM    2  C   UNL     1      41.606 -12.190   4.602  1.00  0.00     0.049 C 
HETATM    3  C   UNL     1      41.988 -12.111   5.953  1.00  0.00     0.065 C 
HETATM    4  C   UNL     1      43.032 -12.968   6.362  1.00  0.00     0.091 C 
HETATM    5  C   UNL     1      43.513 -13.980   5.520  1.00  0.00     0.088 C 
HETATM    6  N   UNL     1      44.427 -14.776   6.156  1.00  0.00    -0.242 NA
HETATM    7  C   UNL     1      44.582 -14.236   7.336  1.00  0.00     0.210 C 
HETATM    8  N   UNL     1      43.833 -13.092   7.485  1.00  0.00    -0.337 N 
HETATM    9  C   UNL     1      43.072 -14.077   4.195  1.00  0.00     0.051 C 
ENDROOT
BRANCH   1  10
HETATM   10  C   UNL     1      41.827 -13.123   2.288  1.00  0.00     0.253 C 
HETATM   11  N   UNL     1      40.574 -13.534   1.826  1.00  0.00    -0.350 N 
HETATM   12  C   UNL     1      40.270 -13.274   0.424  1.00  0.00     0.153 C 
HETATM   13  O   UNL     1      42.704 -12.674   1.550  1.00  0.00    -0.267 OA
BRANCH  11  14
HETATM   14  C   UNL     1      39.734 -14.539   2.511  1.00  0.00     0.158 C 
BRANCH  14  15
HETATM   15  C   UNL     1      40.098 -16.005   2.203  1.00  0.00     0.151 A 
HETATM   16  O   UNL     1      41.138 -16.042   1.183  1.00  0.00    -0.343 OA
HETATM   17  C   UNL     1      42.115 -16.852   1.679  1.00  0.00     0.075 A 
HETATM   18  C   UNL     1      41.887 -17.288   2.969  1.00  0.00    -0.022 A 
HETATM   19  C   UNL     1      43.251 -17.203   0.978  1.00  0.00     0.037 A 
HETATM   20  C   UNL     1      40.608 -16.734   3.465  1.00  0.00     0.075 A 
HETATM   21  C   UNL     1      42.805 -18.098   3.615  1.00  0.00     0.010 A 
HETATM   22  C   UNL     1      43.964 -18.468   2.924  1.00  0.00     0.001 A 
HETATM   23  C   UNL     1      44.187 -18.025   1.611  1.00  0.00     0.003 A 
ENDBRANCH  14  15
ENDBRANCH  11  14
ENDBRANCH   1  10
BRANCH   3  24
HETATM   24  N   UNL     1      41.343 -11.251   6.860  1.00  0.00    -0.323 N 
HETATM   25  C   UNL     1      40.023 -11.328   7.279  1.00  0.00     0.246 C 
HETATM   26  O   UNL     1      39.172 -12.123   6.885  1.00  0.00    -0.271 OA
HETATM   27  H   UNL     1      41.912 -10.646   7.436  1.00  0.00     0.169 HD
BRANCH  25  28
HETATM   28  C   UNL     1      39.693 -10.323   8.388  1.00  0.00     0.270 C 
BRANCH  28  29
HETATM   29  O   UNL     1      38.447  -9.663   8.170  1.00  0.00    -0.387 OA
HETATM   30  C   UNL     1      38.641  -8.307   7.778  1.00  0.00     0.202 C 
ENDBRANCH  28  29
ENDBRANCH  25  28
ENDBRANCH   3  24
BRANCH   8  31
HETATM   31  C   UNL     1      44.220 -12.063   8.432  1.00  0.00     0.134 C 
BRANCH  31  32
HETATM   32  C   UNL     1      44.434 -12.449   9.897  1.00  0.00     0.058 C 
BRANCH  32  33
HETATM   33  C   UNL     1      43.896 -11.522  10.952  1.00  0.00    -0.057 A 
HETATM   34  C   UNL     1      43.876 -10.135  10.766  1.00  0.00     0.007 A 
HETATM   35  C   UNL     1      43.353  -9.298  11.753  1.00  0.00     0.001 A 
HETATM   36  C   UNL     1      42.826  -9.840  12.924  1.00  0.00     0.000 A 
HETATM   37  C   UNL     1      42.823 -11.219  13.112  1.00  0.00     0.001 A 
HETATM   38  C   UNL     1      43.357 -12.056  12.133  1.00  0.00     0.007 A 
ENDBRANCH  32  33
ENDBRANCH  31  32
ENDBRANCH   8  31
TORSDOF 9
ENDMDL
MODEL 10
REMARK VINA RESULT:      -8.6      3.637      8.751
REMARK  9 active torsions:
REMARK  status: ('A' for Active; 'I' for Inactive)
REMARK       I    between atoms: N_2  and  C_3 
REMARK    1  A    between atoms: N_2  and  C_28 
REMARK    2  A    between atoms: C_3  and  C_4 
REMARK    3  A    between atoms: C_6  and  N_7 
REMARK       I    between atoms: N_7  and  C_8 
REMARK    4  A    between atoms: C_8  and  C_9 
REMARK    5  A    between atoms: C_9  and  O_10 
REMARK    6  A    between atoms: N_17  and  C_18 
REMARK    7  A    between atoms: C_18  and  C_19 
REMARK    8  A    between atoms: C_19  and  C_20 
REMARK    9  A    between atoms: C_28  and  C_29 
ROOT
HETATM    1  C   UNL     1      41.980 -12.604   0.915  1.00  0.00     0.036 C 
HETATM    2  C   UNL     1      42.431 -12.914   2.200  1.00  0.00     0.049 C 
HETATM    3  C   UNL     1      42.458 -14.234   2.682  1.00  0.00     0.065 C 
HETATM    4  C   UNL     1      42.129 -15.248   1.758  1.00  0.00     0.091 C 
HETATM    5  C   UNL     1      41.607 -14.938   0.494  1.00  0.00     0.088 C 
HETATM    6  N   UNL     1      41.234 -16.063  -0.190  1.00  0.00    -0.242 NA
HETATM    7  C   UNL     1      41.585 -17.059   0.580  1.00  0.00     0.210 C 
HETATM    8  N   UNL     1      42.210 -16.630   1.728  1.00  0.00    -0.337 N 
HETATM    9  C   UNL     1      41.533 -13.610   0.058  1.00  0.00     0.051 C 
ENDROOT
BRANCH   1  10
HETATM   10  C   UNL     1      42.097 -11.226   0.379  1.00  0.00     0.253 C 
HETATM   11  N   UNL     1      41.153 -10.255   0.722  1.00  0.00    -0.350 N 
HETATM   12  C   UNL     1      41.453  -8.880   0.337  1.00  0.00     0.153 C 
HETATM   13  O   UNL     1      43.082 -10.993  -0.322  1.00  0.00    -0.267 OA
BRANCH  11  14
HETATM   14  C   UNL     1      39.747 -10.557   1.061  1.00  0.00     0.158 C 
BRANCH  14  15
HETATM   15  C   UNL     1      39.345 -10.229   2.512  1.00  0.00     0.151 A 
HETATM   16  O   UNL     1      38.734 -11.402   3.123  1.00  0.00    -0.343 OA
HETATM   17  C   UNL     1      39.388 -11.589   4.303  1.00  0.00     0.075 A 
HETATM   18  C   UNL     1      40.443 -10.721   4.508  1.00  0.00    -0.022 A 
HETATM   19  C   UNL     1      39.055 -12.565   5.220  1.00  0.00     0.037 A 
HETATM   20  C   UNL     1      40.570  -9.807   3.352  1.00  0.00     0.075 A 
HETATM   21  C   UNL     1      41.216 -10.806   5.654  1.00  0.00     0.010 A 
HETATM   22  C   UNL     1      40.897 -11.788   6.598  1.00  0.00     0.001 A 
HETATM   23  C   UNL     1      39.821 -12.663   6.384  1.00  0.00     0.003 A 
ENDBRANCH  14  15
ENDBRANCH  11  14
ENDBRANCH   1  10
BRANCH   3  24
HETATM   24  N   UNL     1      42.760 -14.531   4.023  1.00  0.00    -0.323 N 
HETATM   25  C   UNL     1      41.951 -15.205   4.926  1.00  0.00     0.246 C 
HETATM   26  O   UNL     1      40.805 -15.605   4.728  1.00  0.00    -0.271 OA
HETATM   27  H   UNL     1      43.720 -14.450   4.329  1.00  0.00     0.169 HD
BRANCH  25  28
HETATM   28  C   UNL     1      42.654 -15.487   6.258  1.00  0.00     0.270 C 
BRANCH  28  29
HETATM   29  O   UNL     1      42.114 -16.626   6.927  1.00  0.00    -0.387 OA
HETATM   30  C   UNL     1      43.050 -17.177   7.848  1.00  0.00     0.202 C 
ENDBRANCH  28  29
ENDBRANCH  25  28
ENDBRANCH   3  24
BRANCH   8  31
HETATM   31  C   UNL     1      43.132 -17.492   2.443  1.00  0.00     0.134 C 
BRANCH  31  32
HETATM   32  C   UNL     1      43.661 -18.749   1.746  1.00  0.00     0.058 C 
BRANCH  32  33
HETATM   33  C   UNL     1      44.071 -19.909   2.609  1.00  0.00    -0.057 A 
HETATM   34  C   UNL     1      44.394 -19.738   3.961  1.00  0.00     0.007 A 
HETATM   35  C   UNL     1      44.752 -20.836   4.746  1.00  0.00     0.001 A 
HETATM   36  C   UNL     1      44.770 -22.115   4.194  1.00  0.00     0.000 A 
HETATM   37  C   UNL     1      44.433 -22.301   2.856  1.00  0.00     0.001 A 
HETATM   38  C   UNL     1      44.087 -21.204   2.067  1.00  0.00     0.007 A 
ENDBRANCH  32  33
ENDBRANCH  31  32
ENDBRANCH   8  31
TORSDOF 9
ENDMDL
