MODEL 1
REMARK VINA RESULT:      -8.7      0.000      0.000
REMARK  3 active torsions:
REMARK  status: ('A' for Active; 'I' for Inactive)
REMARK    1  A    between atoms: C_5  and  C_6 
REMARK    2  A    between atoms: C_6  and  O_7 
REMARK       I    between atoms: N_10  and  C_11 
REMARK       I    between atoms: C_11  and  N_12 
REMARK    3  A    between atoms: N_12  and  C_13 
ROOT
HETATM    1  C   UNL     1      40.644 -11.875   5.350  1.00  0.00     0.105 C 
HETATM    2  C   UNL     1      42.030 -12.410   4.941  1.00  0.00     0.064 C 
HETATM    3  C   UNL     1      42.412 -13.667   5.711  1.00  0.00     0.131 C 
HETATM    4  N   UNL     1      41.380 -14.704   5.588  1.00  0.00    -0.334 N 
HETATM    5  C   UNL     1      41.581 -16.059   5.312  1.00  0.00     0.322 C 
HETATM    6  N   UNL     1      42.896 -16.443   5.182  1.00  0.00    -0.309 N 
HETATM    7  O   UNL     1      40.629 -16.830   5.199  1.00  0.00    -0.247 OA
HETATM    8  C   UNL     1      40.022 -14.273   5.916  1.00  0.00     0.131 C 
HETATM    9  C   UNL     1      39.623 -13.007   5.164  1.00  0.00     0.064 C 
HETATM   10  H   UNL     1      43.578 -15.851   5.622  1.00  0.00     0.170 HD
ENDROOT
BRANCH   6  11
HETATM   11  C   UNL     1      43.387 -17.684   4.717  1.00  0.00     0.037 A 
HETATM   12  C   UNL     1      43.042 -18.240   3.477  1.00  0.00     0.039 A 
HETATM   13  C   UNL     1      43.597 -19.459   3.123  1.00  0.00    -0.021 A 
HETATM   14  C   UNL     1      44.487 -20.112   3.968  1.00  0.00     0.041 A 
HETATM   15  C   UNL     1      43.398 -20.276   1.881  1.00  0.00     0.144 A 
HETATM   16  N   UNL     1      44.900 -21.299   3.385  1.00  0.00    -0.326 N 
HETATM   17  C   UNL     1      44.861 -19.593   5.186  1.00  0.00     0.032 A 
HETATM   18  C   UNL     1      44.305 -21.484   2.142  1.00  0.00     0.226 A 
HETATM   19  H   UNL     1      45.546 -21.963   3.784  1.00  0.00     0.169 HD
HETATM   20  O   UNL     1      44.483 -22.438   1.405  1.00  0.00    -0.273 OA
HETATM   21  C   UNL     1      44.299 -18.366   5.557  1.00  0.00     0.032 A 
ENDBRANCH   6  11
BRANCH   1  22
HETATM   22  C   UNL     1      40.686 -11.189   6.719  1.00  0.00     0.068 A 
HETATM   23  N   UNL     1      39.527 -11.245   7.431  1.00  0.00    -0.262 NA
HETATM   24  C   UNL     1      39.517 -10.729   8.682  1.00  0.00     0.123 A 
HETATM   25  C   UNL     1      40.616 -10.148   9.292  1.00  0.00    -0.044 A 
HETATM   26  C   UNL     1      40.553  -9.638  10.697  1.00  0.00     0.049 C 
HETATM   27  C   UNL     1      41.806 -10.127   8.569  1.00  0.00     0.010 A 
HETATM   28  C   UNL     1      41.846 -10.655   7.277  1.00  0.00     0.031 A 
ENDBRANCH   1  22
BRANCH   1  29
HETATM   29  O   UNL     1      40.307 -10.841   4.401  1.00  0.00    -0.383 OA
HETATM   30  H   UNL     1      40.290 -11.284   3.530  1.00  0.00     0.211 HD
ENDBRANCH   1  29
TORSDOF 3
ENDMDL
MODEL 2
REMARK VINA RESULT:      -8.2      5.332      6.467
REMARK  3 active torsions:
REMARK  status: ('A' for Active; 'I' for Inactive)
REMARK    1  A    between atoms: C_5  and  C_6 
REMARK    2  A    between atoms: C_6  and  O_7 
REMARK       I    between atoms: N_10  and  C_11 
REMARK       I    between atoms: C_11  and  N_12 
REMARK    3  A    between atoms: N_12  and  C_13 
ROOT
HETATM    1  C   UNL     1      39.684 -13.416  -1.785  1.00  0.00     0.105 C 
HETATM    2  C   UNL     1      40.973 -14.251  -1.911  1.00  0.00     0.064 C 
HETATM    3  C   UNL     1      41.724 -14.352  -0.590  1.00  0.00     0.131 C 
HETATM    4  N   UNL     1      40.859 -14.863   0.480  1.00  0.00    -0.334 N 
HETATM    5  C   UNL     1      41.173 -15.856   1.411  1.00  0.00     0.322 C 
HETATM    6  N   UNL     1      42.447 -16.367   1.317  1.00  0.00    -0.309 N 
HETATM    7  O   UNL     1      40.348 -16.225   2.245  1.00  0.00    -0.247 OA
HETATM    8  C   UNL     1      39.589 -14.156   0.645  1.00  0.00     0.131 C 
HETATM    9  C   UNL     1      38.825 -14.032  -0.671  1.00  0.00     0.064 C 
HETATM   10  H   UNL     1      43.128 -15.784   0.864  1.00  0.00     0.170 HD
ENDROOT
BRANCH   6  11
HETATM   11  C   UNL     1      42.971 -17.498   1.983  1.00  0.00     0.037 A 
HETATM   12  C   UNL     1      43.027 -18.778   1.414  1.00  0.00     0.039 A 
HETATM   13  C   UNL     1      43.575 -19.809   2.159  1.00  0.00    -0.021 A 
HETATM   14  C   UNL     1      44.071 -19.581   3.438  1.00  0.00     0.041 A 
HETATM   15  C   UNL     1      43.749 -21.256   1.807  1.00  0.00     0.144 A 
HETATM   16  N   UNL     1      44.565 -20.762   3.965  1.00  0.00    -0.326 N 
HETATM   17  C   UNL     1      44.045 -18.338   4.027  1.00  0.00     0.032 A 
HETATM   18  C   UNL     1      44.418 -21.815   3.069  1.00  0.00     0.226 A 
HETATM   19  H   UNL     1      44.984 -20.877   4.876  1.00  0.00     0.169 HD
HETATM   20  O   UNL     1      44.763 -22.967   3.264  1.00  0.00    -0.273 OA
HETATM   21  C   UNL     1      43.486 -17.291   3.285  1.00  0.00     0.032 A 
ENDBRANCH   6  11
BRANCH   1  22
HETATM   22  C   UNL     1      39.989 -11.918  -1.686  1.00  0.00     0.068 A 
HETATM   23  N   UNL     1      41.037 -11.489  -2.443  1.00  0.00    -0.262 NA
HETATM   24  C   UNL     1      41.312 -10.164  -2.466  1.00  0.00     0.123 A 
HETATM   25  C   UNL     1      40.591  -9.208  -1.770  1.00  0.00    -0.044 A 
HETATM   26  C   UNL     1      40.916  -7.752  -1.875  1.00  0.00     0.049 C 
HETATM   27  C   UNL     1      39.500  -9.653  -1.028  1.00  0.00     0.010 A 
HETATM   28  C   UNL     1      39.191 -11.014  -0.989  1.00  0.00     0.031 A 
ENDBRANCH   1  22
BRANCH   1  29
HETATM   29  O   UNL     1      38.959 -13.589  -3.021  1.00  0.00    -0.383 OA
HETATM   30  H   UNL     1      39.643 -13.618  -3.721  1.00  0.00     0.211 HD
ENDBRANCH   1  29
TORSDOF 3
ENDMDL
MODEL 3
REMARK VINA RESULT:      -8.0      5.305      9.122
REMARK  3 active torsions:
REMARK  status: ('A' for Active; 'I' for Inactive)
REMARK    1  A    between atoms: C_5  and  C_6 
REMARK    2  A    between atoms: C_6  and  O_7 
REMARK       I    between atoms: N_10  and  C_11 
REMARK       I    between atoms: C_11  and  N_12 
REMARK    3  A    between atoms: N_12  and  C_13 
ROOT
HETATM    1  C   UNL     1      43.174 -16.814   4.591  1.00  0.00     0.105 C 
HETATM    2  C   UNL     1      43.812 -15.983   3.460  1.00  0.00     0.064 C 
HETATM    3  C   UNL     1      43.296 -16.390   2.087  1.00  0.00     0.131 C 
HETATM    4  N   UNL     1      41.830 -16.336   2.028  1.00  0.00    -0.334 N 
HETATM    5  C   UNL     1      41.051 -15.773   1.014  1.00  0.00     0.322 C 
HETATM    6  N   UNL     1      41.754 -15.254  -0.048  1.00  0.00    -0.309 N 
HETATM    7  O   UNL     1      39.823 -15.759   1.094  1.00  0.00    -0.247 OA
HETATM    8  C   UNL     1      41.137 -17.063   3.091  1.00  0.00     0.131 C 
HETATM    9  C   UNL     1      41.648 -16.680   4.477  1.00  0.00     0.064 C 
HETATM   10  H   UNL     1      42.683 -15.613  -0.184  1.00  0.00     0.170 HD
ENDROOT
BRANCH   6  11
HETATM   11  C   UNL     1      41.255 -14.460  -1.105  1.00  0.00     0.037 A 
HETATM   12  C   UNL     1      41.096 -13.070  -1.025  1.00  0.00     0.039 A 
HETATM   13  C   UNL     1      40.607 -12.396  -2.132  1.00  0.00    -0.021 A 
HETATM   14  C   UNL     1      40.294 -13.077  -3.303  1.00  0.00     0.041 A 
HETATM   15  C   UNL     1      40.333 -10.933  -2.317  1.00  0.00     0.144 A 
HETATM   16  N   UNL     1      39.834 -12.183  -4.255  1.00  0.00    -0.326 N 
HETATM   17  C   UNL     1      40.447 -14.439  -3.425  1.00  0.00     0.032 A 
HETATM   18  C   UNL     1      39.821 -10.883  -3.761  1.00  0.00     0.226 A 
HETATM   19  H   UNL     1      39.541 -12.413  -5.192  1.00  0.00     0.169 HD
HETATM   20  O   UNL     1      39.465  -9.893  -4.377  1.00  0.00    -0.273 OA
HETATM   21  C   UNL     1      40.933 -15.130  -2.309  1.00  0.00     0.032 A 
ENDBRANCH   6  11
BRANCH   1  22
HETATM   22  C   UNL     1      43.750 -18.232   4.643  1.00  0.00     0.068 A 
HETATM   23  N   UNL     1      43.751 -18.813   5.875  1.00  0.00    -0.262 NA
HETATM   24  C   UNL     1      44.171 -20.094   5.980  1.00  0.00     0.123 A 
HETATM   25  C   UNL     1      44.599 -20.863   4.909  1.00  0.00    -0.044 A 
HETATM   26  C   UNL     1      45.006 -22.291   5.085  1.00  0.00     0.049 C 
HETATM   27  C   UNL     1      44.560 -20.272   3.649  1.00  0.00     0.010 A 
HETATM   28  C   UNL     1      44.128 -18.952   3.511  1.00  0.00     0.031 A 
ENDBRANCH   1  22
BRANCH   1  29
HETATM   29  O   UNL     1      43.562 -16.186   5.831  1.00  0.00    -0.383 OA
HETATM   30  H   UNL     1      44.503 -15.946   5.718  1.00  0.00     0.211 HD
ENDBRANCH   1  29
TORSDOF 3
ENDMDL
MODEL 4
REMARK VINA RESULT:      -8.0      5.950      9.668
REMARK  3 active torsions:
REMARK  status: ('A' for Active; 'I' for Inactive)
REMARK    1  A    between atoms: C_5  and  C_6 
REMARK    2  A    between atoms: C_6  and  O_7 
REMARK       I    between atoms: N_10  and  C_11 
REMARK       I    between atoms: C_11  and  N_12 
REMARK    3  A    between atoms: N_12  and  C_13 
ROOT
HETATM    1  C   UNL     1      41.263 -16.768   3.243  1.00  0.00     0.105 C 
HETATM    2  C   UNL     1      41.804 -15.326   3.192  1.00  0.00     0.064 C 
HETATM    3  C   UNL     1      42.495 -15.016   1.871  1.00  0.00     0.131 C 
HETATM    4  N   UNL     1      41.618 -15.299   0.729  1.00  0.00    -0.334 N 
HETATM    5  C   UNL     1      41.395 -14.480  -0.381  1.00  0.00     0.322 C 
HETATM    6  N   UNL     1      42.115 -13.308  -0.400  1.00  0.00    -0.309 N 
HETATM    7  O   UNL     1      40.607 -14.812  -1.265  1.00  0.00    -0.247 OA
HETATM    8  C   UNL     1      41.023 -16.635   0.716  1.00  0.00     0.131 C 
HETATM    9  C   UNL     1      40.335 -16.971   2.036  1.00  0.00     0.064 C 
HETATM   10  H   UNL     1      42.954 -13.292   0.153  1.00  0.00     0.170 HD
ENDROOT
BRANCH   6  11
HETATM   11  C   UNL     1      41.953 -12.213  -1.279  1.00  0.00     0.037 A 
HETATM   12  C   UNL     1      42.425 -12.201  -2.599  1.00  0.00     0.039 A 
HETATM   13  C   UNL     1      42.197 -11.074  -3.372  1.00  0.00    -0.021 A 
HETATM   14  C   UNL     1      41.503  -9.984  -2.859  1.00  0.00     0.041 A 
HETATM   15  C   UNL     1      42.594 -10.790  -4.790  1.00  0.00     0.144 A 
HETATM   16  N   UNL     1      41.403  -8.997  -3.824  1.00  0.00    -0.326 N 
HETATM   17  C   UNL     1      41.013  -9.963  -1.573  1.00  0.00     0.032 A 
HETATM   18  C   UNL     1      42.023  -9.384  -5.007  1.00  0.00     0.226 A 
HETATM   19  H   UNL     1      40.947  -8.103  -3.715  1.00  0.00     0.169 HD
HETATM   20  O   UNL     1      42.091  -8.716  -6.024  1.00  0.00    -0.273 OA
HETATM   21  C   UNL     1      41.246 -11.093  -0.782  1.00  0.00     0.032 A 
ENDBRANCH   6  11
BRANCH   1  22
HETATM   22  C   UNL     1      42.391 -17.786   3.437  1.00  0.00     0.068 A 
HETATM   23  N   UNL     1      42.898 -17.856   4.699  1.00  0.00    -0.262 NA
HETATM   24  C   UNL     1      43.841 -18.790   4.961  1.00  0.00     0.123 A 
HETATM   25  C   UNL     1      44.326 -19.690   4.026  1.00  0.00    -0.044 A 
HETATM   26  C   UNL     1      45.335 -20.731   4.391  1.00  0.00     0.049 C 
HETATM   27  C   UNL     1      43.775 -19.634   2.748  1.00  0.00     0.010 A 
HETATM   28  C   UNL     1      42.798 -18.682   2.451  1.00  0.00     0.031 A 
ENDBRANCH   1  22
BRANCH   1  29
HETATM   29  O   UNL     1      40.443 -16.858   4.427  1.00  0.00    -0.383 OA
HETATM   30  H   UNL     1      40.433 -15.957   4.805  1.00  0.00     0.211 HD
ENDBRANCH   1  29
TORSDOF 3
ENDMDL
MODEL 5
REMARK VINA RESULT:      -8.0      5.050      6.741
REMARK  3 active torsions:
REMARK  status: ('A' for Active; 'I' for Inactive)
REMARK    1  A    between atoms: C_5  and  C_6 
REMARK    2  A    between atoms: C_6  and  O_7 
REMARK       I    between atoms: N_10  and  C_11 
REMARK       I    between atoms: C_11  and  N_12 
REMARK    3  A    between atoms: N_12  and  C_13 
ROOT
HETATM    1  C   UNL     1      40.257 -12.939  -0.139  1.00  0.00     0.105 C 
HETATM    2  C   UNL     1      40.226 -14.480  -0.162  1.00  0.00     0.064 C 
HETATM    3  C   UNL     1      41.596 -15.087   0.116  1.00  0.00     0.131 C 
HETATM    4  N   UNL     1      42.159 -14.582   1.374  1.00  0.00    -0.334 N 
HETATM    5  C   UNL     1      42.765 -15.334   2.384  1.00  0.00     0.322 C 
HETATM    6  N   UNL     1      42.864 -16.683   2.132  1.00  0.00    -0.309 N 
HETATM    7  O   UNL     1      43.171 -14.799   3.413  1.00  0.00    -0.247 OA
HETATM    8  C   UNL     1      42.188 -13.125   1.503  1.00  0.00     0.131 C 
HETATM    9  C   UNL     1      40.828 -12.495   1.215  1.00  0.00     0.064 C 
HETATM   10  H   UNL     1      42.832 -16.959   1.166  1.00  0.00     0.170 HD
ENDROOT
BRANCH   6  11
HETATM   11  C   UNL     1      43.244 -17.701   3.036  1.00  0.00     0.037 A 
HETATM   12  C   UNL     1      43.873 -18.891   2.646  1.00  0.00     0.039 A 
HETATM   13  C   UNL     1      44.209 -19.812   3.624  1.00  0.00    -0.021 A 
HETATM   14  C   UNL     1      43.943 -19.560   4.965  1.00  0.00     0.041 A 
HETATM   15  C   UNL     1      44.871 -21.151   3.490  1.00  0.00     0.144 A 
HETATM   16  N   UNL     1      44.377 -20.624   5.737  1.00  0.00    -0.326 N 
HETATM   17  C   UNL     1      43.338 -18.399   5.390  1.00  0.00     0.032 A 
HETATM   18  C   UNL     1      44.943 -21.620   4.948  1.00  0.00     0.226 A 
HETATM   19  H   UNL     1      44.308 -20.697   6.740  1.00  0.00     0.169 HD
HETATM   20  O   UNL     1      45.409 -22.670   5.357  1.00  0.00    -0.273 OA
HETATM   21  C   UNL     1      42.987 -17.465   4.408  1.00  0.00     0.032 A 
ENDBRANCH   6  11
BRANCH   1  22
HETATM   22  C   UNL     1      40.918 -12.369  -1.398  1.00  0.00     0.068 A 
HETATM   23  N   UNL     1      40.367 -12.774  -2.576  1.00  0.00    -0.262 NA
HETATM   24  C   UNL     1      40.849 -12.247  -3.725  1.00  0.00     0.123 A 
HETATM   25  C   UNL     1      41.870 -11.313  -3.783  1.00  0.00    -0.044 A 
HETATM   26  C   UNL     1      42.326 -10.732  -5.084  1.00  0.00     0.049 C 
HETATM   27  C   UNL     1      42.402 -10.879  -2.572  1.00  0.00     0.010 A 
HETATM   28  C   UNL     1      41.922 -11.404  -1.371  1.00  0.00     0.031 A 
ENDBRANCH   1  22
BRANCH   1  29
HETATM   29  O   UNL     1      38.883 -12.501  -0.183  1.00  0.00    -0.383 OA
HETATM   30  H   UNL     1      38.906 -11.552   0.054  1.00  0.00     0.211 HD
ENDBRANCH   1  29
TORSDOF 3
ENDMDL
MODEL 6
REMARK VINA RESULT:      -7.9      6.187      8.252
REMARK  3 active torsions:
REMARK  status: ('A' for Active; 'I' for Inactive)
REMARK    1  A    between atoms: C_5  and  C_6 
REMARK    2  A    between atoms: C_6  and  O_7 
REMARK       I    between atoms: N_10  and  C_11 
REMARK       I    between atoms: C_11  and  N_12 
REMARK    3  A    between atoms: N_12  and  C_13 
ROOT
HETATM    1  C   UNL     1      39.852 -14.308  -2.571  1.00  0.00     0.105 C 
HETATM    2  C   UNL     1      40.886 -15.280  -1.969  1.00  0.00     0.064 C 
HETATM    3  C   UNL     1      41.546 -14.716  -0.718  1.00  0.00     0.131 C 
HETATM    4  N   UNL     1      40.548 -14.312   0.279  1.00  0.00    -0.334 N 
HETATM    5  C   UNL     1      40.567 -14.593   1.648  1.00  0.00     0.322 C 
HETATM    6  N   UNL     1      41.668 -15.290   2.088  1.00  0.00    -0.309 N 
HETATM    7  O   UNL     1      39.651 -14.228   2.381  1.00  0.00    -0.247 OA
HETATM    8  C   UNL     1      39.499 -13.421  -0.216  1.00  0.00     0.131 C 
HETATM    9  C   UNL     1      38.832 -13.962  -1.477  1.00  0.00     0.064 C 
HETATM   10  H   UNL     1      42.490 -15.234   1.513  1.00  0.00     0.170 HD
ENDROOT
BRANCH   6  11
HETATM   11  C   UNL     1      41.863 -15.876   3.360  1.00  0.00     0.037 A 
HETATM   12  C   UNL     1      42.674 -15.316   4.356  1.00  0.00     0.039 A 
HETATM   13  C   UNL     1      42.780 -15.975   5.570  1.00  0.00    -0.021 A 
HETATM   14  C   UNL     1      42.088 -17.158   5.803  1.00  0.00     0.041 A 
HETATM   15  C   UNL     1      43.573 -15.612   6.790  1.00  0.00     0.144 A 
HETATM   16  N   UNL     1      42.355 -17.611   7.084  1.00  0.00    -0.326 N 
HETATM   17  C   UNL     1      41.272 -17.733   4.856  1.00  0.00     0.032 A 
HETATM   18  C   UNL     1      43.229 -16.759   7.748  1.00  0.00     0.226 A 
HETATM   19  H   UNL     1      41.980 -18.446   7.509  1.00  0.00     0.169 HD
HETATM   20  O   UNL     1      43.638 -16.908   8.887  1.00  0.00    -0.273 OA
HETATM   21  C   UNL     1      41.165 -17.078   3.623  1.00  0.00     0.032 A 
ENDBRANCH   6  11
BRANCH   1  22
HETATM   22  C   UNL     1      40.531 -13.139  -3.291  1.00  0.00     0.068 A 
HETATM   23  N   UNL     1      39.687 -12.174  -3.751  1.00  0.00    -0.262 NA
HETATM   24  C   UNL     1      40.224 -11.073  -4.326  1.00  0.00     0.123 A 
HETATM   25  C   UNL     1      41.584 -10.858  -4.474  1.00  0.00    -0.044 A 
HETATM   26  C   UNL     1      42.116  -9.597  -5.076  1.00  0.00     0.049 C 
HETATM   27  C   UNL     1      42.439 -11.834  -3.968  1.00  0.00     0.010 A 
HETATM   28  C   UNL     1      41.913 -12.978  -3.367  1.00  0.00     0.031 A 
ENDBRANCH   1  22
BRANCH   1  29
HETATM   29  O   UNL     1      39.145 -15.042  -3.592  1.00  0.00    -0.383 OA
HETATM   30  H   UNL     1      38.633 -15.725  -3.114  1.00  0.00     0.211 HD
ENDBRANCH   1  29
TORSDOF 3
ENDMDL
MODEL 7
REMARK VINA RESULT:      -7.9      2.209      3.330
REMARK  3 active torsions:
REMARK  status: ('A' for Active; 'I' for Inactive)
REMARK    1  A    between atoms: C_5  and  C_6 
REMARK    2  A    between atoms: C_6  and  O_7 
REMARK       I    between atoms: N_10  and  C_11 
REMARK       I    between atoms: C_11  and  N_12 
REMARK    3  A    between atoms: N_12  and  C_13 
ROOT
HETATM    1  C   UNL     1      39.878 -11.863   6.038  1.00  0.00     0.105 C 
HETATM    2  C   UNL     1      39.433 -13.309   5.743  1.00  0.00     0.064 C 
HETATM    3  C   UNL     1      40.203 -13.922   4.581  1.00  0.00     0.131 C 
HETATM    4  N   UNL     1      41.652 -13.842   4.798  1.00  0.00    -0.334 N 
HETATM    5  C   UNL     1      42.587 -14.863   4.608  1.00  0.00     0.322 C 
HETATM    6  N   UNL     1      42.074 -16.047   4.131  1.00  0.00    -0.309 N 
HETATM    7  O   UNL     1      43.778 -14.685   4.857  1.00  0.00    -0.247 OA
HETATM    8  C   UNL     1      42.160 -12.510   5.128  1.00  0.00     0.131 C 
HETATM    9  C   UNL     1      41.394 -11.872   6.282  1.00  0.00     0.064 C 
HETATM   10  H   UNL     1      41.197 -15.988   3.644  1.00  0.00     0.170 HD
ENDROOT
BRANCH   6  11
HETATM   11  C   UNL     1      42.735 -17.292   4.032  1.00  0.00     0.037 A 
HETATM   12  C   UNL     1      42.662 -18.122   2.904  1.00  0.00     0.039 A 
HETATM   13  C   UNL     1      43.364 -19.316   2.916  1.00  0.00    -0.021 A 
HETATM   14  C   UNL     1      44.135 -19.681   4.014  1.00  0.00     0.041 A 
HETATM   15  C   UNL     1      43.455 -20.383   1.866  1.00  0.00     0.144 A 
HETATM   16  N   UNL     1      44.736 -20.906   3.777  1.00  0.00    -0.326 N 
HETATM   17  C   UNL     1      44.242 -18.889   5.134  1.00  0.00     0.032 A 
HETATM   18  C   UNL     1      44.390 -21.403   2.525  1.00  0.00     0.226 A 
HETATM   19  H   UNL     1      45.348 -21.399   4.409  1.00  0.00     0.169 HD
HETATM   20  O   UNL     1      44.771 -22.460   2.051  1.00  0.00    -0.273 OA
HETATM   21  C   UNL     1      43.530 -17.684   5.134  1.00  0.00     0.032 A 
ENDBRANCH   6  11
BRANCH   1  22
HETATM   22  C   UNL     1      39.344 -10.883   4.989  1.00  0.00     0.068 A 
HETATM   23  N   UNL     1      39.941  -9.660   4.981  1.00  0.00    -0.262 NA
HETATM   24  C   UNL     1      39.574  -8.772   4.028  1.00  0.00     0.123 A 
HETATM   25  C   UNL     1      38.628  -9.029   3.049  1.00  0.00    -0.044 A 
HETATM   26  C   UNL     1      38.302  -8.022   1.993  1.00  0.00     0.049 C 
HETATM   27  C   UNL     1      38.050 -10.296   3.043  1.00  0.00     0.010 A 
HETATM   28  C   UNL     1      38.411 -11.232   4.013  1.00  0.00     0.031 A 
ENDBRANCH   1  22
BRANCH   1  29
HETATM   29  O   UNL     1      39.251 -11.487   7.283  1.00  0.00    -0.383 OA
HETATM   30  H   UNL     1      39.483 -10.546   7.416  1.00  0.00     0.211 HD
ENDBRANCH   1  29
TORSDOF 3
ENDMDL
MODEL 8
REMARK VINA RESULT:      -7.9      6.320      8.712
REMARK  3 active torsions:
REMARK  status: ('A' for Active; 'I' for Inactive)
REMARK    1  A    between atoms: C_5  and  C_6 
REMARK    2  A    between atoms: C_6  and  O_7 
REMARK       I    between atoms: N_10  and  C_11 
REMARK       I    between atoms: C_11  and  N_12 
REMARK    3  A    between atoms: N_12  and  C_13 
ROOT
HETATM    1  C   UNL     1      40.589 -13.587  -2.752  1.00  0.00     0.105 C 
HETATM    2  C   UNL     1      40.603 -12.789  -1.433  1.00  0.00     0.064 C 
HETATM    3  C   UNL     1      40.185 -13.641  -0.242  1.00  0.00     0.131 C 
HETATM    4  N   UNL     1      41.002 -14.856  -0.140  1.00  0.00    -0.334 N 
HETATM    5  C   UNL     1      41.597 -15.373   1.013  1.00  0.00     0.322 C 
HETATM    6  N   UNL     1      41.345 -14.671   2.169  1.00  0.00    -0.309 N 
HETATM    7  O   UNL     1      42.290 -16.388   0.967  1.00  0.00    -0.247 OA
HETATM    8  C   UNL     1      41.082 -15.656  -1.362  1.00  0.00     0.131 C 
HETATM    9  C   UNL     1      41.487 -14.819  -2.572  1.00  0.00     0.064 C 
HETATM   10  H   UNL     1      40.521 -14.096   2.170  1.00  0.00     0.170 HD
ENDROOT
BRANCH   6  11
HETATM   11  C   UNL     1      41.962 -14.840   3.430  1.00  0.00     0.037 A 
HETATM   12  C   UNL     1      41.674 -15.902   4.298  1.00  0.00     0.039 A 
HETATM   13  C   UNL     1      42.352 -15.971   5.505  1.00  0.00    -0.021 A 
HETATM   14  C   UNL     1      43.305 -15.018   5.844  1.00  0.00     0.041 A 
HETATM   15  C   UNL     1      42.237 -16.977   6.611  1.00  0.00     0.144 A 
HETATM   16  N   UNL     1      43.838 -15.311   7.088  1.00  0.00    -0.326 N 
HETATM   17  C   UNL     1      43.624 -13.968   5.014  1.00  0.00     0.032 A 
HETATM   18  C   UNL     1      43.264 -16.459   7.624  1.00  0.00     0.226 A 
HETATM   19  H   UNL     1      44.549 -14.782   7.570  1.00  0.00     0.169 HD
HETATM   20  O   UNL     1      43.539 -16.952   8.704  1.00  0.00    -0.273 OA
HETATM   21  C   UNL     1      42.939 -13.886   3.796  1.00  0.00     0.032 A 
ENDBRANCH   6  11
BRANCH   1  22
HETATM   22  C   UNL     1      39.161 -13.828  -3.250  1.00  0.00     0.068 A 
HETATM   23  N   UNL     1      38.401 -12.708  -3.395  1.00  0.00    -0.262 NA
HETATM   24  C   UNL     1      37.155 -12.838  -3.907  1.00  0.00     0.123 A 
HETATM   25  C   UNL     1      36.600 -14.045  -4.302  1.00  0.00    -0.044 A 
HETATM   26  C   UNL     1      35.234 -14.117  -4.907  1.00  0.00     0.049 C 
HETATM   27  C   UNL     1      37.399 -15.179  -4.184  1.00  0.00     0.010 A 
HETATM   28  C   UNL     1      38.689 -15.072  -3.662  1.00  0.00     0.031 A 
ENDBRANCH   1  22
BRANCH   1  29
HETATM   29  O   UNL     1      41.217 -12.748  -3.745  1.00  0.00    -0.383 OA
HETATM   30  H   UNL     1      40.955 -13.128  -4.608  1.00  0.00     0.211 HD
ENDBRANCH   1  29
TORSDOF 3
ENDMDL
MODEL 9
REMARK VINA RESULT:      -7.8      4.042      4.405
REMARK  3 active torsions:
REMARK  status: ('A' for Active; 'I' for Inactive)
REMARK    1  A    between atoms: C_5  and  C_6 
REMARK    2  A    between atoms: C_6  and  O_7 
REMARK       I    between atoms: N_10  and  C_11 
REMARK       I    between atoms: C_11  and  N_12 
REMARK    3  A    between atoms: N_12  and  C_13 
ROOT
HETATM    1  C   UNL     1      40.288 -12.243   0.188  1.00  0.00     0.105 C 
HETATM    2  C   UNL     1      41.715 -12.729   0.508  1.00  0.00     0.064 C 
HETATM    3  C   UNL     1      41.778 -13.502   1.818  1.00  0.00     0.131 C 
HETATM    4  N   UNL     1      40.820 -14.613   1.831  1.00  0.00    -0.334 N 
HETATM    5  C   UNL     1      41.063 -15.927   2.240  1.00  0.00     0.322 C 
HETATM    6  N   UNL     1      42.333 -16.170   2.709  1.00  0.00    -0.309 N 
HETATM    7  O   UNL     1      40.183 -16.784   2.173  1.00  0.00    -0.247 OA
HETATM    8  C   UNL     1      39.443 -14.251   1.496  1.00  0.00     0.131 C 
HETATM    9  C   UNL     1      39.357 -13.464   0.191  1.00  0.00     0.064 C 
HETATM   10  H   UNL     1      42.844 -15.372   3.044  1.00  0.00     0.170 HD
ENDROOT
BRANCH   6  11
HETATM   11  C   UNL     1      42.917 -17.424   3.000  1.00  0.00     0.037 A 
HETATM   12  C   UNL     1      42.907 -18.510   2.114  1.00  0.00     0.039 A 
HETATM   13  C   UNL     1      43.523 -19.687   2.505  1.00  0.00    -0.021 A 
HETATM   14  C   UNL     1      44.149 -19.790   3.742  1.00  0.00     0.041 A 
HETATM   15  C   UNL     1      43.653 -20.988   1.770  1.00  0.00     0.144 A 
HETATM   16  N   UNL     1      44.689 -21.056   3.889  1.00  0.00    -0.326 N 
HETATM   17  C   UNL     1      44.191 -18.744   4.635  1.00  0.00     0.032 A 
HETATM   18  C   UNL     1      44.445 -21.842   2.769  1.00  0.00     0.226 A 
HETATM   19  H   UNL     1      45.198 -21.395   4.691  1.00  0.00     0.169 HD
HETATM   20  O   UNL     1      44.802 -22.998   2.620  1.00  0.00    -0.273 OA
HETATM   21  C   UNL     1      43.564 -17.552   4.252  1.00  0.00     0.032 A 
ENDBRANCH   6  11
BRANCH   1  22
HETATM   22  C   UNL     1      39.886 -11.055   1.067  1.00  0.00     0.068 A 
HETATM   23  N   UNL     1      40.872 -10.145   1.299  1.00  0.00    -0.262 NA
HETATM   24  C   UNL     1      40.566  -9.030   2.001  1.00  0.00     0.123 A 
HETATM   25  C   UNL     1      39.305  -8.748   2.500  1.00  0.00    -0.044 A 
HETATM   26  C   UNL     1      39.019  -7.473   3.228  1.00  0.00     0.049 C 
HETATM   27  C   UNL     1      38.295  -9.666   2.227  1.00  0.00     0.010 A 
HETATM   28  C   UNL     1      38.582 -10.824   1.502  1.00  0.00     0.031 A 
ENDBRANCH   1  22
BRANCH   1  29
HETATM   29  O   UNL     1      40.319 -11.739  -1.164  1.00  0.00    -0.383 OA
HETATM   30  H   UNL     1      39.382 -11.649  -1.429  1.00  0.00     0.211 HD
ENDBRANCH   1  29
TORSDOF 3
ENDMDL
MODEL 10
REMARK VINA RESULT:      -7.7      6.037      7.383
REMARK  3 active torsions:
REMARK  status: ('A' for Active; 'I' for Inactive)
REMARK    1  A    between atoms: C_5  and  C_6 
REMARK    2  A    between atoms: C_6  and  O_7 
REMARK       I    between atoms: N_10  and  C_11 
REMARK       I    between atoms: C_11  and  N_12 
REMARK    3  A    between atoms: N_12  and  C_13 
ROOT
HETATM    1  C   UNL     1      41.661 -12.837  -2.940  1.00  0.00     0.105 C 
HETATM    2  C   UNL     1      42.623 -12.761  -1.738  1.00  0.00     0.064 C 
HETATM    3  C   UNL     1      41.994 -13.307  -0.462  1.00  0.00     0.131 C 
HETATM    4  N   UNL     1      41.488 -14.671  -0.657  1.00  0.00    -0.334 N 
HETATM    5  C   UNL     1      41.671 -15.764   0.194  1.00  0.00     0.322 C 
HETATM    6  N   UNL     1      42.373 -15.498   1.348  1.00  0.00    -0.309 N 
HETATM    7  O   UNL     1      41.224 -16.873  -0.094  1.00  0.00    -0.247 OA
HETATM    8  C   UNL     1      40.598 -14.848  -1.805  1.00  0.00     0.131 C 
HETATM    9  C   UNL     1      41.204 -14.295  -3.092  1.00  0.00     0.064 C 
HETATM   10  H   UNL     1      42.385 -14.540   1.650  1.00  0.00     0.170 HD
ENDROOT
BRANCH   6  11
HETATM   11  C   UNL     1      42.873 -16.431   2.284  1.00  0.00     0.037 A 
HETATM   12  C   UNL     1      43.368 -17.695   1.932  1.00  0.00     0.039 A 
HETATM   13  C   UNL     1      43.845 -18.521   2.937  1.00  0.00    -0.021 A 
HETATM   14  C   UNL     1      43.846 -18.104   4.264  1.00  0.00     0.041 A 
HETATM   15  C   UNL     1      44.413 -19.905   2.849  1.00  0.00     0.144 A 
HETATM   16  N   UNL     1      44.374 -19.101   5.067  1.00  0.00    -0.326 N 
HETATM   17  C   UNL     1      43.381 -16.868   4.648  1.00  0.00     0.032 A 
HETATM   18  C   UNL     1      44.739 -20.212   4.315  1.00  0.00     0.226 A 
HETATM   19  H   UNL     1      44.492 -19.058   6.068  1.00  0.00     0.169 HD
HETATM   20  O   UNL     1      45.230 -21.238   4.756  1.00  0.00    -0.273 OA
HETATM   21  C   UNL     1      42.890 -16.029   3.640  1.00  0.00     0.032 A 
ENDBRANCH   6  11
BRANCH   1  22
HETATM   22  C   UNL     1      40.569 -11.767  -2.857  1.00  0.00     0.068 A 
HETATM   23  N   UNL     1      40.975 -10.561  -2.371  1.00  0.00    -0.262 NA
HETATM   24  C   UNL     1      40.082  -9.545  -2.345  1.00  0.00     0.123 A 
HETATM   25  C   UNL     1      38.773  -9.650  -2.788  1.00  0.00    -0.044 A 
HETATM   26  C   UNL     1      37.847  -8.475  -2.778  1.00  0.00     0.049 C 
HETATM   27  C   UNL     1      38.378 -10.877  -3.316  1.00  0.00     0.010 A 
HETATM   28  C   UNL     1      39.281 -11.941  -3.357  1.00  0.00     0.031 A 
ENDBRANCH   1  22
BRANCH   1  29
HETATM   29  O   UNL     1      42.441 -12.514  -4.110  1.00  0.00    -0.383 OA
HETATM   30  H   UNL     1      43.270 -12.121  -3.770  1.00  0.00     0.211 HD
ENDBRANCH   1  29
TORSDOF 3
ENDMDL
