MODEL 1
REMARK VINA RESULT:      -7.9      0.000      0.000
REMARK  2 active torsions:
REMARK  status: ('A' for Active; 'I' for Inactive)
REMARK    1  A    between atoms: C_6  and  N_7 
REMARK       I    between atoms: N_7  and  C_8 
REMARK       I    between atoms: C_8  and  N_9 
REMARK    2  A    between atoms: N_9  and  C_10 
ROOT
HETATM    1  N   UNL     1      44.458 -19.211   2.273  1.00  0.00    -0.306 N 
HETATM    2  C   UNL     1      43.911 -17.998   2.554  1.00  0.00     0.321 C 
HETATM    3  N   UNL     1      43.339 -17.809   3.772  1.00  0.00    -0.338 N 
HETATM    4  O   UNL     1      44.075 -17.075   1.759  1.00  0.00    -0.247 OA
HETATM    5  H   UNL     1      45.082 -19.127   1.478  1.00  0.00     0.171 HD
HETATM    6  H   UNL     1      42.890 -18.619   4.175  1.00  0.00     0.164 HD
ENDROOT
BRANCH   3   7
HETATM    7  C   UNL     1      42.855 -16.515   4.237  1.00  0.00     0.092 C 
HETATM    8  C   UNL     1      41.307 -16.502   4.399  1.00  0.00     0.084 C 
HETATM    9  C   UNL     1      40.900 -15.272   5.100  1.00  0.00     0.034 A 
HETATM   10  C   UNL     1      41.739 -14.425   5.788  1.00  0.00     0.033 A 
HETATM   11  N   UNL     1      39.630 -14.751   5.234  1.00  0.00    -0.354 N 
HETATM   12  N   UNL     1      40.940 -13.424   6.297  1.00  0.00    -0.354 N 
HETATM   13  C   UNL     1      43.202 -14.575   5.905  1.00  0.00     0.061 C 
HETATM   14  H   UNL     1      41.265 -12.639   6.859  1.00  0.00     0.166 HD
HETATM   15  C   UNL     1      39.661 -13.633   5.967  1.00  0.00     0.180 A 
HETATM   16  C   UNL     1      43.605 -16.010   5.504  1.00  0.00     0.031 C 
HETATM   17  H   UNL     1      38.783 -15.164   4.849  1.00  0.00     0.166 HD
ENDBRANCH   3   7
BRANCH   1  18
HETATM   18  C   UNL     1      44.572 -20.399   3.032  1.00  0.00     0.077 A 
HETATM   19  C   UNL     1      44.349 -21.714   2.617  1.00  0.00     0.152 A 
HETATM   20  N   UNL     1      44.417 -22.798   3.425  1.00  0.00    -0.247 NA
HETATM   21 CL   UNL     1      44.128 -22.179   0.970  1.00  0.00    -0.060 Cl
HETATM   22  C   UNL     1      44.769 -22.583   4.708  1.00  0.00     0.118 A 
HETATM   23  C   UNL     1      45.076 -21.333   5.213  1.00  0.00     0.022 A 
HETATM   24  C   UNL     1      44.987 -20.234   4.360  1.00  0.00     0.034 A 
ENDBRANCH   1  18
TORSDOF 2
ENDMDL
MODEL 2
REMARK VINA RESULT:      -7.8      1.981      2.608
REMARK  2 active torsions:
REMARK  status: ('A' for Active; 'I' for Inactive)
REMARK    1  A    between atoms: C_6  and  N_7 
REMARK       I    between atoms: N_7  and  C_8 
REMARK       I    between atoms: C_8  and  N_9 
REMARK    2  A    between atoms: N_9  and  C_10 
ROOT
HETATM    1  N   UNL     1      45.188 -19.510   4.964  1.00  0.00    -0.306 N 
HETATM    2  C   UNL     1      44.652 -18.375   5.487  1.00  0.00     0.321 C 
HETATM    3  N   UNL     1      43.480 -17.914   4.978  1.00  0.00    -0.338 N 
HETATM    4  O   UNL     1      45.166 -17.884   6.491  1.00  0.00    -0.247 OA
HETATM    5  H   UNL     1      45.879 -19.887   5.604  1.00  0.00     0.171 HD
HETATM    6  H   UNL     1      43.338 -18.076   3.991  1.00  0.00     0.164 HD
ENDROOT
BRANCH   3   7
HETATM    7  C   UNL     1      42.740 -16.798   5.553  1.00  0.00     0.092 C 
HETATM    8  C   UNL     1      43.219 -15.432   4.981  1.00  0.00     0.084 C 
HETATM    9  C   UNL     1      42.285 -14.373   5.400  1.00  0.00     0.034 A 
HETATM   10  C   UNL     1      41.030 -14.573   5.929  1.00  0.00     0.033 A 
HETATM   11  N   UNL     1      42.458 -13.007   5.321  1.00  0.00    -0.354 N 
HETATM   12  N   UNL     1      40.505 -13.318   6.156  1.00  0.00    -0.354 N 
HETATM   13  C   UNL     1      40.416 -15.884   6.213  1.00  0.00     0.061 C 
HETATM   14  H   UNL     1      39.584 -13.127   6.544  1.00  0.00     0.166 HD
HETATM   15  C   UNL     1      41.372 -12.373   5.775  1.00  0.00     0.180 A 
HETATM   16  C   UNL     1      41.197 -16.988   5.468  1.00  0.00     0.031 C 
HETATM   17  H   UNL     1      43.284 -12.541   4.951  1.00  0.00     0.166 HD
ENDBRANCH   3   7
BRANCH   1  18
HETATM   18  C   UNL     1      44.754 -20.377   3.935  1.00  0.00     0.077 A 
HETATM   19  C   UNL     1      44.809 -21.773   3.900  1.00  0.00     0.152 A 
HETATM   20  N   UNL     1      44.430 -22.532   2.845  1.00  0.00    -0.247 NA
HETATM   21 CL   UNL     1      45.203 -22.754   5.263  1.00  0.00    -0.060 Cl
HETATM   22  C   UNL     1      43.923 -21.884   1.777  1.00  0.00     0.118 A 
HETATM   23  C   UNL     1      43.760 -20.513   1.726  1.00  0.00     0.022 A 
HETATM   24  C   UNL     1      44.170 -19.756   2.823  1.00  0.00     0.034 A 
ENDBRANCH   1  18
TORSDOF 2
ENDMDL
MODEL 3
REMARK VINA RESULT:      -7.6      4.653      7.193
REMARK  2 active torsions:
REMARK  status: ('A' for Active; 'I' for Inactive)
REMARK    1  A    between atoms: C_6  and  N_7 
REMARK       I    between atoms: N_7  and  C_8 
REMARK       I    between atoms: C_8  and  N_9 
REMARK    2  A    between atoms: N_9  and  C_10 
ROOT
HETATM    1  N   UNL     1      40.609 -15.772  -0.136  1.00  0.00    -0.306 N 
HETATM    2  C   UNL     1      41.235 -16.623   0.720  1.00  0.00     0.321 C 
HETATM    3  N   UNL     1      42.580 -16.781   0.613  1.00  0.00    -0.338 N 
HETATM    4  O   UNL     1      40.592 -17.111   1.648  1.00  0.00    -0.247 OA
HETATM    5  H   UNL     1      39.692 -15.536   0.228  1.00  0.00     0.171 HD
HETATM    6  H   UNL     1      42.956 -16.712  -0.322  1.00  0.00     0.164 HD
ENDROOT
BRANCH   3   7
HETATM    7  C   UNL     1      43.375 -17.547   1.564  1.00  0.00     0.092 C 
HETATM    8  C   UNL     1      43.268 -16.969   3.005  1.00  0.00     0.084 C 
HETATM    9  C   UNL     1      43.878 -17.913   3.957  1.00  0.00     0.034 A 
HETATM   10  C   UNL     1      44.202 -19.225   3.690  1.00  0.00     0.033 A 
HETATM   11  N   UNL     1      44.211 -17.693   5.277  1.00  0.00    -0.354 N 
HETATM   12  N   UNL     1      44.726 -19.735   4.859  1.00  0.00    -0.354 N 
HETATM   13  C   UNL     1      44.037 -19.903   2.391  1.00  0.00     0.061 C 
HETATM   14  H   UNL     1      45.060 -20.688   4.988  1.00  0.00     0.166 HD
HETATM   15  C   UNL     1      44.718 -18.805   5.820  1.00  0.00     0.180 A 
HETATM   16  C   UNL     1      43.088 -19.076   1.497  1.00  0.00     0.031 C 
HETATM   17  H   UNL     1      44.072 -16.818   5.779  1.00  0.00     0.166 HD
ENDBRANCH   3   7
BRANCH   1  18
HETATM   18  C   UNL     1      41.092 -14.955  -1.183  1.00  0.00     0.077 A 
HETATM   19  C   UNL     1      41.010 -15.176  -2.561  1.00  0.00     0.152 A 
HETATM   20  N   UNL     1      41.557 -14.373  -3.503  1.00  0.00    -0.247 NA
HETATM   21 CL   UNL     1      40.046 -16.412  -3.280  1.00  0.00    -0.060 Cl
HETATM   22  C   UNL     1      42.185 -13.262  -3.070  1.00  0.00     0.118 A 
HETATM   23  C   UNL     1      42.270 -12.908  -1.736  1.00  0.00     0.022 A 
HETATM   24  C   UNL     1      41.706 -13.759  -0.788  1.00  0.00     0.034 A 
ENDBRANCH   1  18
TORSDOF 2
ENDMDL
MODEL 4
REMARK VINA RESULT:      -7.6      3.220      4.096
REMARK  2 active torsions:
REMARK  status: ('A' for Active; 'I' for Inactive)
REMARK    1  A    between atoms: C_6  and  N_7 
REMARK       I    between atoms: N_7  and  C_8 
REMARK       I    between atoms: C_8  and  N_9 
REMARK    2  A    between atoms: N_9  and  C_10 
ROOT
HETATM    1  N   UNL     1      44.311 -18.701   4.799  1.00  0.00    -0.306 N 
HETATM    2  C   UNL     1      43.712 -17.634   4.205  1.00  0.00     0.321 C 
HETATM    3  N   UNL     1      43.059 -17.826   3.028  1.00  0.00    -0.338 N 
HETATM    4  O   UNL     1      43.657 -16.568   4.815  1.00  0.00    -0.247 OA
HETATM    5  H   UNL     1      44.500 -18.486   5.772  1.00  0.00     0.171 HD
HETATM    6  H   UNL     1      43.453 -18.529   2.419  1.00  0.00     0.164 HD
ENDROOT
BRANCH   3   7
HETATM    7  C   UNL     1      42.259 -16.796   2.378  1.00  0.00     0.092 C 
HETATM    8  C   UNL     1      42.557 -16.711   0.853  1.00  0.00     0.084 C 
HETATM    9  C   UNL     1      41.558 -15.842   0.208  1.00  0.00     0.034 A 
HETATM   10  C   UNL     1      40.373 -15.426   0.771  1.00  0.00     0.033 A 
HETATM   11  N   UNL     1      41.590 -15.308  -1.063  1.00  0.00    -0.354 N 
HETATM   12  N   UNL     1      39.746 -14.651  -0.182  1.00  0.00    -0.354 N 
HETATM   13  C   UNL     1      39.914 -15.741   2.137  1.00  0.00     0.061 C 
HETATM   14  H   UNL     1      38.843 -14.195  -0.069  1.00  0.00     0.166 HD
HETATM   15  C   UNL     1      40.485 -14.592  -1.296  1.00  0.00     0.180 A 
HETATM   16  C   UNL     1      40.740 -16.919   2.697  1.00  0.00     0.031 C 
HETATM   17  H   UNL     1      42.336 -15.452  -1.741  1.00  0.00     0.166 HD
ENDBRANCH   3   7
BRANCH   1  18
HETATM   18  C   UNL     1      44.402 -20.063   4.432  1.00  0.00     0.077 A 
HETATM   19  C   UNL     1      44.345 -21.187   5.260  1.00  0.00     0.152 A 
HETATM   20  N   UNL     1      44.506 -22.463   4.838  1.00  0.00    -0.247 NA
HETATM   21 CL   UNL     1      43.884 -21.134   6.921  1.00  0.00    -0.060 Cl
HETATM   22  C   UNL     1      44.688 -22.651   3.516  1.00  0.00     0.118 A 
HETATM   23  C   UNL     1      44.697 -21.620   2.595  1.00  0.00     0.022 A 
HETATM   24  C   UNL     1      44.539 -20.316   3.060  1.00  0.00     0.034 A 
ENDBRANCH   1  18
TORSDOF 2
ENDMDL
MODEL 5
REMARK VINA RESULT:      -7.6      2.444      2.924
REMARK  2 active torsions:
REMARK  status: ('A' for Active; 'I' for Inactive)
REMARK    1  A    between atoms: C_6  and  N_7 
REMARK       I    between atoms: N_7  and  C_8 
REMARK       I    between atoms: C_8  and  N_9 
REMARK    2  A    between atoms: N_9  and  C_10 
ROOT
HETATM    1  N   UNL     1      44.777 -19.195   2.245  1.00  0.00    -0.306 N 
HETATM    2  C   UNL     1      43.990 -18.107   2.033  1.00  0.00     0.321 C 
HETATM    3  N   UNL     1      42.901 -17.926   2.825  1.00  0.00    -0.338 N 
HETATM    4  O   UNL     1      44.363 -17.251   1.232  1.00  0.00    -0.247 OA
HETATM    5  H   UNL     1      45.677 -19.057   1.798  1.00  0.00     0.171 HD
HETATM    6  H   UNL     1      42.442 -18.770   3.136  1.00  0.00     0.164 HD
ENDROOT
BRANCH   3   7
HETATM    7  C   UNL     1      42.073 -16.728   2.788  1.00  0.00     0.092 C 
HETATM    8  C   UNL     1      41.081 -16.748   1.589  1.00  0.00     0.084 C 
HETATM    9  C   UNL     1      40.111 -15.650   1.739  1.00  0.00     0.034 A 
HETATM   10  C   UNL     1      39.893 -14.922   2.887  1.00  0.00     0.033 A 
HETATM   11  N   UNL     1      39.226 -15.163   0.799  1.00  0.00    -0.354 N 
HETATM   12  N   UNL     1      38.894 -14.021   2.586  1.00  0.00    -0.354 N 
HETATM   13  C   UNL     1      40.627 -15.083   4.157  1.00  0.00     0.061 C 
HETATM   14  H   UNL     1      38.505 -13.337   3.232  1.00  0.00     0.166 HD
HETATM   15  C   UNL     1      38.487 -14.179   1.322  1.00  0.00     0.180 A 
HETATM   16  C   UNL     1      41.377 -16.432   4.149  1.00  0.00     0.031 C 
HETATM   17  H   UNL     1      39.130 -15.512  -0.152  1.00  0.00     0.166 HD
ENDBRANCH   3   7
BRANCH   1  18
HETATM   18  C   UNL     1      44.702 -20.251   3.183  1.00  0.00     0.077 A 
HETATM   19  C   UNL     1      44.818 -20.181   4.573  1.00  0.00     0.152 A 
HETATM   20  N   UNL     1      44.800 -21.251   5.402  1.00  0.00    -0.247 NA
HETATM   21 CL   UNL     1      44.824 -18.704   5.464  1.00  0.00    -0.060 Cl
HETATM   22  C   UNL     1      44.611 -22.459   4.836  1.00  0.00     0.118 A 
HETATM   23  C   UNL     1      44.419 -22.641   3.479  1.00  0.00     0.022 A 
HETATM   24  C   UNL     1      44.453 -21.522   2.649  1.00  0.00     0.034 A 
ENDBRANCH   1  18
TORSDOF 2
ENDMDL
MODEL 6
REMARK VINA RESULT:      -7.5      2.215      7.082
REMARK  2 active torsions:
REMARK  status: ('A' for Active; 'I' for Inactive)
REMARK    1  A    between atoms: C_6  and  N_7 
REMARK       I    between atoms: N_7  and  C_8 
REMARK       I    between atoms: C_8  and  N_9 
REMARK    2  A    between atoms: N_9  and  C_10 
ROOT
HETATM    1  N   UNL     1      43.042 -15.318   2.433  1.00  0.00    -0.306 N 
HETATM    2  C   UNL     1      43.719 -16.494   2.337  1.00  0.00     0.321 C 
HETATM    3  N   UNL     1      43.461 -17.470   3.247  1.00  0.00    -0.338 N 
HETATM    4  O   UNL     1      44.434 -16.689   1.355  1.00  0.00    -0.247 OA
HETATM    5  H   UNL     1      43.113 -14.812   1.556  1.00  0.00     0.171 HD
HETATM    6  H   UNL     1      43.225 -17.150   4.175  1.00  0.00     0.164 HD
ENDROOT
BRANCH   3   7
HETATM    7  C   UNL     1      44.014 -18.815   3.157  1.00  0.00     0.092 C 
HETATM    8  C   UNL     1      44.227 -19.446   4.563  1.00  0.00     0.084 C 
HETATM    9  C   UNL     1      44.546 -20.877   4.414  1.00  0.00     0.034 A 
HETATM   10  C   UNL     1      44.373 -21.622   3.269  1.00  0.00     0.033 A 
HETATM   11  N   UNL     1      45.037 -21.743   5.368  1.00  0.00    -0.354 N 
HETATM   12  N   UNL     1      44.778 -22.903   3.580  1.00  0.00    -0.354 N 
HETATM   13  C   UNL     1      43.882 -21.108   1.976  1.00  0.00     0.061 C 
HETATM   14  H   UNL     1      44.771 -23.694   2.940  1.00  0.00     0.166 HD
HETATM   15  C   UNL     1      45.169 -22.971   4.858  1.00  0.00     0.180 A 
HETATM   16  C   UNL     1      43.210 -19.735   2.191  1.00  0.00     0.031 C 
HETATM   17  H   UNL     1      45.250 -21.493   6.332  1.00  0.00     0.166 HD
ENDBRANCH   3   7
BRANCH   1  18
HETATM   18  C   UNL     1      42.054 -14.864   3.336  1.00  0.00     0.077 A 
HETATM   19  C   UNL     1      40.665 -14.972   3.224  1.00  0.00     0.152 A 
HETATM   20  N   UNL     1      39.779 -14.452   4.105  1.00  0.00    -0.247 NA
HETATM   21 CL   UNL     1      39.869 -15.939   2.038  1.00  0.00    -0.060 Cl
HETATM   22  C   UNL     1      40.287 -13.827   5.185  1.00  0.00     0.118 A 
HETATM   23  C   UNL     1      41.642 -13.718   5.433  1.00  0.00     0.022 A 
HETATM   24  C   UNL     1      42.531 -14.254   4.503  1.00  0.00     0.034 A 
ENDBRANCH   1  18
TORSDOF 2
ENDMDL
MODEL 7
REMARK VINA RESULT:      -7.5      4.690      7.420
REMARK  2 active torsions:
REMARK  status: ('A' for Active; 'I' for Inactive)
REMARK    1  A    between atoms: C_6  and  N_7 
REMARK       I    between atoms: N_7  and  C_8 
REMARK       I    between atoms: C_8  and  N_9 
REMARK    2  A    between atoms: N_9  and  C_10 
ROOT
HETATM    1  N   UNL     1      40.152 -15.236   0.287  1.00  0.00    -0.306 N 
HETATM    2  C   UNL     1      40.518 -16.124   1.250  1.00  0.00     0.321 C 
HETATM    3  N   UNL     1      41.817 -16.518   1.312  1.00  0.00    -0.338 N 
HETATM    4  O   UNL     1      39.701 -16.432   2.116  1.00  0.00    -0.247 OA
HETATM    5  H   UNL     1      39.258 -14.822   0.528  1.00  0.00     0.171 HD
HETATM    6  H   UNL     1      42.300 -16.576   0.427  1.00  0.00     0.164 HD
ENDROOT
BRANCH   3   7
HETATM    7  C   UNL     1      42.353 -17.346   2.385  1.00  0.00     0.092 C 
HETATM    8  C   UNL     1      43.169 -18.550   1.832  1.00  0.00     0.084 C 
HETATM    9  C   UNL     1      43.888 -19.203   2.939  1.00  0.00     0.034 A 
HETATM   10  C   UNL     1      44.081 -18.672   4.195  1.00  0.00     0.033 A 
HETATM   11  N   UNL     1      44.522 -20.428   2.936  1.00  0.00    -0.354 N 
HETATM   12  N   UNL     1      44.814 -19.605   4.897  1.00  0.00    -0.354 N 
HETATM   13  C   UNL     1      43.563 -17.374   4.667  1.00  0.00     0.061 C 
HETATM   14  H   UNL     1      45.122 -19.506   5.863  1.00  0.00     0.166 HD
HETATM   15  C   UNL     1      45.087 -20.663   4.125  1.00  0.00     0.180 A 
HETATM   16  C   UNL     1      43.130 -16.523   3.454  1.00  0.00     0.031 C 
HETATM   17  H   UNL     1      44.574 -21.060   2.140  1.00  0.00     0.166 HD
ENDBRANCH   3   7
BRANCH   1  18
HETATM   18  C   UNL     1      40.886 -14.585  -0.730  1.00  0.00     0.077 A 
HETATM   19  C   UNL     1      41.676 -13.436  -0.626  1.00  0.00     0.152 A 
HETATM   20  N   UNL     1      42.299 -12.833  -1.666  1.00  0.00    -0.247 NA
HETATM   21 CL   UNL     1      42.124 -12.710   0.873  1.00  0.00    -0.060 Cl
HETATM   22  C   UNL     1      42.177 -13.419  -2.873  1.00  0.00     0.118 A 
HETATM   23  C   UNL     1      41.476 -14.592  -3.083  1.00  0.00     0.022 A 
HETATM   24  C   UNL     1      40.836 -15.184  -1.995  1.00  0.00     0.034 A 
ENDBRANCH   1  18
TORSDOF 2
ENDMDL
MODEL 8
REMARK VINA RESULT:      -7.4      1.743      2.439
REMARK  2 active torsions:
REMARK  status: ('A' for Active; 'I' for Inactive)
REMARK    1  A    between atoms: C_6  and  N_7 
REMARK       I    between atoms: N_7  and  C_8 
REMARK       I    between atoms: C_8  and  N_9 
REMARK    2  A    between atoms: N_9  and  C_10 
ROOT
HETATM    1  N   UNL     1      44.241 -18.290   2.441  1.00  0.00    -0.306 N 
HETATM    2  C   UNL     1      43.307 -17.323   2.645  1.00  0.00     0.321 C 
HETATM    3  N   UNL     1      42.194 -17.633   3.361  1.00  0.00    -0.338 N 
HETATM    4  O   UNL     1      43.561 -16.170   2.301  1.00  0.00    -0.247 OA
HETATM    5  H   UNL     1      45.116 -17.863   2.157  1.00  0.00     0.171 HD
HETATM    6  H   UNL     1      41.859 -18.580   3.260  1.00  0.00     0.164 HD
ENDROOT
BRANCH   3   7
HETATM    7  C   UNL     1      41.202 -16.646   3.767  1.00  0.00     0.092 C 
HETATM    8  C   UNL     1      41.639 -15.882   5.050  1.00  0.00     0.084 C 
HETATM    9  C   UNL     1      40.733 -14.741   5.271  1.00  0.00     0.034 A 
HETATM   10  C   UNL     1      39.850 -14.227   4.349  1.00  0.00     0.033 A 
HETATM   11  N   UNL     1      40.611 -13.960   6.401  1.00  0.00    -0.354 N 
HETATM   12  N   UNL     1      39.226 -13.163   4.966  1.00  0.00    -0.354 N 
HETATM   13  C   UNL     1      39.622 -14.757   2.991  1.00  0.00     0.061 C 
HETATM   14  H   UNL     1      38.515 -12.572   4.542  1.00  0.00     0.166 HD
HETATM   15  C   UNL     1      39.700 -13.000   6.207  1.00  0.00     0.180 A 
HETATM   16  C   UNL     1      40.783 -15.698   2.605  1.00  0.00     0.031 C 
HETATM   17  H   UNL     1      41.150 -14.077   7.257  1.00  0.00     0.166 HD
ENDBRANCH   3   7
BRANCH   1  18
HETATM   18  C   UNL     1      44.310 -19.642   2.848  1.00  0.00     0.077 A 
HETATM   19  C   UNL     1      44.647 -20.151   4.105  1.00  0.00     0.152 A 
HETATM   20  N   UNL     1      44.753 -21.468   4.400  1.00  0.00    -0.247 NA
HETATM   21 CL   UNL     1      44.804 -19.181   5.523  1.00  0.00    -0.060 Cl
HETATM   22  C   UNL     1      44.469 -22.339   3.412  1.00  0.00     0.118 A 
HETATM   23  C   UNL     1      44.062 -21.952   2.149  1.00  0.00     0.022 A 
HETATM   24  C   UNL     1      43.971 -20.589   1.872  1.00  0.00     0.034 A 
ENDBRANCH   1  18
TORSDOF 2
ENDMDL
MODEL 9
REMARK VINA RESULT:      -7.2      3.324      7.459
REMARK  2 active torsions:
REMARK  status: ('A' for Active; 'I' for Inactive)
REMARK    1  A    between atoms: C_6  and  N_7 
REMARK       I    between atoms: N_7  and  C_8 
REMARK       I    between atoms: C_8  and  N_9 
REMARK    2  A    between atoms: N_9  and  C_10 
ROOT
HETATM    1  N   UNL     1      40.824 -14.968   4.132  1.00  0.00    -0.306 N 
HETATM    2  C   UNL     1      41.212 -16.255   4.338  1.00  0.00     0.321 C 
HETATM    3  N   UNL     1      41.992 -16.858   3.403  1.00  0.00    -0.338 N 
HETATM    4  O   UNL     1      40.966 -16.784   5.421  1.00  0.00    -0.247 OA
HETATM    5  H   UNL     1      40.505 -14.565   5.006  1.00  0.00     0.171 HD
HETATM    6  H   UNL     1      41.826 -16.576   2.447  1.00  0.00     0.164 HD
ENDROOT
BRANCH   3   7
HETATM    7  C   UNL     1      42.588 -18.175   3.584  1.00  0.00     0.092 C 
HETATM    8  C   UNL     1      42.694 -18.950   2.238  1.00  0.00     0.084 C 
HETATM    9  C   UNL     1      43.519 -20.155   2.432  1.00  0.00     0.034 A 
HETATM   10  C   UNL     1      44.331 -20.406   3.516  1.00  0.00     0.033 A 
HETATM   11  N   UNL     1      43.667 -21.230   1.581  1.00  0.00    -0.354 N 
HETATM   12  N   UNL     1      44.925 -21.627   3.275  1.00  0.00    -0.354 N 
HETATM   13  C   UNL     1      44.483 -19.533   4.695  1.00  0.00     0.061 C 
HETATM   14  H   UNL     1      45.585 -22.092   3.895  1.00  0.00     0.166 HD
HETATM   15  C   UNL     1      44.526 -22.116   2.096  1.00  0.00     0.180 A 
HETATM   16  C   UNL     1      43.931 -18.128   4.368  1.00  0.00     0.031 C 
HETATM   17  H   UNL     1      43.207 -21.332   0.679  1.00  0.00     0.166 HD
ENDBRANCH   3   7
BRANCH   1  18
HETATM   18  C   UNL     1      41.081 -14.057   3.082  1.00  0.00     0.077 A 
HETATM   19  C   UNL     1      42.289 -13.437   2.752  1.00  0.00     0.152 A 
HETATM   20  N   UNL     1      42.440 -12.522   1.766  1.00  0.00    -0.247 NA
HETATM   21 CL   UNL     1      43.811 -13.875   3.434  1.00  0.00    -0.060 Cl
HETATM   22  C   UNL     1      41.349 -12.231   1.030  1.00  0.00     0.118 A 
HETATM   23  C   UNL     1      40.119 -12.830   1.224  1.00  0.00     0.022 A 
HETATM   24  C   UNL     1      39.991 -13.761   2.253  1.00  0.00     0.034 A 
ENDBRANCH   1  18
TORSDOF 2
ENDMDL
MODEL 10
REMARK VINA RESULT:      -7.1      3.040      7.503
REMARK  2 active torsions:
REMARK  status: ('A' for Active; 'I' for Inactive)
REMARK    1  A    between atoms: C_6  and  N_7 
REMARK       I    between atoms: N_7  and  C_8 
REMARK       I    between atoms: C_8  and  N_9 
REMARK    2  A    between atoms: N_9  and  C_10 
ROOT
HETATM    1  N   UNL     1      39.954 -14.990   5.840  1.00  0.00    -0.306 N 
HETATM    2  C   UNL     1      40.547 -16.212   5.776  1.00  0.00     0.321 C 
HETATM    3  N   UNL     1      41.573 -16.393   4.903  1.00  0.00    -0.338 N 
HETATM    4  O   UNL     1      40.235 -17.068   6.603  1.00  0.00    -0.247 OA
HETATM    5  H   UNL     1      39.424 -14.913   6.701  1.00  0.00     0.171 HD
HETATM    6  H   UNL     1      41.514 -15.867   4.044  1.00  0.00     0.164 HD
ENDROOT
BRANCH   3   7
HETATM    7  C   UNL     1      42.377 -17.608   4.852  1.00  0.00     0.092 C 
HETATM    8  C   UNL     1      42.473 -18.176   3.407  1.00  0.00     0.084 C 
HETATM    9  C   UNL     1      43.486 -19.244   3.368  1.00  0.00     0.034 A 
HETATM   10  C   UNL     1      44.425 -19.496   4.343  1.00  0.00     0.033 A 
HETATM   11  N   UNL     1      43.715 -20.163   2.365  1.00  0.00    -0.354 N 
HETATM   12  N   UNL     1      45.173 -20.562   3.890  1.00  0.00    -0.354 N 
HETATM   13  C   UNL     1      44.552 -18.768   5.620  1.00  0.00     0.061 C 
HETATM   14  H   UNL     1      45.951 -20.989   4.387  1.00  0.00     0.166 HD
HETATM   15  C   UNL     1      44.743 -20.955   2.685  1.00  0.00     0.180 A 
HETATM   16  C   UNL     1      43.766 -17.443   5.536  1.00  0.00     0.031 C 
HETATM   17  H   UNL     1      43.193 -20.222   1.493  1.00  0.00     0.166 HD
ENDBRANCH   3   7
BRANCH   1  18
HETATM   18  C   UNL     1      40.197 -13.781   5.148  1.00  0.00     0.077 A 
HETATM   19  C   UNL     1      40.094 -13.534   3.777  1.00  0.00     0.152 A 
HETATM   20  N   UNL     1      40.408 -12.360   3.180  1.00  0.00    -0.247 NA
HETATM   21 CL   UNL     1      39.382 -14.632   2.653  1.00  0.00    -0.060 Cl
HETATM   22  C   UNL     1      40.804 -11.353   3.983  1.00  0.00     0.118 A 
HETATM   23  C   UNL     1      40.879 -11.463   5.359  1.00  0.00     0.022 A 
HETATM   24  C   UNL     1      40.560 -12.687   5.945  1.00  0.00     0.034 A 
ENDBRANCH   1  18
TORSDOF 2
ENDMDL
