MODEL 1
REMARK VINA RESULT:      -7.2      0.000      0.000
REMARK  8 active torsions:
REMARK  status: ('A' for Active; 'I' for Inactive)
REMARK    1  A    between atoms: C_2  and  N_3 
REMARK    2  A    between atoms: C_2  and  C_17 
REMARK    3  A    between atoms: N_3  and  C_6 
REMARK    4  A    between atoms: C_6  and  C_7 
REMARK    5  A    between atoms: C_7  and  O_8 
REMARK    6  A    between atoms: C_7  and  C_9 
REMARK    7  A    between atoms: C_11  and  O_12 
REMARK    8  A    between atoms: C_17  and  C_18 
ROOT
HETATM    1  N   UNL     1      40.706 -15.688   1.701  1.00  0.00    -0.068 N 
HETATM    2  H   UNL     1      40.825 -15.369   0.730  1.00  0.00     0.277 HD
HETATM    3  H   UNL     1      41.572 -15.367   2.173  1.00  0.00     0.277 HD
ENDROOT
BRANCH   1   4
HETATM    4  C   UNL     1      39.466 -15.053   2.283  1.00  0.00     0.188 C 
HETATM    5  C   UNL     1      38.720 -14.406   1.113  1.00  0.00     0.040 C 
BRANCH   4   6
HETATM    6  C   UNL     1      39.834 -14.027   3.372  1.00  0.00     0.099 C 
BRANCH   6   7
HETATM    7  C   UNL     1      40.808 -14.601   4.353  1.00  0.00     0.078 A 
HETATM    8  S   UNL     1      42.317 -13.838   4.627  1.00  0.00    -0.073 SA
HETATM    9  C   UNL     1      42.717 -15.046   5.788  1.00  0.00     0.035 A 
HETATM   10  C   UNL     1      41.663 -15.960   5.874  1.00  0.00     0.074 A 
HETATM   11  C   UNL     1      43.878 -15.178   6.567  1.00  0.00     0.021 A 
HETATM   12  N   UNL     1      40.583 -15.696   5.043  1.00  0.00    -0.245 NA
HETATM   13  C   UNL     1      41.773 -17.040   6.772  1.00  0.00     0.033 A 
HETATM   14  C   UNL     1      42.924 -17.178   7.556  1.00  0.00     0.002 A 
HETATM   15  C   UNL     1      43.962 -16.257   7.452  1.00  0.00     0.002 A 
ENDBRANCH   6   7
ENDBRANCH   4   6
ENDBRANCH   1   4
BRANCH   1  16
HETATM   16  C   UNL     1      40.774 -17.197   1.694  1.00  0.00     0.269 C 
BRANCH  16  17
HETATM   17  C   UNL     1      42.161 -17.601   1.147  1.00  0.00     0.177 C 
BRANCH  17  18
HETATM   18  O   UNL     1      42.845 -16.390   0.780  1.00  0.00    -0.389 OA
HETATM   19  H   UNL     1      42.262 -15.923   0.146  1.00  0.00     0.210 HD
ENDBRANCH  17  18
BRANCH  17  20
HETATM   20  C   UNL     1      42.956 -18.412   2.137  1.00  0.00    -0.025 A 
HETATM   21  C   UNL     1      43.321 -19.746   1.868  1.00  0.00     0.046 A 
HETATM   22  C   UNL     1      44.075 -20.477   2.790  1.00  0.00     0.068 A 
HETATM   23  C   UNL     1      44.486 -19.867   3.975  1.00  0.00     0.037 A 
HETATM   24  C   UNL     1      44.137 -18.547   4.252  1.00  0.00     0.003 A 
HETATM   25  C   UNL     1      43.375 -17.822   3.339  1.00  0.00     0.010 A 
BRANCH  22  26
HETATM   26  O   UNL     1      44.483 -21.773   2.645  1.00  0.00    -0.356 OA
HETATM   27  C   UNL     1      44.645 -22.545   3.826  1.00  0.00     0.210 C 
ENDBRANCH  22  26
ENDBRANCH  17  20
ENDBRANCH  16  17
ENDBRANCH   1  16
TORSDOF 8
ENDMDL
MODEL 2
REMARK VINA RESULT:      -7.0      2.628      5.383
REMARK  8 active torsions:
REMARK  status: ('A' for Active; 'I' for Inactive)
REMARK    1  A    between atoms: C_2  and  N_3 
REMARK    2  A    between atoms: C_2  and  C_17 
REMARK    3  A    between atoms: N_3  and  C_6 
REMARK    4  A    between atoms: C_6  and  C_7 
REMARK    5  A    between atoms: C_7  and  O_8 
REMARK    6  A    between atoms: C_7  and  C_9 
REMARK    7  A    between atoms: C_11  and  O_12 
REMARK    8  A    between atoms: C_17  and  C_18 
ROOT
HETATM    1  N   UNL     1      41.668 -14.932   2.818  1.00  0.00    -0.068 N 
HETATM    2  H   UNL     1      42.391 -14.441   3.362  1.00  0.00     0.277 HD
HETATM    3  H   UNL     1      41.516 -14.314   1.999  1.00  0.00     0.277 HD
ENDROOT
BRANCH   1   4
HETATM    4  C   UNL     1      42.186 -16.293   2.421  1.00  0.00     0.188 C 
HETATM    5  C   UNL     1      41.158 -17.312   2.921  1.00  0.00     0.040 C 
BRANCH   4   6
HETATM    6  C   UNL     1      43.585 -16.544   3.015  1.00  0.00     0.099 C 
BRANCH   6   7
HETATM    7  C   UNL     1      43.847 -18.008   3.189  1.00  0.00     0.078 A 
HETATM    8  S   UNL     1      43.753 -19.073   1.851  1.00  0.00    -0.073 SA
HETATM    9  C   UNL     1      44.176 -20.394   2.872  1.00  0.00     0.035 A 
HETATM   10  C   UNL     1      44.348 -19.922   4.176  1.00  0.00     0.074 A 
HETATM   11  C   UNL     1      44.344 -21.749   2.545  1.00  0.00     0.021 A 
HETATM   12  N   UNL     1      44.149 -18.558   4.342  1.00  0.00    -0.245 NA
HETATM   13  C   UNL     1      44.703 -20.837   5.187  1.00  0.00     0.033 A 
HETATM   14  C   UNL     1      44.877 -22.189   4.871  1.00  0.00     0.002 A 
HETATM   15  C   UNL     1      44.698 -22.636   3.565  1.00  0.00     0.002 A 
ENDBRANCH   6   7
ENDBRANCH   4   6
ENDBRANCH   1   4
BRANCH   1  16
HETATM   16  C   UNL     1      40.386 -14.883   3.617  1.00  0.00     0.269 C 
BRANCH  16  17
HETATM   17  C   UNL     1      40.683 -14.128   4.931  1.00  0.00     0.177 C 
BRANCH  17  18
HETATM   18  O   UNL     1      39.463 -14.104   5.694  1.00  0.00    -0.389 OA
HETATM   19  H   UNL     1      38.858 -14.749   5.272  1.00  0.00     0.210 HD
ENDBRANCH  17  18
BRANCH  17  20
HETATM   20  C   UNL     1      41.815 -14.749   5.709  1.00  0.00    -0.025 A 
HETATM   21  C   UNL     1      41.690 -16.023   6.296  1.00  0.00     0.046 A 
HETATM   22  C   UNL     1      42.756 -16.591   6.997  1.00  0.00     0.068 A 
HETATM   23  C   UNL     1      43.961 -15.895   7.093  1.00  0.00     0.037 A 
HETATM   24  C   UNL     1      44.101 -14.636   6.513  1.00  0.00     0.003 A 
HETATM   25  C   UNL     1      43.034 -14.064   5.824  1.00  0.00     0.010 A 
BRANCH  22  26
HETATM   26  O   UNL     1      42.753 -17.811   7.611  1.00  0.00    -0.356 OA
HETATM   27  C   UNL     1      44.008 -18.353   7.999  1.00  0.00     0.210 C 
ENDBRANCH  22  26
ENDBRANCH  17  20
ENDBRANCH  16  17
ENDBRANCH   1  16
TORSDOF 8
ENDMDL
MODEL 3
REMARK VINA RESULT:      -7.0      2.084      4.738
REMARK  8 active torsions:
REMARK  status: ('A' for Active; 'I' for Inactive)
REMARK    1  A    between atoms: C_2  and  N_3 
REMARK    2  A    between atoms: C_2  and  C_17 
REMARK    3  A    between atoms: N_3  and  C_6 
REMARK    4  A    between atoms: C_6  and  C_7 
REMARK    5  A    between atoms: C_7  and  O_8 
REMARK    6  A    between atoms: C_7  and  C_9 
REMARK    7  A    between atoms: C_11  and  O_12 
REMARK    8  A    between atoms: C_17  and  C_18 
ROOT
HETATM    1  N   UNL     1      43.498 -15.597   7.110  1.00  0.00    -0.068 N 
HETATM    2  H   UNL     1      43.310 -15.441   8.109  1.00  0.00     0.277 HD
HETATM    3  H   UNL     1      42.567 -15.828   6.718  1.00  0.00     0.277 HD
ENDROOT
BRANCH   1   4
HETATM    4  C   UNL     1      44.074 -14.335   6.513  1.00  0.00     0.188 C 
HETATM    5  C   UNL     1      44.725 -13.567   7.666  1.00  0.00     0.040 C 
BRANCH   4   6
HETATM    6  C   UNL     1      42.978 -13.508   5.813  1.00  0.00     0.099 C 
BRANCH   6   7
HETATM    7  C   UNL     1      42.492 -14.191   4.572  1.00  0.00     0.078 A 
HETATM    8  S   UNL     1      42.770 -13.495   3.032  1.00  0.00    -0.073 SA
HETATM    9  C   UNL     1      41.973 -14.828   2.285  1.00  0.00     0.035 A 
HETATM   10  C   UNL     1      41.538 -15.710   3.279  1.00  0.00     0.074 A 
HETATM   11  C   UNL     1      41.748 -15.076   0.922  1.00  0.00     0.021 A 
HETATM   12  N   UNL     1      41.836 -15.328   4.580  1.00  0.00    -0.245 NA
HETATM   13  C   UNL     1      40.857 -16.882   2.894  1.00  0.00     0.033 A 
HETATM   14  C   UNL     1      40.632 -17.141   1.537  1.00  0.00     0.002 A 
HETATM   15  C   UNL     1      41.073 -16.247   0.567  1.00  0.00     0.002 A 
ENDBRANCH   6   7
ENDBRANCH   4   6
ENDBRANCH   1   4
BRANCH   1  16
HETATM   16  C   UNL     1      44.322 -16.858   6.993  1.00  0.00     0.269 C 
BRANCH  16  17
HETATM   17  C   UNL     1      43.346 -18.036   6.778  1.00  0.00     0.177 C 
BRANCH  17  18
HETATM   18  O   UNL     1      42.042 -17.474   6.545  1.00  0.00    -0.389 OA
HETATM   19  H   UNL     1      41.993 -16.655   7.080  1.00  0.00     0.210 HD
ENDBRANCH  17  18
BRANCH  17  20
HETATM   20  C   UNL     1      43.774 -18.938   5.650  1.00  0.00    -0.025 A 
HETATM   21  C   UNL     1      43.703 -18.519   4.307  1.00  0.00     0.046 A 
HETATM   22  C   UNL     1      44.121 -19.361   3.275  1.00  0.00     0.068 A 
HETATM   23  C   UNL     1      44.635 -20.621   3.585  1.00  0.00     0.037 A 
HETATM   24  C   UNL     1      44.716 -21.048   4.909  1.00  0.00     0.003 A 
HETATM   25  C   UNL     1      44.287 -20.212   5.938  1.00  0.00     0.010 A 
BRANCH  22  26
HETATM   26  O   UNL     1      44.095 -19.070   1.940  1.00  0.00    -0.356 OA
HETATM   27  C   UNL     1      44.269 -17.711   1.563  1.00  0.00     0.210 C 
ENDBRANCH  22  26
ENDBRANCH  17  20
ENDBRANCH  16  17
ENDBRANCH   1  16
TORSDOF 8
ENDMDL
MODEL 4
REMARK VINA RESULT:      -6.9      2.954      6.240
REMARK  8 active torsions:
REMARK  status: ('A' for Active; 'I' for Inactive)
REMARK    1  A    between atoms: C_2  and  N_3 
REMARK    2  A    between atoms: C_2  and  C_17 
REMARK    3  A    between atoms: N_3  and  C_6 
REMARK    4  A    between atoms: C_6  and  C_7 
REMARK    5  A    between atoms: C_7  and  O_8 
REMARK    6  A    between atoms: C_7  and  C_9 
REMARK    7  A    between atoms: C_11  and  O_12 
REMARK    8  A    between atoms: C_17  and  C_18 
ROOT
HETATM    1  N   UNL     1      40.587 -16.289   3.208  1.00  0.00    -0.068 N 
HETATM    2  H   UNL     1      40.652 -17.213   2.759  1.00  0.00     0.277 HD
HETATM    3  H   UNL     1      39.569 -16.160   3.358  1.00  0.00     0.277 HD
ENDROOT
BRANCH   1   4
HETATM    4  C   UNL     1      41.359 -16.315   4.506  1.00  0.00     0.188 C 
HETATM    5  C   UNL     1      40.955 -15.054   5.276  1.00  0.00     0.040 C 
BRANCH   4   6
HETATM    6  C   UNL     1      42.875 -16.372   4.243  1.00  0.00     0.099 C 
BRANCH   6   7
HETATM    7  C   UNL     1      43.323 -17.770   3.945  1.00  0.00     0.078 A 
HETATM    8  S   UNL     1      44.223 -18.659   5.099  1.00  0.00    -0.073 SA
HETATM    9  C   UNL     1      44.271 -20.005   4.025  1.00  0.00     0.035 A 
HETATM   10  C   UNL     1      43.599 -19.669   2.846  1.00  0.00     0.074 A 
HETATM   11  C   UNL     1      44.860 -21.266   4.210  1.00  0.00     0.021 A 
HETATM   12  N   UNL     1      43.069 -18.386   2.813  1.00  0.00    -0.245 NA
HETATM   13  C   UNL     1      43.511 -20.629   1.819  1.00  0.00     0.033 A 
HETATM   14  C   UNL     1      44.090 -21.890   1.994  1.00  0.00     0.002 A 
HETATM   15  C   UNL     1      44.756 -22.201   3.176  1.00  0.00     0.002 A 
ENDBRANCH   6   7
ENDBRANCH   4   6
ENDBRANCH   1   4
BRANCH   1  16
HETATM   16  C   UNL     1      40.989 -15.255   2.183  1.00  0.00     0.269 C 
BRANCH  16  17
HETATM   17  C   UNL     1      41.477 -16.008   0.925  1.00  0.00     0.177 C 
BRANCH  17  18
HETATM   18  O   UNL     1      40.765 -17.258   0.872  1.00  0.00    -0.389 OA
HETATM   19  H   UNL     1      41.065 -17.714   0.059  1.00  0.00     0.210 HD
ENDBRANCH  17  18
BRANCH  17  20
HETATM   20  C   UNL     1      41.288 -15.205  -0.336  1.00  0.00    -0.025 A 
HETATM   21  C   UNL     1      40.918 -15.819  -1.548  1.00  0.00     0.046 A 
HETATM   22  C   UNL     1      40.728 -15.056  -2.703  1.00  0.00     0.068 A 
HETATM   23  C   UNL     1      40.885 -13.671  -2.642  1.00  0.00     0.037 A 
HETATM   24  C   UNL     1      41.247 -13.050  -1.449  1.00  0.00     0.003 A 
HETATM   25  C   UNL     1      41.447 -13.812  -0.300  1.00  0.00     0.010 A 
BRANCH  22  26
HETATM   26  O   UNL     1      40.376 -15.536  -3.933  1.00  0.00    -0.356 OA
HETATM   27  C   UNL     1      39.022 -15.925  -4.121  1.00  0.00     0.210 C 
ENDBRANCH  22  26
ENDBRANCH  17  20
ENDBRANCH  16  17
ENDBRANCH   1  16
TORSDOF 8
ENDMDL
MODEL 5
REMARK VINA RESULT:      -6.8      2.455      4.543
REMARK  8 active torsions:
REMARK  status: ('A' for Active; 'I' for Inactive)
REMARK    1  A    between atoms: C_2  and  N_3 
REMARK    2  A    between atoms: C_2  and  C_17 
REMARK    3  A    between atoms: N_3  and  C_6 
REMARK    4  A    between atoms: C_6  and  C_7 
REMARK    5  A    between atoms: C_7  and  O_8 
REMARK    6  A    between atoms: C_7  and  C_9 
REMARK    7  A    between atoms: C_11  and  O_12 
REMARK    8  A    between atoms: C_17  and  C_18 
ROOT
HETATM    1  N   UNL     1      42.133 -12.582   4.426  1.00  0.00    -0.068 N 
HETATM    2  H   UNL     1      42.695 -13.204   3.830  1.00  0.00     0.277 HD
HETATM    3  H   UNL     1      42.745 -11.755   4.562  1.00  0.00     0.277 HD
ENDROOT
BRANCH   1   4
HETATM    4  C   UNL     1      40.851 -12.235   3.710  1.00  0.00     0.188 C 
HETATM    5  C   UNL     1      39.721 -12.915   4.489  1.00  0.00     0.040 C 
BRANCH   4   6
HETATM    6  C   UNL     1      40.899 -12.695   2.241  1.00  0.00     0.099 C 
BRANCH   6   7
HETATM    7  C   UNL     1      41.377 -14.109   2.130  1.00  0.00     0.078 A 
HETATM    8  S   UNL     1      40.271 -15.378   1.813  1.00  0.00    -0.073 SA
HETATM    9  C   UNL     1      41.566 -16.513   1.834  1.00  0.00     0.035 A 
HETATM   10  C   UNL     1      42.760 -15.834   2.095  1.00  0.00     0.074 A 
HETATM   11  C   UNL     1      41.531 -17.903   1.633  1.00  0.00     0.021 A 
HETATM   12  N   UNL     1      42.634 -14.463   2.270  1.00  0.00    -0.245 NA
HETATM   13  C   UNL     1      43.959 -16.571   2.156  1.00  0.00     0.033 A 
HETATM   14  C   UNL     1      43.936 -17.955   1.954  1.00  0.00     0.002 A 
HETATM   15  C   UNL     1      42.735 -18.609   1.696  1.00  0.00     0.002 A 
ENDBRANCH   6   7
ENDBRANCH   4   6
ENDBRANCH   1   4
BRANCH   1  16
HETATM   16  C   UNL     1      42.015 -13.236   5.783  1.00  0.00     0.269 C 
BRANCH  16  17
HETATM   17  C   UNL     1      43.281 -14.094   6.000  1.00  0.00     0.177 C 
BRANCH  17  18
HETATM   18  O   UNL     1      43.760 -13.821   7.329  1.00  0.00    -0.389 OA
HETATM   19  H   UNL     1      42.982 -13.535   7.851  1.00  0.00     0.210 HD
ENDBRANCH  17  18
BRANCH  17  20
HETATM   20  C   UNL     1      43.022 -15.564   5.793  1.00  0.00    -0.025 A 
HETATM   21  C   UNL     1      44.057 -16.514   5.891  1.00  0.00     0.046 A 
HETATM   22  C   UNL     1      43.795 -17.874   5.715  1.00  0.00     0.068 A 
HETATM   23  C   UNL     1      42.488 -18.292   5.462  1.00  0.00     0.037 A 
HETATM   24  C   UNL     1      41.453 -17.365   5.366  1.00  0.00     0.003 A 
HETATM   25  C   UNL     1      41.716 -16.007   5.531  1.00  0.00     0.010 A 
BRANCH  22  26
HETATM   26  O   UNL     1      44.713 -18.884   5.780  1.00  0.00    -0.356 OA
HETATM   27  C   UNL     1      44.464 -20.048   5.005  1.00  0.00     0.210 C 
ENDBRANCH  22  26
ENDBRANCH  17  20
ENDBRANCH  16  17
ENDBRANCH   1  16
TORSDOF 8
ENDMDL
MODEL 6
REMARK VINA RESULT:      -6.7      2.919      6.329
REMARK  8 active torsions:
REMARK  status: ('A' for Active; 'I' for Inactive)
REMARK    1  A    between atoms: C_2  and  N_3 
REMARK    2  A    between atoms: C_2  and  C_17 
REMARK    3  A    between atoms: N_3  and  C_6 
REMARK    4  A    between atoms: C_6  and  C_7 
REMARK    5  A    between atoms: C_7  and  O_8 
REMARK    6  A    between atoms: C_7  and  C_9 
REMARK    7  A    between atoms: C_11  and  O_12 
REMARK    8  A    between atoms: C_17  and  C_18 
ROOT
HETATM    1  N   UNL     1      40.808 -16.742   3.466  1.00  0.00    -0.068 N 
HETATM    2  H   UNL     1      41.265 -17.595   3.119  1.00  0.00     0.277 HD
HETATM    3  H   UNL     1      39.931 -17.091   3.896  1.00  0.00     0.277 HD
ENDROOT
BRANCH   1   4
HETATM    4  C   UNL     1      41.711 -16.070   4.472  1.00  0.00     0.188 C 
HETATM    5  C   UNL     1      41.287 -14.599   4.522  1.00  0.00     0.040 C 
BRANCH   4   6
HETATM    6  C   UNL     1      43.191 -16.231   4.075  1.00  0.00     0.099 C 
BRANCH   6   7
HETATM    7  C   UNL     1      43.539 -17.669   3.847  1.00  0.00     0.078 A 
HETATM    8  S   UNL     1      44.318 -18.580   5.071  1.00  0.00    -0.073 SA
HETATM    9  C   UNL     1      44.303 -19.967   4.049  1.00  0.00     0.035 A 
HETATM   10  C   UNL     1      43.709 -19.626   2.831  1.00  0.00     0.074 A 
HETATM   11  C   UNL     1      44.782 -21.262   4.305  1.00  0.00     0.021 A 
HETATM   12  N   UNL     1      43.284 -18.308   2.728  1.00  0.00    -0.245 NA
HETATM   13  C   UNL     1      43.587 -20.616   1.836  1.00  0.00     0.033 A 
HETATM   14  C   UNL     1      44.057 -21.910   2.082  1.00  0.00     0.002 A 
HETATM   15  C   UNL     1      44.647 -22.225   3.302  1.00  0.00     0.002 A 
ENDBRANCH   6   7
ENDBRANCH   4   6
ENDBRANCH   1   4
BRANCH   1  16
HETATM   16  C   UNL     1      40.384 -15.931   2.263  1.00  0.00     0.269 C 
BRANCH  16  17
HETATM   17  C   UNL     1      41.230 -16.402   1.060  1.00  0.00     0.177 C 
BRANCH  17  18
HETATM   18  O   UNL     1      40.654 -17.633   0.588  1.00  0.00    -0.389 OA
HETATM   19  H   UNL     1      41.309 -18.031  -0.022  1.00  0.00     0.210 HD
ENDBRANCH  17  18
BRANCH  17  20
HETATM   20  C   UNL     1      41.304 -15.366  -0.032  1.00  0.00    -0.025 A 
HETATM   21  C   UNL     1      41.659 -14.032   0.245  1.00  0.00     0.046 A 
HETATM   22  C   UNL     1      41.741 -13.089  -0.782  1.00  0.00     0.068 A 
HETATM   23  C   UNL     1      41.489 -13.484  -2.096  1.00  0.00     0.037 A 
HETATM   24  C   UNL     1      41.141 -14.802  -2.386  1.00  0.00     0.003 A 
HETATM   25  C   UNL     1      41.048 -15.740  -1.360  1.00  0.00     0.010 A 
BRANCH  22  26
HETATM   26  O   UNL     1      42.068 -11.770  -0.637  1.00  0.00    -0.356 OA
HETATM   27  C   UNL     1      42.967 -11.211  -1.584  1.00  0.00     0.210 C 
ENDBRANCH  22  26
ENDBRANCH  17  20
ENDBRANCH  16  17
ENDBRANCH   1  16
TORSDOF 8
ENDMDL
MODEL 7
REMARK VINA RESULT:      -6.7      2.992      5.983
REMARK  8 active torsions:
REMARK  status: ('A' for Active; 'I' for Inactive)
REMARK    1  A    between atoms: C_2  and  N_3 
REMARK    2  A    between atoms: C_2  and  C_17 
REMARK    3  A    between atoms: N_3  and  C_6 
REMARK    4  A    between atoms: C_6  and  C_7 
REMARK    5  A    between atoms: C_7  and  O_8 
REMARK    6  A    between atoms: C_7  and  C_9 
REMARK    7  A    between atoms: C_11  and  O_12 
REMARK    8  A    between atoms: C_17  and  C_18 
ROOT
HETATM    1  N   UNL     1      41.075 -15.321   1.749  1.00  0.00    -0.068 N 
HETATM    2  H   UNL     1      40.049 -15.369   1.823  1.00  0.00     0.277 HD
HETATM    3  H   UNL     1      41.264 -15.594   0.767  1.00  0.00     0.277 HD
ENDROOT
BRANCH   1   4
HETATM    4  C   UNL     1      41.526 -13.911   2.049  1.00  0.00     0.188 C 
HETATM    5  C   UNL     1      40.465 -13.303   2.972  1.00  0.00     0.040 C 
BRANCH   4   6
HETATM    6  C   UNL     1      41.697 -13.100   0.751  1.00  0.00     0.099 C 
BRANCH   6   7
HETATM    7  C   UNL     1      40.874 -13.674  -0.360  1.00  0.00     0.078 A 
HETATM    8  S   UNL     1      39.297 -13.081  -0.670  1.00  0.00    -0.073 SA
HETATM    9  C   UNL     1      39.139 -14.185  -1.983  1.00  0.00     0.035 A 
HETATM   10  C   UNL     1      40.309 -14.943  -2.082  1.00  0.00     0.074 A 
HETATM   11  C   UNL     1      38.059 -14.370  -2.861  1.00  0.00     0.021 A 
HETATM   12  N   UNL     1      41.288 -14.644  -1.143  1.00  0.00    -0.245 NA
HETATM   13  C   UNL     1      40.404 -15.916  -3.096  1.00  0.00     0.033 A 
HETATM   14  C   UNL     1      39.335 -16.105  -3.980  1.00  0.00     0.002 A 
HETATM   15  C   UNL     1      38.179 -15.340  -3.860  1.00  0.00     0.002 A 
ENDBRANCH   6   7
ENDBRANCH   4   6
ENDBRANCH   1   4
BRANCH   1  16
HETATM   16  C   UNL     1      41.645 -16.428   2.604  1.00  0.00     0.269 C 
BRANCH  16  17
HETATM   17  C   UNL     1      42.142 -17.542   1.657  1.00  0.00     0.177 C 
BRANCH  17  18
HETATM   18  O   UNL     1      42.816 -16.900   0.559  1.00  0.00    -0.389 OA
HETATM   19  H   UNL     1      42.900 -17.573  -0.147  1.00  0.00     0.210 HD
ENDBRANCH  17  18
BRANCH  17  20
HETATM   20  C   UNL     1      43.035 -18.535   2.355  1.00  0.00    -0.025 A 
HETATM   21  C   UNL     1      43.560 -18.276   3.636  1.00  0.00     0.046 A 
HETATM   22  C   UNL     1      44.371 -19.216   4.277  1.00  0.00     0.068 A 
HETATM   23  C   UNL     1      44.641 -20.430   3.646  1.00  0.00     0.037 A 
HETATM   24  C   UNL     1      44.124 -20.703   2.381  1.00  0.00     0.003 A 
HETATM   25  C   UNL     1      43.325 -19.761   1.737  1.00  0.00     0.010 A 
BRANCH  22  26
HETATM   26  O   UNL     1      44.940 -19.076   5.510  1.00  0.00    -0.356 OA
HETATM   27  C   UNL     1      44.176 -19.488   6.635  1.00  0.00     0.210 C 
ENDBRANCH  22  26
ENDBRANCH  17  20
ENDBRANCH  16  17
ENDBRANCH   1  16
TORSDOF 8
ENDMDL
MODEL 8
REMARK VINA RESULT:      -6.5      2.863      5.699
REMARK  8 active torsions:
REMARK  status: ('A' for Active; 'I' for Inactive)
REMARK    1  A    between atoms: C_2  and  N_3 
REMARK    2  A    between atoms: C_2  and  C_17 
REMARK    3  A    between atoms: N_3  and  C_6 
REMARK    4  A    between atoms: C_6  and  C_7 
REMARK    5  A    between atoms: C_7  and  O_8 
REMARK    6  A    between atoms: C_7  and  C_9 
REMARK    7  A    between atoms: C_11  and  O_12 
REMARK    8  A    between atoms: C_17  and  C_18 
ROOT
HETATM    1  N   UNL     1      42.131 -15.965  -0.017  1.00  0.00    -0.068 N 
HETATM    2  H   UNL     1      43.008 -15.430  -0.078  1.00  0.00     0.277 HD
HETATM    3  H   UNL     1      41.897 -16.164  -1.008  1.00  0.00     0.277 HD
ENDROOT
BRANCH   1   4
HETATM    4  C   UNL     1      42.375 -17.225   0.778  1.00  0.00     0.188 C 
HETATM    5  C   UNL     1      41.102 -17.478   1.591  1.00  0.00     0.040 C 
BRANCH   4   6
HETATM    6  C   UNL     1      43.616 -17.076   1.679  1.00  0.00     0.099 C 
BRANCH   6   7
HETATM    7  C   UNL     1      43.903 -18.343   2.423  1.00  0.00     0.078 A 
HETATM    8  S   UNL     1      44.059 -18.331   4.129  1.00  0.00    -0.073 SA
HETATM    9  C   UNL     1      44.330 -20.032   4.116  1.00  0.00     0.035 A 
HETATM   10  C   UNL     1      44.292 -20.487   2.795  1.00  0.00     0.074 A 
HETATM   11  C   UNL     1      44.559 -20.902   5.194  1.00  0.00     0.021 A 
HETATM   12  N   UNL     1      44.055 -19.509   1.839  1.00  0.00    -0.245 NA
HETATM   13  C   UNL     1      44.488 -21.860   2.545  1.00  0.00     0.033 A 
HETATM   14  C   UNL     1      44.713 -22.736   3.612  1.00  0.00     0.002 A 
HETATM   15  C   UNL     1      44.748 -22.259   4.919  1.00  0.00     0.002 A 
ENDBRANCH   6   7
ENDBRANCH   4   6
ENDBRANCH   1   4
BRANCH   1  16
HETATM   16  C   UNL     1      41.058 -15.027   0.482  1.00  0.00     0.269 C 
BRANCH  16  17
HETATM   17  C   UNL     1      41.761 -13.832   1.164  1.00  0.00     0.177 C 
BRANCH  17  18
HETATM   18  O   UNL     1      41.043 -12.643   0.789  1.00  0.00    -0.389 OA
HETATM   19  H   UNL     1      41.366 -11.927   1.375  1.00  0.00     0.210 HD
ENDBRANCH  17  18
BRANCH  17  20
HETATM   20  C   UNL     1      41.837 -13.988   2.661  1.00  0.00    -0.025 A 
HETATM   21  C   UNL     1      43.074 -14.012   3.334  1.00  0.00     0.046 A 
HETATM   22  C   UNL     1      43.126 -14.139   4.724  1.00  0.00     0.068 A 
HETATM   23  C   UNL     1      41.936 -14.218   5.449  1.00  0.00     0.037 A 
HETATM   24  C   UNL     1      40.705 -14.191   4.797  1.00  0.00     0.003 A 
HETATM   25  C   UNL     1      40.654 -14.077   3.409  1.00  0.00     0.010 A 
BRANCH  22  26
HETATM   26  O   UNL     1      44.259 -14.179   5.485  1.00  0.00    -0.356 OA
HETATM   27  C   UNL     1      44.188 -13.639   6.797  1.00  0.00     0.210 C 
ENDBRANCH  22  26
ENDBRANCH  17  20
ENDBRANCH  16  17
ENDBRANCH   1  16
TORSDOF 8
ENDMDL
MODEL 9
REMARK VINA RESULT:      -6.5      2.743      5.504
REMARK  8 active torsions:
REMARK  status: ('A' for Active; 'I' for Inactive)
REMARK    1  A    between atoms: C_2  and  N_3 
REMARK    2  A    between atoms: C_2  and  C_17 
REMARK    3  A    between atoms: N_3  and  C_6 
REMARK    4  A    between atoms: C_6  and  C_7 
REMARK    5  A    between atoms: C_7  and  O_8 
REMARK    6  A    between atoms: C_7  and  C_9 
REMARK    7  A    between atoms: C_11  and  O_12 
REMARK    8  A    between atoms: C_17  and  C_18 
ROOT
HETATM    1  N   UNL     1      41.483 -16.194   2.702  1.00  0.00    -0.068 N 
HETATM    2  H   UNL     1      40.482 -16.416   2.781  1.00  0.00     0.277 HD
HETATM    3  H   UNL     1      41.910 -16.698   3.501  1.00  0.00     0.277 HD
ENDROOT
BRANCH   1   4
HETATM    4  C   UNL     1      41.997 -16.688   1.372  1.00  0.00     0.188 C 
HETATM    5  C   UNL     1      41.148 -17.909   1.005  1.00  0.00     0.040 C 
BRANCH   4   6
HETATM    6  C   UNL     1      43.497 -17.030   1.454  1.00  0.00     0.099 C 
BRANCH   6   7
HETATM    7  C   UNL     1      43.748 -18.145   2.421  1.00  0.00     0.078 A 
HETATM    8  S   UNL     1      44.222 -19.692   1.860  1.00  0.00    -0.073 SA
HETATM    9  C   UNL     1      44.294 -20.260   3.485  1.00  0.00     0.035 A 
HETATM   10  C   UNL     1      43.936 -19.219   4.345  1.00  0.00     0.074 A 
HETATM   11  C   UNL     1      44.642 -21.533   3.965  1.00  0.00     0.021 A 
HETATM   12  N   UNL     1      43.619 -18.019   3.722  1.00  0.00    -0.245 NA
HETATM   13  C   UNL     1      43.928 -19.458   5.734  1.00  0.00     0.033 A 
HETATM   14  C   UNL     1      44.277 -20.722   6.223  1.00  0.00     0.002 A 
HETATM   15  C   UNL     1      44.629 -21.744   5.347  1.00  0.00     0.002 A 
ENDBRANCH   6   7
ENDBRANCH   4   6
ENDBRANCH   1   4
BRANCH   1  16
HETATM   16  C   UNL     1      41.647 -14.723   3.007  1.00  0.00     0.269 C 
BRANCH  16  17
HETATM   17  C   UNL     1      41.152 -14.486   4.450  1.00  0.00     0.177 C 
BRANCH  17  18
HETATM   18  O   UNL     1      39.887 -15.159   4.584  1.00  0.00    -0.389 OA
HETATM   19  H   UNL     1      40.084 -16.118   4.602  1.00  0.00     0.210 HD
ENDBRANCH  17  18
BRANCH  17  20
HETATM   20  C   UNL     1      42.144 -14.953   5.483  1.00  0.00    -0.025 A 
HETATM   21  C   UNL     1      43.310 -14.216   5.767  1.00  0.00     0.046 A 
HETATM   22  C   UNL     1      44.210 -14.655   6.742  1.00  0.00     0.068 A 
HETATM   23  C   UNL     1      43.933 -15.823   7.453  1.00  0.00     0.037 A 
HETATM   24  C   UNL     1      42.781 -16.560   7.186  1.00  0.00     0.003 A 
HETATM   25  C   UNL     1      41.890 -16.129   6.206  1.00  0.00     0.010 A 
BRANCH  22  26
HETATM   26  O   UNL     1      45.372 -14.033   7.100  1.00  0.00    -0.356 OA
HETATM   27  C   UNL     1      45.291 -13.010   8.083  1.00  0.00     0.210 C 
ENDBRANCH  22  26
ENDBRANCH  17  20
ENDBRANCH  16  17
ENDBRANCH   1  16
TORSDOF 8
ENDMDL
MODEL 10
REMARK VINA RESULT:      -6.5      2.223      3.146
REMARK  8 active torsions:
REMARK  status: ('A' for Active; 'I' for Inactive)
REMARK    1  A    between atoms: C_2  and  N_3 
REMARK    2  A    between atoms: C_2  and  C_17 
REMARK    3  A    between atoms: N_3  and  C_6 
REMARK    4  A    between atoms: C_6  and  C_7 
REMARK    5  A    between atoms: C_7  and  O_8 
REMARK    6  A    between atoms: C_7  and  C_9 
REMARK    7  A    between atoms: C_11  and  O_12 
REMARK    8  A    between atoms: C_17  and  C_18 
ROOT
HETATM    1  N   UNL     1      41.905 -15.908   0.077  1.00  0.00    -0.068 N 
HETATM    2  H   UNL     1      42.527 -16.209  -0.685  1.00  0.00     0.277 HD
HETATM    3  H   UNL     1      42.547 -15.455   0.754  1.00  0.00     0.277 HD
ENDROOT
BRANCH   1   4
HETATM    4  C   UNL     1      40.879 -14.946  -0.471  1.00  0.00     0.188 C 
HETATM    5  C   UNL     1      41.018 -14.985  -1.996  1.00  0.00     0.040 C 
BRANCH   4   6
HETATM    6  C   UNL     1      41.095 -13.529   0.093  1.00  0.00     0.099 C 
BRANCH   6   7
HETATM    7  C   UNL     1      41.514 -13.575   1.530  1.00  0.00     0.078 A 
HETATM    8  S   UNL     1      40.352 -13.431   2.779  1.00  0.00    -0.073 SA
HETATM    9  C   UNL     1      41.597 -13.597   3.958  1.00  0.00     0.035 A 
HETATM   10  C   UNL     1      42.824 -13.740   3.304  1.00  0.00     0.074 A 
HETATM   11  C   UNL     1      41.498 -13.600   5.359  1.00  0.00     0.021 A 
HETATM   12  N   UNL     1      42.761 -13.718   1.917  1.00  0.00    -0.245 NA
HETATM   13  C   UNL     1      43.991 -13.894   4.078  1.00  0.00     0.033 A 
HETATM   14  C   UNL     1      43.903 -13.903   5.474  1.00  0.00     0.002 A 
HETATM   15  C   UNL     1      42.670 -13.757   6.103  1.00  0.00     0.002 A 
ENDBRANCH   6   7
ENDBRANCH   4   6
ENDBRANCH   1   4
BRANCH   1  16
HETATM   16  C   UNL     1      41.393 -17.153   0.763  1.00  0.00     0.269 C 
BRANCH  16  17
HETATM   17  C   UNL     1      41.723 -17.028   2.267  1.00  0.00     0.177 C 
BRANCH  17  18
HETATM   18  O   UNL     1      40.480 -17.114   2.987  1.00  0.00    -0.389 OA
HETATM   19  H   UNL     1      40.145 -16.197   3.072  1.00  0.00     0.210 HD
ENDBRANCH  17  18
BRANCH  17  20
HETATM   20  C   UNL     1      42.707 -18.072   2.728  1.00  0.00    -0.025 A 
HETATM   21  C   UNL     1      43.365 -17.964   3.969  1.00  0.00     0.046 A 
HETATM   22  C   UNL     1      44.260 -18.951   4.389  1.00  0.00     0.068 A 
HETATM   23  C   UNL     1      44.482 -20.064   3.577  1.00  0.00     0.037 A 
HETATM   24  C   UNL     1      43.835 -20.187   2.349  1.00  0.00     0.003 A 
HETATM   25  C   UNL     1      42.951 -19.197   1.925  1.00  0.00     0.010 A 
BRANCH  22  26
HETATM   26  O   UNL     1      44.959 -18.954   5.562  1.00  0.00    -0.356 OA
HETATM   27  C   UNL     1      44.860 -17.801   6.387  1.00  0.00     0.210 C 
ENDBRANCH  22  26
ENDBRANCH  17  20
ENDBRANCH  16  17
ENDBRANCH   1  16
TORSDOF 8
ENDMDL
