MODEL 1
REMARK VINA RESULT:      -9.2      0.000      0.000
REMARK  8 active torsions:
REMARK  status: ('A' for Active; 'I' for Inactive)
REMARK    1  A    between atoms: C_2  and  N_3 
REMARK    2  A    between atoms: C_2  and  C_36 
REMARK       I    between atoms: N_3  and  C_4 
REMARK    3  A    between atoms: C_4  and  C_5 
REMARK    4  A    between atoms: C_5  and  N_6 
REMARK       I    between atoms: N_12  and  C_13 
REMARK    5  A    between atoms: C_13  and  C_14 
REMARK    6  A    between atoms: C_15  and  O_16 
REMARK    7  A    between atoms: C_21  and  O_22 
REMARK    8  A    between atoms: N_27  and  C_28 
ROOT
HETATM    1  N   UNL     1      41.940 -15.682   5.715  1.00  0.00    -0.325 N 
HETATM    2  C   UNL     1      41.282 -15.923   4.525  1.00  0.00     0.250 C 
HETATM    3  O   UNL     1      41.005 -17.028   4.078  1.00  0.00    -0.270 OA
HETATM    4  C   UNL     1      41.043 -14.562   3.838  1.00  0.00     0.118 C 
HETATM    5  C   UNL     1      39.574 -14.489   3.380  1.00  0.00     0.061 C 
HETATM    6  C   UNL     1      39.348 -15.118   2.011  1.00  0.00     0.129 C 
HETATM    7  N   UNL     1      40.379 -14.712   1.069  1.00  0.00    -0.348 N 
HETATM    8  C   UNL     1      40.111 -13.666   0.177  1.00  0.00     0.259 C 
HETATM    9  O   UNL     1      39.073 -13.010   0.201  1.00  0.00    -0.267 OA
HETATM   10  C   UNL     1      41.716 -15.150   1.444  1.00  0.00     0.129 C 
HETATM   11  C   UNL     1      42.129 -14.459   2.742  1.00  0.00     0.061 C 
HETATM   12  N   UNL     1      41.319 -13.612   4.953  1.00  0.00    -0.346 N 
HETATM   13  C   UNL     1      41.946 -14.294   6.075  1.00  0.00     0.254 C 
ENDROOT
BRANCH  12  14
HETATM   14  C   UNL     1      41.240 -12.230   4.936  1.00  0.00     0.032 A 
HETATM   15  C   UNL     1      40.933 -11.491   3.781  1.00  0.00     0.029 A 
HETATM   16  C   UNL     1      40.836 -10.092   3.782  1.00  0.00     0.002 A 
HETATM   17  C   UNL     1      41.044  -9.378   4.952  1.00  0.00     0.000 A 
HETATM   18  C   UNL     1      41.349 -10.066   6.117  1.00  0.00     0.002 A 
HETATM   19  C   UNL     1      41.444 -11.466   6.102  1.00  0.00     0.029 A 
ENDBRANCH  12  14
BRANCH   1  20
HETATM   20  C   UNL     1      42.269 -16.729   6.670  1.00  0.00     0.230 C 
BRANCH  20  21
HETATM   21  C   UNL     1      43.484 -17.590   6.290  1.00  0.00     0.236 C 
HETATM   22  N   UNL     1      43.183 -18.879   5.901  1.00  0.00    -0.351 N 
HETATM   23  H   UNL     1      42.260 -19.249   6.090  1.00  0.00     0.163 HD
HETATM   24  O   UNL     1      44.641 -17.182   6.368  1.00  0.00    -0.272 OA
BRANCH  22  25
HETATM   25  C   UNL     1      44.243 -19.833   5.583  1.00  0.00     0.113 C 
HETATM   26  C   UNL     1      44.197 -20.973   6.611  1.00  0.00     0.037 C 
BRANCH  25  27
HETATM   27  C   UNL     1      44.179 -20.325   4.138  1.00  0.00    -0.036 A 
HETATM   28  C   UNL     1      44.560 -21.629   3.773  1.00  0.00     0.009 A 
HETATM   29  C   UNL     1      44.465 -22.067   2.448  1.00  0.00     0.001 A 
HETATM   30  C   UNL     1      43.962 -21.220   1.465  1.00  0.00     0.000 A 
HETATM   31  C   UNL     1      43.544 -19.939   1.807  1.00  0.00     0.001 A 
HETATM   32  C   UNL     1      43.643 -19.501   3.132  1.00  0.00     0.009 A 
ENDBRANCH  25  27
ENDBRANCH  22  25
ENDBRANCH  20  21
ENDBRANCH   1  20
BRANCH   8  33
HETATM   33  C   UNL     1      41.071 -13.420  -0.927  1.00  0.00     0.098 A 
HETATM   34  C   UNL     1      42.059 -12.439  -0.739  1.00  0.00     0.086 A 
HETATM   35  C   UNL     1      42.993 -12.181  -1.743  1.00  0.00     0.038 A 
HETATM   36  C   UNL     1      42.929 -12.878  -2.944  1.00  0.00     0.005 A 
HETATM   37  C   UNL     1      41.957 -13.865  -3.132  1.00  0.00     0.038 A 
HETATM   38  C   UNL     1      41.030 -14.158  -2.123  1.00  0.00     0.086 A 
BRANCH  34  39
HETATM   39  O   UNL     1      42.225 -11.795   0.459  1.00  0.00    -0.355 OA
HETATM   40  C   UNL     1      42.006 -10.392   0.326  1.00  0.00     0.210 C 
ENDBRANCH  34  39
BRANCH  38  41
HETATM   41  O   UNL     1      40.082 -15.140  -2.219  1.00  0.00    -0.355 OA
HETATM   42  C   UNL     1      39.401 -15.289  -3.459  1.00  0.00     0.210 C 
ENDBRANCH  38  41
ENDBRANCH   8  33
TORSDOF 8
ENDMDL
MODEL 2
REMARK VINA RESULT:      -9.2      0.216      1.989
REMARK  8 active torsions:
REMARK  status: ('A' for Active; 'I' for Inactive)
REMARK    1  A    between atoms: C_2  and  N_3 
REMARK    2  A    between atoms: C_2  and  C_36 
REMARK       I    between atoms: N_3  and  C_4 
REMARK    3  A    between atoms: C_4  and  C_5 
REMARK    4  A    between atoms: C_5  and  N_6 
REMARK       I    between atoms: N_12  and  C_13 
REMARK    5  A    between atoms: C_13  and  C_14 
REMARK    6  A    between atoms: C_15  and  O_16 
REMARK    7  A    between atoms: C_21  and  O_22 
REMARK    8  A    between atoms: N_27  and  C_28 
ROOT
HETATM    1  N   UNL     1      42.028 -15.663   5.764  1.00  0.00    -0.325 N 
HETATM    2  C   UNL     1      41.367 -15.887   4.573  1.00  0.00     0.250 C 
HETATM    3  O   UNL     1      41.090 -16.985   4.110  1.00  0.00    -0.270 OA
HETATM    4  C   UNL     1      41.124 -14.517   3.907  1.00  0.00     0.118 C 
HETATM    5  C   UNL     1      39.654 -14.439   3.455  1.00  0.00     0.061 C 
HETATM    6  C   UNL     1      39.424 -15.046   2.077  1.00  0.00     0.129 C 
HETATM    7  N   UNL     1      40.453 -14.625   1.139  1.00  0.00    -0.348 N 
HETATM    8  C   UNL     1      40.181 -13.565   0.263  1.00  0.00     0.259 C 
HETATM    9  O   UNL     1      39.141 -12.911   0.301  1.00  0.00    -0.267 OA
HETATM   10  C   UNL     1      41.791 -15.066   1.503  1.00  0.00     0.129 C 
HETATM   11  C   UNL     1      42.206 -14.395   2.810  1.00  0.00     0.061 C 
HETATM   12  N   UNL     1      41.402 -13.583   5.036  1.00  0.00    -0.346 N 
HETATM   13  C   UNL     1      42.033 -14.281   6.146  1.00  0.00     0.254 C 
ENDROOT
BRANCH  12  14
HETATM   14  C   UNL     1      41.320 -12.201   5.041  1.00  0.00     0.032 A 
HETATM   15  C   UNL     1      41.054 -11.442   3.888  1.00  0.00     0.029 A 
HETATM   16  C   UNL     1      40.953 -10.044   3.911  1.00  0.00     0.002 A 
HETATM   17  C   UNL     1      41.118  -9.350   5.100  1.00  0.00     0.000 A 
HETATM   18  C   UNL     1      41.382 -10.058   6.263  1.00  0.00     0.002 A 
HETATM   19  C   UNL     1      41.480 -11.457   6.226  1.00  0.00     0.029 A 
ENDBRANCH  12  14
BRANCH   1  20
HETATM   20  C   UNL     1      42.361 -16.724   6.702  1.00  0.00     0.230 C 
BRANCH  20  21
HETATM   21  C   UNL     1      43.559 -17.595   6.291  1.00  0.00     0.236 C 
HETATM   22  N   UNL     1      43.236 -18.880   5.906  1.00  0.00    -0.351 N 
HETATM   23  H   UNL     1      42.315 -19.242   6.115  1.00  0.00     0.163 HD
HETATM   24  O   UNL     1      44.721 -17.199   6.344  1.00  0.00    -0.272 OA
BRANCH  22  25
HETATM   25  C   UNL     1      44.280 -19.843   5.560  1.00  0.00     0.113 C 
HETATM   26  C   UNL     1      44.228 -21.001   6.569  1.00  0.00     0.037 C 
BRANCH  25  27
HETATM   27  C   UNL     1      44.193 -20.310   4.108  1.00  0.00    -0.036 A 
HETATM   28  C   UNL     1      44.567 -21.607   3.715  1.00  0.00     0.009 A 
HETATM   29  C   UNL     1      44.451 -22.022   2.383  1.00  0.00     0.001 A 
HETATM   30  C   UNL     1      43.937 -21.157   1.423  1.00  0.00     0.000 A 
HETATM   31  C   UNL     1      43.526 -19.881   1.794  1.00  0.00     0.001 A 
HETATM   32  C   UNL     1      43.645 -19.467   3.124  1.00  0.00     0.009 A 
ENDBRANCH  25  27
ENDBRANCH  22  25
ENDBRANCH  20  21
ENDBRANCH   1  20
BRANCH   8  33
HETATM   33  C   UNL     1      41.136 -13.300  -0.839  1.00  0.00     0.098 A 
HETATM   34  C   UNL     1      41.000 -14.038  -2.027  1.00  0.00     0.086 A 
HETATM   35  C   UNL     1      41.866 -13.814  -3.097  1.00  0.00     0.038 A 
HETATM   36  C   UNL     1      42.886 -12.876  -2.978  1.00  0.00     0.005 A 
HETATM   37  C   UNL     1      43.019 -12.129  -1.804  1.00  0.00     0.038 A 
HETATM   38  C   UNL     1      42.139 -12.320  -0.730  1.00  0.00     0.086 A 
BRANCH  34  39
HETATM   39  O   UNL     1      39.955 -14.901  -2.230  1.00  0.00    -0.355 OA
HETATM   40  C   UNL     1      40.293 -15.905  -3.184  1.00  0.00     0.210 C 
ENDBRANCH  34  39
BRANCH  38  41
HETATM   41  O   UNL     1      42.180 -11.594   0.429  1.00  0.00    -0.355 OA
HETATM   42  C   UNL     1      41.890 -10.203   0.354  1.00  0.00     0.210 C 
ENDBRANCH  38  41
ENDBRANCH   8  33
TORSDOF 8
ENDMDL
MODEL 3
REMARK VINA RESULT:      -9.1      3.166      8.254
REMARK  8 active torsions:
REMARK  status: ('A' for Active; 'I' for Inactive)
REMARK    1  A    between atoms: C_2  and  N_3 
REMARK    2  A    between atoms: C_2  and  C_36 
REMARK       I    between atoms: N_3  and  C_4 
REMARK    3  A    between atoms: C_4  and  C_5 
REMARK    4  A    between atoms: C_5  and  N_6 
REMARK       I    between atoms: N_12  and  C_13 
REMARK    5  A    between atoms: C_13  and  C_14 
REMARK    6  A    between atoms: C_15  and  O_16 
REMARK    7  A    between atoms: C_21  and  O_22 
REMARK    8  A    between atoms: N_27  and  C_28 
ROOT
HETATM    1  N   UNL     1      41.398 -11.120   4.917  1.00  0.00    -0.325 N 
HETATM    2  C   UNL     1      41.630 -12.335   5.530  1.00  0.00     0.250 C 
HETATM    3  O   UNL     1      42.283 -12.503   6.551  1.00  0.00    -0.270 OA
HETATM    4  C   UNL     1      40.993 -13.432   4.651  1.00  0.00     0.118 C 
HETATM    5  C   UNL     1      40.161 -14.366   5.550  1.00  0.00     0.061 C 
HETATM    6  C   UNL     1      40.990 -15.479   6.177  1.00  0.00     0.129 C 
HETATM    7  N   UNL     1      41.883 -16.084   5.201  1.00  0.00    -0.348 N 
HETATM    8  C   UNL     1      41.501 -17.281   4.581  1.00  0.00     0.259 C 
HETATM    9  O   UNL     1      40.405 -17.809   4.755  1.00  0.00    -0.267 OA
HETATM   10  C   UNL     1      42.874 -15.161   4.666  1.00  0.00     0.129 C 
HETATM   11  C   UNL     1      42.167 -14.066   3.870  1.00  0.00     0.061 C 
HETATM   12  N   UNL     1      40.126 -12.624   3.747  1.00  0.00    -0.346 N 
HETATM   13  C   UNL     1      40.437 -11.206   3.857  1.00  0.00     0.254 C 
ENDROOT
BRANCH  12  14
HETATM   14  C   UNL     1      39.281 -13.074   2.747  1.00  0.00     0.032 A 
HETATM   15  C   UNL     1      39.222 -14.417   2.336  1.00  0.00     0.029 A 
HETATM   16  C   UNL     1      38.347 -14.863   1.336  1.00  0.00     0.002 A 
HETATM   17  C   UNL     1      37.491 -13.972   0.706  1.00  0.00     0.000 A 
HETATM   18  C   UNL     1      37.516 -12.637   1.079  1.00  0.00     0.002 A 
HETATM   19  C   UNL     1      38.396 -12.203   2.081  1.00  0.00     0.029 A 
ENDBRANCH  12  14
BRANCH   1  20
HETATM   20  C   UNL     1      41.794  -9.846   5.499  1.00  0.00     0.230 C 
BRANCH  20  21
HETATM   21  C   UNL     1      41.039  -9.460   6.781  1.00  0.00     0.236 C 
HETATM   22  N   UNL     1      41.545 -10.013   7.940  1.00  0.00    -0.351 N 
HETATM   23  H   UNL     1      42.203 -10.779   7.875  1.00  0.00     0.163 HD
HETATM   24  O   UNL     1      40.035  -8.752   6.777  1.00  0.00    -0.272 OA
BRANCH  22  25
HETATM   25  C   UNL     1      40.885  -9.794   9.225  1.00  0.00     0.113 C 
HETATM   26  C   UNL     1      39.777 -10.845   9.390  1.00  0.00     0.037 C 
BRANCH  25  27
HETATM   27  C   UNL     1      41.867  -9.769  10.395  1.00  0.00    -0.036 A 
HETATM   28  C   UNL     1      41.853  -8.749  11.363  1.00  0.00     0.009 A 
HETATM   29  C   UNL     1      42.743  -8.762  12.442  1.00  0.00     0.001 A 
HETATM   30  C   UNL     1      43.648  -9.809  12.590  1.00  0.00     0.000 A 
HETATM   31  C   UNL     1      43.656 -10.848  11.667  1.00  0.00     0.001 A 
HETATM   32  C   UNL     1      42.768 -10.832  10.586  1.00  0.00     0.009 A 
ENDBRANCH  25  27
ENDBRANCH  22  25
ENDBRANCH  20  21
ENDBRANCH   1  20
BRANCH   8  33
HETATM   33  C   UNL     1      42.510 -18.007   3.773  1.00  0.00     0.098 A 
HETATM   34  C   UNL     1      43.426 -18.834   4.443  1.00  0.00     0.086 A 
HETATM   35  C   UNL     1      44.385 -19.549   3.726  1.00  0.00     0.038 A 
HETATM   36  C   UNL     1      44.451 -19.423   2.342  1.00  0.00     0.005 A 
HETATM   37  C   UNL     1      43.533 -18.612   1.667  1.00  0.00     0.038 A 
HETATM   38  C   UNL     1      42.545 -17.910   2.370  1.00  0.00     0.086 A 
BRANCH  34  39
HETATM   39  O   UNL     1      43.341 -19.069   5.792  1.00  0.00    -0.355 OA
HETATM   40  C   UNL     1      44.487 -18.567   6.476  1.00  0.00     0.210 C 
ENDBRANCH  34  39
BRANCH  38  41
HETATM   41  O   UNL     1      41.587 -17.137   1.773  1.00  0.00    -0.355 OA
HETATM   42  C   UNL     1      41.941 -16.438   0.586  1.00  0.00     0.210 C 
ENDBRANCH  38  41
ENDBRANCH   8  33
TORSDOF 8
ENDMDL
MODEL 4
REMARK VINA RESULT:      -9.1      3.147      8.345
REMARK  8 active torsions:
REMARK  status: ('A' for Active; 'I' for Inactive)
REMARK    1  A    between atoms: C_2  and  N_3 
REMARK    2  A    between atoms: C_2  and  C_36 
REMARK       I    between atoms: N_3  and  C_4 
REMARK    3  A    between atoms: C_4  and  C_5 
REMARK    4  A    between atoms: C_5  and  N_6 
REMARK       I    between atoms: N_12  and  C_13 
REMARK    5  A    between atoms: C_13  and  C_14 
REMARK    6  A    between atoms: C_15  and  O_16 
REMARK    7  A    between atoms: C_21  and  O_22 
REMARK    8  A    between atoms: N_27  and  C_28 
ROOT
HETATM    1  N   UNL     1      41.431 -11.127   4.911  1.00  0.00    -0.325 N 
HETATM    2  C   UNL     1      41.655 -12.333   5.544  1.00  0.00     0.250 C 
HETATM    3  O   UNL     1      42.302 -12.487   6.570  1.00  0.00    -0.270 OA
HETATM    4  C   UNL     1      41.017 -13.440   4.679  1.00  0.00     0.118 C 
HETATM    5  C   UNL     1      40.176 -14.357   5.589  1.00  0.00     0.061 C 
HETATM    6  C   UNL     1      40.998 -15.463   6.238  1.00  0.00     0.129 C 
HETATM    7  N   UNL     1      41.892 -16.087   5.275  1.00  0.00    -0.348 N 
HETATM    8  C   UNL     1      41.508 -17.292   4.672  1.00  0.00     0.259 C 
HETATM    9  O   UNL     1      40.409 -17.813   4.849  1.00  0.00    -0.267 OA
HETATM   10  C   UNL     1      42.889 -15.178   4.731  1.00  0.00     0.129 C 
HETATM   11  C   UNL     1      42.191 -14.092   3.914  1.00  0.00     0.061 C 
HETATM   12  N   UNL     1      40.158 -12.643   3.758  1.00  0.00    -0.346 N 
HETATM   13  C   UNL     1      40.475 -11.225   3.848  1.00  0.00     0.254 C 
ENDROOT
BRANCH  12  14
HETATM   14  C   UNL     1      39.316 -13.105   2.762  1.00  0.00     0.032 A 
HETATM   15  C   UNL     1      39.266 -14.450   2.359  1.00  0.00     0.029 A 
HETATM   16  C   UNL     1      38.393 -14.909   1.362  1.00  0.00     0.002 A 
HETATM   17  C   UNL     1      37.531 -14.028   0.727  1.00  0.00     0.000 A 
HETATM   18  C   UNL     1      37.546 -12.690   1.092  1.00  0.00     0.002 A 
HETATM   19  C   UNL     1      38.425 -12.244   2.091  1.00  0.00     0.029 A 
ENDBRANCH  12  14
BRANCH   1  20
HETATM   20  C   UNL     1      41.830  -9.846   5.474  1.00  0.00     0.230 C 
BRANCH  20  21
HETATM   21  C   UNL     1      41.079  -9.441   6.753  1.00  0.00     0.236 C 
HETATM   22  N   UNL     1      41.578  -9.989   7.917  1.00  0.00    -0.351 N 
HETATM   23  H   UNL     1      42.228 -10.763   7.859  1.00  0.00     0.163 HD
HETATM   24  O   UNL     1      40.082  -8.722   6.742  1.00  0.00    -0.272 OA
BRANCH  22  25
HETATM   25  C   UNL     1      40.919  -9.752   9.199  1.00  0.00     0.113 C 
HETATM   26  C   UNL     1      39.779 -10.769   9.357  1.00  0.00     0.037 C 
BRANCH  25  27
HETATM   27  C   UNL     1      41.896  -9.761  10.374  1.00  0.00    -0.036 A 
HETATM   28  C   UNL     1      41.897  -8.753  11.354  1.00  0.00     0.009 A 
HETATM   29  C   UNL     1      42.782  -8.796  12.437  1.00  0.00     0.001 A 
HETATM   30  C   UNL     1      43.667  -9.861  12.576  1.00  0.00     0.000 A 
HETATM   31  C   UNL     1      43.660 -10.889  11.639  1.00  0.00     0.001 A 
HETATM   32  C   UNL     1      42.777 -10.842  10.556  1.00  0.00     0.009 A 
ENDBRANCH  25  27
ENDBRANCH  22  25
ENDBRANCH  20  21
ENDBRANCH   1  20
BRANCH   8  33
HETATM   33  C   UNL     1      42.517 -18.036   3.880  1.00  0.00     0.098 A 
HETATM   34  C   UNL     1      42.480 -17.918   2.481  1.00  0.00     0.086 A 
HETATM   35  C   UNL     1      43.417 -18.588   1.694  1.00  0.00     0.038 A 
HETATM   36  C   UNL     1      44.375 -19.397   2.295  1.00  0.00     0.005 A 
HETATM   37  C   UNL     1      44.426 -19.508   3.688  1.00  0.00     0.038 A 
HETATM   38  C   UNL     1      43.511 -18.818   4.495  1.00  0.00     0.086 A 
BRANCH  34  39
HETATM   39  O   UNL     1      41.620 -17.059   1.847  1.00  0.00    -0.355 OA
HETATM   40  C   UNL     1      42.296 -16.292   0.853  1.00  0.00     0.210 C 
ENDBRANCH  34  39
BRANCH  38  41
HETATM   41  O   UNL     1      43.530 -18.842   5.862  1.00  0.00    -0.355 OA
HETATM   42  C   UNL     1      44.658 -18.280   6.523  1.00  0.00     0.210 C 
ENDBRANCH  38  41
ENDBRANCH   8  33
TORSDOF 8
ENDMDL
MODEL 5
REMARK VINA RESULT:      -8.7      3.417      5.579
REMARK  8 active torsions:
REMARK  status: ('A' for Active; 'I' for Inactive)
REMARK    1  A    between atoms: C_2  and  N_3 
REMARK    2  A    between atoms: C_2  and  C_36 
REMARK       I    between atoms: N_3  and  C_4 
REMARK    3  A    between atoms: C_4  and  C_5 
REMARK    4  A    between atoms: C_5  and  N_6 
REMARK       I    between atoms: N_12  and  C_13 
REMARK    5  A    between atoms: C_13  and  C_14 
REMARK    6  A    between atoms: C_15  and  O_16 
REMARK    7  A    between atoms: C_21  and  O_22 
REMARK    8  A    between atoms: N_27  and  C_28 
ROOT
HETATM    1  N   UNL     1      40.709 -16.122   0.611  1.00  0.00    -0.325 N 
HETATM    2  C   UNL     1      39.859 -15.268   1.284  1.00  0.00     0.250 C 
HETATM    3  O   UNL     1      39.204 -15.554   2.277  1.00  0.00    -0.270 OA
HETATM    4  C   UNL     1      39.827 -13.933   0.510  1.00  0.00     0.118 C 
HETATM    5  C   UNL     1      40.023 -12.777   1.508  1.00  0.00     0.061 C 
HETATM    6  C   UNL     1      38.722 -12.326   2.158  1.00  0.00     0.129 C 
HETATM    7  N   UNL     1      37.657 -12.208   1.174  1.00  0.00    -0.348 N 
HETATM    8  C   UNL     1      37.352 -10.945   0.651  1.00  0.00     0.259 C 
HETATM    9  O   UNL     1      37.997  -9.933   0.916  1.00  0.00    -0.267 OA
HETATM   10  C   UNL     1      37.315 -13.468   0.531  1.00  0.00     0.129 C 
HETATM   11  C   UNL     1      38.506 -13.955  -0.292  1.00  0.00     0.061 C 
HETATM   12  N   UNL     1      41.002 -14.084  -0.395  1.00  0.00    -0.346 N 
HETATM   13  C   UNL     1      41.491 -15.456  -0.389  1.00  0.00     0.254 C 
ENDROOT
BRANCH  12  14
HETATM   14  C   UNL     1      41.491 -13.176  -1.318  1.00  0.00     0.032 A 
HETATM   15  C   UNL     1      42.384 -12.144  -0.984  1.00  0.00     0.029 A 
HETATM   16  C   UNL     1      42.888 -11.243  -1.933  1.00  0.00     0.002 A 
HETATM   17  C   UNL     1      42.511 -11.346  -3.263  1.00  0.00     0.000 A 
HETATM   18  C   UNL     1      41.631 -12.349  -3.639  1.00  0.00     0.002 A 
HETATM   19  C   UNL     1      41.134 -13.244  -2.679  1.00  0.00     0.029 A 
ENDBRANCH  12  14
BRANCH   1  20
HETATM   20  C   UNL     1      41.044 -17.455   1.090  1.00  0.00     0.230 C 
BRANCH  20  21
HETATM   21  C   UNL     1      42.469 -17.601   1.647  1.00  0.00     0.236 C 
HETATM   22  N   UNL     1      42.558 -18.291   2.839  1.00  0.00    -0.351 N 
HETATM   23  H   UNL     1      41.717 -18.459   3.376  1.00  0.00     0.163 HD
HETATM   24  O   UNL     1      43.453 -17.105   1.102  1.00  0.00    -0.272 OA
BRANCH  22  25
HETATM   25  C   UNL     1      43.840 -18.443   3.523  1.00  0.00     0.113 C 
HETATM   26  C   UNL     1      43.785 -17.658   4.842  1.00  0.00     0.037 C 
BRANCH  25  27
HETATM   27  C   UNL     1      44.237 -19.906   3.713  1.00  0.00    -0.036 A 
HETATM   28  C   UNL     1      44.607 -20.425   4.966  1.00  0.00     0.009 A 
HETATM   29  C   UNL     1      44.938 -21.776   5.121  1.00  0.00     0.001 A 
HETATM   30  C   UNL     1      44.881 -22.640   4.033  1.00  0.00     0.000 A 
HETATM   31  C   UNL     1      44.482 -22.159   2.791  1.00  0.00     0.001 A 
HETATM   32  C   UNL     1      44.155 -20.808   2.636  1.00  0.00     0.009 A 
ENDBRANCH  25  27
ENDBRANCH  22  25
ENDBRANCH  20  21
ENDBRANCH   1  20
BRANCH   8  33
HETATM   33  C   UNL     1      36.122 -10.799  -0.164  1.00  0.00     0.098 A 
HETATM   34  C   UNL     1      34.913 -10.534   0.501  1.00  0.00     0.086 A 
HETATM   35  C   UNL     1      33.732 -10.374  -0.222  1.00  0.00     0.038 A 
HETATM   36  C   UNL     1      33.745 -10.505  -1.607  1.00  0.00     0.005 A 
HETATM   37  C   UNL     1      34.947 -10.756  -2.277  1.00  0.00     0.038 A 
HETATM   38  C   UNL     1      36.147 -10.889  -1.568  1.00  0.00     0.086 A 
BRANCH  34  39
HETATM   39  O   UNL     1      34.864 -10.299   1.851  1.00  0.00    -0.355 OA
HETATM   40  C   UNL     1      33.592  -9.785   2.239  1.00  0.00     0.210 C 
ENDBRANCH  34  39
BRANCH  38  41
HETATM   41  O   UNL     1      37.365 -11.088  -2.158  1.00  0.00    -0.355 OA
HETATM   42  C   UNL     1      37.406 -11.850  -3.359  1.00  0.00     0.210 C 
ENDBRANCH  38  41
ENDBRANCH   8  33
TORSDOF 8
ENDMDL
MODEL 6
REMARK VINA RESULT:      -8.7      1.759      2.153
REMARK  8 active torsions:
REMARK  status: ('A' for Active; 'I' for Inactive)
REMARK    1  A    between atoms: C_2  and  N_3 
REMARK    2  A    between atoms: C_2  and  C_36 
REMARK       I    between atoms: N_3  and  C_4 
REMARK    3  A    between atoms: C_4  and  C_5 
REMARK    4  A    between atoms: C_5  and  N_6 
REMARK       I    between atoms: N_12  and  C_13 
REMARK    5  A    between atoms: C_13  and  C_14 
REMARK    6  A    between atoms: C_15  and  O_16 
REMARK    7  A    between atoms: C_21  and  O_22 
REMARK    8  A    between atoms: N_27  and  C_28 
ROOT
HETATM    1  N   UNL     1      40.940 -15.204   3.915  1.00  0.00    -0.325 N 
HETATM    2  C   UNL     1      40.442 -15.229   2.627  1.00  0.00     0.250 C 
HETATM    3  O   UNL     1      40.351 -16.224   1.921  1.00  0.00    -0.270 OA
HETATM    4  C   UNL     1      40.108 -13.778   2.226  1.00  0.00     0.118 C 
HETATM    5  C   UNL     1      38.696 -13.746   1.611  1.00  0.00     0.061 C 
HETATM    6  C   UNL     1      38.690 -14.063   0.122  1.00  0.00     0.129 C 
HETATM    7  N   UNL     1      39.754 -13.353  -0.571  1.00  0.00    -0.348 N 
HETATM    8  C   UNL     1      39.451 -12.161  -1.243  1.00  0.00     0.259 C 
HETATM    9  O   UNL     1      38.342 -11.633  -1.209  1.00  0.00    -0.267 OA
HETATM   10  C   UNL     1      41.089 -13.732  -0.133  1.00  0.00     0.129 C 
HETATM   11  C   UNL     1      41.279 -13.320   1.326  1.00  0.00     0.061 C 
HETATM   12  N   UNL     1      40.149 -13.086   3.546  1.00  0.00    -0.346 N 
HETATM   13  C   UNL     1      40.738 -13.943   4.565  1.00  0.00     0.254 C 
ENDROOT
BRANCH  12  14
HETATM   14  C   UNL     1      39.901 -11.752   3.818  1.00  0.00     0.032 A 
HETATM   15  C   UNL     1      40.909 -10.773   3.852  1.00  0.00     0.029 A 
HETATM   16  C   UNL     1      40.641  -9.421   4.109  1.00  0.00     0.002 A 
HETATM   17  C   UNL     1      39.342  -8.997   4.343  1.00  0.00     0.000 A 
HETATM   18  C   UNL     1      38.315  -9.929   4.320  1.00  0.00     0.002 A 
HETATM   19  C   UNL     1      38.597 -11.278   4.062  1.00  0.00     0.029 A 
ENDBRANCH  12  14
BRANCH   1  20
HETATM   20  C   UNL     1      41.297 -16.405   4.655  1.00  0.00     0.230 C 
BRANCH  20  21
HETATM   21  C   UNL     1      42.729 -16.908   4.415  1.00  0.00     0.236 C 
HETATM   22  N   UNL     1      43.115 -17.964   5.216  1.00  0.00    -0.351 N 
HETATM   23  H   UNL     1      42.559 -18.195   6.029  1.00  0.00     0.163 HD
HETATM   24  O   UNL     1      43.494 -16.387   3.606  1.00  0.00    -0.272 OA
BRANCH  22  25
HETATM   25  C   UNL     1      44.474 -18.498   5.150  1.00  0.00     0.113 C 
HETATM   26  C   UNL     1      45.083 -18.455   6.559  1.00  0.00     0.037 C 
BRANCH  25  27
HETATM   27  C   UNL     1      44.531 -19.885   4.514  1.00  0.00    -0.036 A 
HETATM   28  C   UNL     1      44.703 -21.053   5.278  1.00  0.00     0.009 A 
HETATM   29  C   UNL     1      44.723 -22.316   4.677  1.00  0.00     0.001 A 
HETATM   30  C   UNL     1      44.547 -22.440   3.302  1.00  0.00     0.000 A 
HETATM   31  C   UNL     1      44.338 -21.303   2.529  1.00  0.00     0.001 A 
HETATM   32  C   UNL     1      44.322 -20.041   3.131  1.00  0.00     0.009 A 
ENDBRANCH  25  27
ENDBRANCH  22  25
ENDBRANCH  20  21
ENDBRANCH   1  20
BRANCH   8  33
HETATM   33  C   UNL     1      40.480 -11.576  -2.135  1.00  0.00     0.098 A 
HETATM   34  C   UNL     1      41.168 -10.433  -1.694  1.00  0.00     0.086 A 
HETATM   35  C   UNL     1      42.155  -9.854  -2.492  1.00  0.00     0.038 A 
HETATM   36  C   UNL     1      42.441 -10.394  -3.742  1.00  0.00     0.005 A 
HETATM   37  C   UNL     1      41.769 -11.540  -4.181  1.00  0.00     0.038 A 
HETATM   38  C   UNL     1      40.797 -12.151  -3.379  1.00  0.00     0.086 A 
BRANCH  34  39
HETATM   39  O   UNL     1      40.994  -9.921  -0.434  1.00  0.00    -0.355 OA
HETATM   40  C   UNL     1      42.242  -9.768   0.238  1.00  0.00     0.210 C 
ENDBRANCH  34  39
BRANCH  38  41
HETATM   41  O   UNL     1      40.134 -13.297  -3.723  1.00  0.00    -0.355 OA
HETATM   42  C   UNL     1      40.859 -14.521  -3.690  1.00  0.00     0.210 C 
ENDBRANCH  38  41
ENDBRANCH   8  33
TORSDOF 8
ENDMDL
MODEL 7
REMARK VINA RESULT:      -8.6      3.404      5.689
REMARK  8 active torsions:
REMARK  status: ('A' for Active; 'I' for Inactive)
REMARK    1  A    between atoms: C_2  and  N_3 
REMARK    2  A    between atoms: C_2  and  C_36 
REMARK       I    between atoms: N_3  and  C_4 
REMARK    3  A    between atoms: C_4  and  C_5 
REMARK    4  A    between atoms: C_5  and  N_6 
REMARK       I    between atoms: N_12  and  C_13 
REMARK    5  A    between atoms: C_13  and  C_14 
REMARK    6  A    between atoms: C_15  and  O_16 
REMARK    7  A    between atoms: C_21  and  O_22 
REMARK    8  A    between atoms: N_27  and  C_28 
ROOT
HETATM    1  N   UNL     1      40.657 -15.990   0.742  1.00  0.00    -0.325 N 
HETATM    2  C   UNL     1      39.797 -15.101   1.357  1.00  0.00     0.250 C 
HETATM    3  O   UNL     1      39.145 -15.328   2.367  1.00  0.00    -0.270 OA
HETATM    4  C   UNL     1      39.750 -13.823   0.495  1.00  0.00     0.118 C 
HETATM    5  C   UNL     1      39.933 -12.599   1.413  1.00  0.00     0.061 C 
HETATM    6  C   UNL     1      38.626 -12.121   2.032  1.00  0.00     0.129 C 
HETATM    7  N   UNL     1      37.560 -12.081   1.043  1.00  0.00    -0.348 N 
HETATM    8  C   UNL     1      37.241 -10.860   0.435  1.00  0.00     0.259 C 
HETATM    9  O   UNL     1      37.874  -9.825   0.631  1.00  0.00    -0.267 OA
HETATM   10  C   UNL     1      37.232 -13.385   0.486  1.00  0.00     0.129 C 
HETATM   11  C   UNL     1      38.429 -13.913  -0.303  1.00  0.00     0.061 C 
HETATM   12  N   UNL     1      40.927 -14.021  -0.398  1.00  0.00    -0.346 N 
HETATM   13  C   UNL     1      41.431 -15.383  -0.300  1.00  0.00     0.254 C 
ENDROOT
BRANCH  12  14
HETATM   14  C   UNL     1      41.406 -13.171  -1.380  1.00  0.00     0.032 A 
HETATM   15  C   UNL     1      40.980 -13.225  -2.718  1.00  0.00     0.029 A 
HETATM   16  C   UNL     1      41.458 -12.345  -3.699  1.00  0.00     0.002 A 
HETATM   17  C   UNL     1      42.389 -11.370  -3.372  1.00  0.00     0.000 A 
HETATM   18  C   UNL     1      42.837 -11.281  -2.063  1.00  0.00     0.002 A 
HETATM   19  C   UNL     1      42.351 -12.167  -1.091  1.00  0.00     0.029 A 
ENDBRANCH  12  14
BRANCH   1  20
HETATM   20  C   UNL     1      41.006 -17.283   1.310  1.00  0.00     0.230 C 
BRANCH  20  21
HETATM   21  C   UNL     1      42.421 -17.365   1.906  1.00  0.00     0.236 C 
HETATM   22  N   UNL     1      42.616 -18.401   2.796  1.00  0.00    -0.351 N 
HETATM   23  H   UNL     1      41.812 -18.889   3.169  1.00  0.00     0.163 HD
HETATM   24  O   UNL     1      43.302 -16.548   1.648  1.00  0.00    -0.272 OA
BRANCH  22  25
HETATM   25  C   UNL     1      43.889 -18.558   3.496  1.00  0.00     0.113 C 
HETATM   26  C   UNL     1      43.828 -17.756   4.805  1.00  0.00     0.037 C 
BRANCH  25  27
HETATM   27  C   UNL     1      44.268 -20.022   3.708  1.00  0.00    -0.036 A 
HETATM   28  C   UNL     1      44.619 -20.530   4.972  1.00  0.00     0.009 A 
HETATM   29  C   UNL     1      44.934 -21.882   5.147  1.00  0.00     0.001 A 
HETATM   30  C   UNL     1      44.880 -22.759   4.069  1.00  0.00     0.000 A 
HETATM   31  C   UNL     1      44.501 -22.288   2.817  1.00  0.00     0.001 A 
HETATM   32  C   UNL     1      44.190 -20.937   2.642  1.00  0.00     0.009 A 
ENDBRANCH  25  27
ENDBRANCH  22  25
ENDBRANCH  20  21
ENDBRANCH   1  20
BRANCH   8  33
HETATM   33  C   UNL     1      36.010 -10.783  -0.387  1.00  0.00     0.098 A 
HETATM   34  C   UNL     1      36.132 -10.921  -1.780  1.00  0.00     0.086 A 
HETATM   35  C   UNL     1      35.001 -10.870  -2.594  1.00  0.00     0.038 A 
HETATM   36  C   UNL     1      33.749 -10.655  -2.027  1.00  0.00     0.005 A 
HETATM   37  C   UNL     1      33.618 -10.530  -0.641  1.00  0.00     0.038 A 
HETATM   38  C   UNL     1      34.741 -10.609   0.194  1.00  0.00     0.086 A 
BRANCH  34  39
HETATM   39  O   UNL     1      37.327 -11.231  -2.376  1.00  0.00    -0.355 OA
HETATM   40  C   UNL     1      37.151 -12.194  -3.413  1.00  0.00     0.210 C 
ENDBRANCH  34  39
BRANCH  38  41
HETATM   41  O   UNL     1      34.683 -10.543   1.559  1.00  0.00    -0.355 OA
HETATM   42  C   UNL     1      34.069  -9.400   2.145  1.00  0.00     0.210 C 
ENDBRANCH  38  41
ENDBRANCH   8  33
TORSDOF 8
ENDMDL
MODEL 8
REMARK VINA RESULT:      -8.6      1.691      2.718
REMARK  8 active torsions:
REMARK  status: ('A' for Active; 'I' for Inactive)
REMARK    1  A    between atoms: C_2  and  N_3 
REMARK    2  A    between atoms: C_2  and  C_36 
REMARK       I    between atoms: N_3  and  C_4 
REMARK    3  A    between atoms: C_4  and  C_5 
REMARK    4  A    between atoms: C_5  and  N_6 
REMARK       I    between atoms: N_12  and  C_13 
REMARK    5  A    between atoms: C_13  and  C_14 
REMARK    6  A    between atoms: C_15  and  O_16 
REMARK    7  A    between atoms: C_21  and  O_22 
REMARK    8  A    between atoms: N_27  and  C_28 
ROOT
HETATM    1  N   UNL     1      40.833 -14.990   4.624  1.00  0.00    -0.325 N 
HETATM    2  C   UNL     1      40.554 -15.093   3.276  1.00  0.00     0.250 C 
HETATM    3  O   UNL     1      40.719 -16.092   2.591  1.00  0.00    -0.270 OA
HETATM    4  C   UNL     1      40.082 -13.707   2.788  1.00  0.00     0.118 C 
HETATM    5  C   UNL     1      38.795 -13.884   1.960  1.00  0.00     0.061 C 
HETATM    6  C   UNL     1      39.071 -14.204   0.497  1.00  0.00     0.129 C 
HETATM    7  N   UNL     1      40.118 -13.349  -0.040  1.00  0.00    -0.348 N 
HETATM    8  C   UNL     1      39.758 -12.217  -0.783  1.00  0.00     0.259 C 
HETATM    9  O   UNL     1      38.593 -11.856  -0.937  1.00  0.00    -0.267 OA
HETATM   10  C   UNL     1      41.407 -13.528   0.611  1.00  0.00     0.129 C 
HETATM   11  C   UNL     1      41.303 -13.087   2.070  1.00  0.00     0.061 C 
HETATM   12  N   UNL     1      39.814 -13.011   4.079  1.00  0.00    -0.346 N 
HETATM   13  C   UNL     1      40.351 -13.769   5.200  1.00  0.00     0.254 C 
ENDROOT
BRANCH  12  14
HETATM   14  C   UNL     1      39.337 -11.727   4.274  1.00  0.00     0.032 A 
HETATM   15  C   UNL     1      38.301 -11.166   3.507  1.00  0.00     0.029 A 
HETATM   16  C   UNL     1      37.814  -9.870   3.729  1.00  0.00     0.002 A 
HETATM   17  C   UNL     1      38.352  -9.082   4.735  1.00  0.00     0.000 A 
HETATM   18  C   UNL     1      39.376  -9.595   5.516  1.00  0.00     0.002 A 
HETATM   19  C   UNL     1      39.855 -10.893   5.284  1.00  0.00     0.029 A 
ENDBRANCH  12  14
BRANCH   1  20
HETATM   20  C   UNL     1      41.237 -16.123   5.443  1.00  0.00     0.230 C 
BRANCH  20  21
HETATM   21  C   UNL     1      42.694 -16.571   5.249  1.00  0.00     0.236 C 
HETATM   22  N   UNL     1      42.855 -17.908   4.947  1.00  0.00    -0.351 N 
HETATM   23  H   UNL     1      42.078 -18.541   5.084  1.00  0.00     0.163 HD
HETATM   24  O   UNL     1      43.651 -15.813   5.396  1.00  0.00    -0.272 OA
BRANCH  22  25
HETATM   25  C   UNL     1      44.188 -18.490   4.810  1.00  0.00     0.113 C 
HETATM   26  C   UNL     1      44.732 -18.799   6.212  1.00  0.00     0.037 C 
BRANCH  25  27
HETATM   27  C   UNL     1      44.208 -19.702   3.879  1.00  0.00    -0.036 A 
HETATM   28  C   UNL     1      44.739 -20.942   4.276  1.00  0.00     0.009 A 
HETATM   29  C   UNL     1      44.720 -22.046   3.417  1.00  0.00     0.001 A 
HETATM   30  C   UNL     1      44.147 -21.940   2.153  1.00  0.00     0.000 A 
HETATM   31  C   UNL     1      43.582 -20.735   1.752  1.00  0.00     0.001 A 
HETATM   32  C   UNL     1      43.605 -19.631   2.610  1.00  0.00     0.009 A 
ENDBRANCH  25  27
ENDBRANCH  22  25
ENDBRANCH  20  21
ENDBRANCH   1  20
BRANCH   8  33
HETATM   33  C   UNL     1      40.820 -11.491  -1.519  1.00  0.00     0.098 A 
HETATM   34  C   UNL     1      41.235 -12.003  -2.760  1.00  0.00     0.086 A 
HETATM   35  C   UNL     1      42.221 -11.347  -3.497  1.00  0.00     0.038 A 
HETATM   36  C   UNL     1      42.815 -10.197  -2.989  1.00  0.00     0.005 A 
HETATM   37  C   UNL     1      42.398  -9.675  -1.761  1.00  0.00     0.038 A 
HETATM   38  C   UNL     1      41.387 -10.304  -1.022  1.00  0.00     0.086 A 
BRANCH  34  39
HETATM   39  O   UNL     1      40.614 -13.074  -3.348  1.00  0.00    -0.355 OA
HETATM   40  C   UNL     1      41.440 -14.235  -3.308  1.00  0.00     0.210 C 
ENDBRANCH  34  39
BRANCH  38  41
HETATM   41  O   UNL     1      40.897  -9.826   0.162  1.00  0.00    -0.355 OA
HETATM   42  C   UNL     1      41.638  -8.811   0.828  1.00  0.00     0.210 C 
ENDBRANCH  38  41
ENDBRANCH   8  33
TORSDOF 8
ENDMDL
MODEL 9
REMARK VINA RESULT:      -8.5      2.359      3.997
REMARK  8 active torsions:
REMARK  status: ('A' for Active; 'I' for Inactive)
REMARK    1  A    between atoms: C_2  and  N_3 
REMARK    2  A    between atoms: C_2  and  C_36 
REMARK       I    between atoms: N_3  and  C_4 
REMARK    3  A    between atoms: C_4  and  C_5 
REMARK    4  A    between atoms: C_5  and  N_6 
REMARK       I    between atoms: N_12  and  C_13 
REMARK    5  A    between atoms: C_13  and  C_14 
REMARK    6  A    between atoms: C_15  and  O_16 
REMARK    7  A    between atoms: C_21  and  O_22 
REMARK    8  A    between atoms: N_27  and  C_28 
ROOT
HETATM    1  N   UNL     1      41.150 -15.983   1.038  1.00  0.00    -0.325 N 
HETATM    2  C   UNL     1      40.960 -15.209  -0.089  1.00  0.00     0.250 C 
HETATM    3  O   UNL     1      41.183 -15.561  -1.239  1.00  0.00    -0.270 OA
HETATM    4  C   UNL     1      40.502 -13.811   0.375  1.00  0.00     0.118 C 
HETATM    5  C   UNL     1      39.274 -13.390  -0.454  1.00  0.00     0.061 C 
HETATM    6  C   UNL     1      39.647 -12.729  -1.774  1.00  0.00     0.129 C 
HETATM    7  N   UNL     1      40.715 -11.758  -1.592  1.00  0.00    -0.348 N 
HETATM    8  C   UNL     1      40.388 -10.401  -1.478  1.00  0.00     0.259 C 
HETATM    9  O   UNL     1      39.230  -9.989  -1.439  1.00  0.00    -0.267 OA
HETATM   10  C   UNL     1      41.962 -12.344  -1.123  1.00  0.00     0.129 C 
HETATM   11  C   UNL     1      41.757 -12.914   0.279  1.00  0.00     0.061 C 
HETATM   12  N   UNL     1      40.141 -14.072   1.798  1.00  0.00    -0.346 N 
HETATM   13  C   UNL     1      40.616 -15.381   2.223  1.00  0.00     0.254 C 
ENDROOT
BRANCH  12  14
HETATM   14  C   UNL     1      39.636 -13.180   2.728  1.00  0.00     0.032 A 
HETATM   15  C   UNL     1      39.852 -13.305   4.111  1.00  0.00     0.029 A 
HETATM   16  C   UNL     1      39.351 -12.383   5.041  1.00  0.00     0.002 A 
HETATM   17  C   UNL     1      38.608 -11.293   4.614  1.00  0.00     0.000 A 
HETATM   18  C   UNL     1      38.369 -11.130   3.258  1.00  0.00     0.002 A 
HETATM   19  C   UNL     1      38.876 -12.059   2.338  1.00  0.00     0.029 A 
ENDBRANCH  12  14
BRANCH   1  20
HETATM   20  C   UNL     1      41.516 -17.391   0.984  1.00  0.00     0.230 C 
BRANCH  20  21
HETATM   21  C   UNL     1      42.881 -17.726   1.606  1.00  0.00     0.236 C 
HETATM   22  N   UNL     1      42.825 -18.242   2.885  1.00  0.00    -0.351 N 
HETATM   23  H   UNL     1      41.963 -18.167   3.410  1.00  0.00     0.163 HD
HETATM   24  O   UNL     1      43.947 -17.511   1.033  1.00  0.00    -0.272 OA
BRANCH  22  25
HETATM   25  C   UNL     1      44.048 -18.537   3.629  1.00  0.00     0.113 C 
HETATM   26  C   UNL     1      43.957 -17.860   5.004  1.00  0.00     0.037 C 
BRANCH  25  27
HETATM   27  C   UNL     1      44.337 -20.034   3.716  1.00  0.00    -0.036 A 
HETATM   28  C   UNL     1      44.665 -20.665   4.929  1.00  0.00     0.009 A 
HETATM   29  C   UNL     1      44.897 -22.043   4.990  1.00  0.00     0.001 A 
HETATM   30  C   UNL     1      44.782 -22.824   3.844  1.00  0.00     0.000 A 
HETATM   31  C   UNL     1      44.422 -22.230   2.640  1.00  0.00     0.001 A 
HETATM   32  C   UNL     1      44.194 -20.852   2.579  1.00  0.00     0.009 A 
ENDBRANCH  25  27
ENDBRANCH  22  25
ENDBRANCH  20  21
ENDBRANCH   1  20
BRANCH   8  33
HETATM   33  C   UNL     1      41.485  -9.405  -1.531  1.00  0.00     0.098 A 
HETATM   34  C   UNL     1      41.996  -8.917  -0.317  1.00  0.00     0.086 A 
HETATM   35  C   UNL     1      43.038  -7.990  -0.315  1.00  0.00     0.038 A 
HETATM   36  C   UNL     1      43.556  -7.526  -1.520  1.00  0.00     0.005 A 
HETATM   37  C   UNL     1      43.061  -8.019  -2.732  1.00  0.00     0.038 A 
HETATM   38  C   UNL     1      42.035  -8.973  -2.752  1.00  0.00     0.086 A 
BRANCH  34  39
HETATM   39  O   UNL     1      41.589  -9.413   0.894  1.00  0.00    -0.355 OA
HETATM   40  C   UNL     1      40.824  -8.450   1.615  1.00  0.00     0.210 C 
ENDBRANCH  34  39
BRANCH  38  41
HETATM   41  O   UNL     1      41.534  -9.532  -3.895  1.00  0.00    -0.355 OA
HETATM   42  C   UNL     1      42.369 -10.428  -4.618  1.00  0.00     0.210 C 
ENDBRANCH  38  41
ENDBRANCH   8  33
TORSDOF 8
ENDMDL
MODEL 10
REMARK VINA RESULT:      -8.4      2.677      5.775
REMARK  8 active torsions:
REMARK  status: ('A' for Active; 'I' for Inactive)
REMARK    1  A    between atoms: C_2  and  N_3 
REMARK    2  A    between atoms: C_2  and  C_36 
REMARK       I    between atoms: N_3  and  C_4 
REMARK    3  A    between atoms: C_4  and  C_5 
REMARK    4  A    between atoms: C_5  and  N_6 
REMARK       I    between atoms: N_12  and  C_13 
REMARK    5  A    between atoms: C_13  and  C_14 
REMARK    6  A    between atoms: C_15  and  O_16 
REMARK    7  A    between atoms: C_21  and  O_22 
REMARK    8  A    between atoms: N_27  and  C_28 
ROOT
HETATM    1  N   UNL     1      41.128 -16.057   0.779  1.00  0.00    -0.325 N 
HETATM    2  C   UNL     1      41.024 -15.122   1.790  1.00  0.00     0.250 C 
HETATM    3  O   UNL     1      40.988 -15.372   2.987  1.00  0.00    -0.270 OA
HETATM    4  C   UNL     1      40.879 -13.735   1.131  1.00  0.00     0.118 C 
HETATM    5  C   UNL     1      41.861 -12.759   1.808  1.00  0.00     0.061 C 
HETATM    6  C   UNL     1      41.289 -12.121   3.068  1.00  0.00     0.129 C 
HETATM    7  N   UNL     1      39.920 -11.678   2.857  1.00  0.00    -0.348 N 
HETATM    8  C   UNL     1      39.680 -10.330   2.561  1.00  0.00     0.259 C 
HETATM    9  O   UNL     1      40.577  -9.509   2.385  1.00  0.00    -0.267 OA
HETATM   10  C   UNL     1      38.996 -12.762   2.558  1.00  0.00     0.129 C 
HETATM   11  C   UNL     1      39.374 -13.393   1.220  1.00  0.00     0.061 C 
HETATM   12  N   UNL     1      41.277 -14.028  -0.275  1.00  0.00    -0.346 N 
HETATM   13  C   UNL     1      41.350 -15.463  -0.507  1.00  0.00     0.254 C 
ENDROOT
BRANCH  12  14
HETATM   14  C   UNL     1      41.365 -13.147  -1.339  1.00  0.00     0.032 A 
HETATM   15  C   UNL     1      42.515 -12.389  -1.618  1.00  0.00     0.029 A 
HETATM   16  C   UNL     1      42.598 -11.516  -2.712  1.00  0.00     0.002 A 
HETATM   17  C   UNL     1      41.520 -11.368  -3.572  1.00  0.00     0.000 A 
HETATM   18  C   UNL     1      40.364 -12.095  -3.334  1.00  0.00     0.002 A 
HETATM   19  C   UNL     1      40.294 -12.966  -2.237  1.00  0.00     0.029 A 
ENDBRANCH  12  14
BRANCH   1  20
HETATM   20  C   UNL     1      41.351 -17.474   1.023  1.00  0.00     0.230 C 
BRANCH  20  21
HETATM   21  C   UNL     1      42.740 -17.821   1.584  1.00  0.00     0.236 C 
HETATM   22  N   UNL     1      42.749 -18.211   2.908  1.00  0.00    -0.351 N 
HETATM   23  H   UNL     1      41.930 -18.043   3.478  1.00  0.00     0.163 HD
HETATM   24  O   UNL     1      43.771 -17.717   0.925  1.00  0.00    -0.272 OA
BRANCH  22  25
HETATM   25  C   UNL     1      44.006 -18.499   3.595  1.00  0.00     0.113 C 
HETATM   26  C   UNL     1      43.973 -17.824   4.974  1.00  0.00     0.037 C 
BRANCH  25  27
HETATM   27  C   UNL     1      44.308 -19.995   3.667  1.00  0.00    -0.036 A 
HETATM   28  C   UNL     1      44.621 -20.639   4.878  1.00  0.00     0.009 A 
HETATM   29  C   UNL     1      44.865 -22.016   4.924  1.00  0.00     0.001 A 
HETATM   30  C   UNL     1      44.777 -22.782   3.766  1.00  0.00     0.000 A 
HETATM   31  C   UNL     1      44.434 -22.175   2.563  1.00  0.00     0.001 A 
HETATM   32  C   UNL     1      44.193 -20.798   2.518  1.00  0.00     0.009 A 
ENDBRANCH  25  27
ENDBRANCH  22  25
ENDBRANCH  20  21
ENDBRANCH   1  20
BRANCH   8  33
HETATM   33  C   UNL     1      38.279  -9.843   2.583  1.00  0.00     0.098 A 
HETATM   34  C   UNL     1      37.605  -9.710   1.358  1.00  0.00     0.086 A 
HETATM   35  C   UNL     1      36.282  -9.270   1.328  1.00  0.00     0.038 A 
HETATM   36  C   UNL     1      35.636  -8.935   2.514  1.00  0.00     0.005 A 
HETATM   37  C   UNL     1      36.297  -9.078   3.738  1.00  0.00     0.038 A 
HETATM   38  C   UNL     1      37.616  -9.548   3.788  1.00  0.00     0.086 A 
BRANCH  34  39
HETATM   39  O   UNL     1      38.162 -10.118   0.174  1.00  0.00    -0.355 OA
HETATM   40  C   UNL     1      38.282  -9.032  -0.741  1.00  0.00     0.210 C 
ENDBRANCH  34  39
BRANCH  38  41
HETATM   41  O   UNL     1      38.308  -9.757   4.949  1.00  0.00    -0.355 OA
HETATM   42  C   UNL     1      38.621  -8.623   5.750  1.00  0.00     0.210 C 
ENDBRANCH  38  41
ENDBRANCH   8  33
TORSDOF 8
ENDMDL
