MODEL 1
REMARK VINA RESULT:      -8.6      0.000      0.000
REMARK  4 active torsions:
REMARK  status: ('A' for Active; 'I' for Inactive)
REMARK    1  A    between atoms: C_9  and  C_10 
REMARK    2  A    between atoms: C_20  and  C_21 
REMARK       I    between atoms: C_21  and  N_22 
REMARK    3  A    between atoms: N_22  and  C_23 
REMARK    4  A    between atoms: C_24  and  O_25 
ROOT
HETATM    1  C   UNL     1      41.639 -16.126  -0.803  1.00  0.00     0.070 C 
HETATM    2  C   UNL     1      41.230 -15.574   0.542  1.00  0.00     0.037 A 
HETATM    3  N   UNL     1      40.331 -14.515   0.504  1.00  0.00    -0.192 N 
HETATM    4  C   UNL     1      39.836 -13.916   1.600  1.00  0.00     0.725 A 
HETATM    5  N   UNL     1      40.241 -14.344   2.834  1.00  0.00    -0.084 N 
HETATM    6  N   UNL     1      39.535 -13.738   3.814  1.00  0.00    -0.149 NA
HETATM    7  C   UNL     1      38.811 -12.872   3.095  1.00  0.00     0.275 A 
HETATM    8  N   UNL     1      38.957 -12.957   1.735  1.00  0.00    -0.054 NA
HETATM    9  C   UNL     1      41.173 -15.456   3.054  1.00  0.00     0.203 A 
HETATM   10  C   UNL     1      41.664 -16.059   1.735  1.00  0.00     0.062 A 
HETATM   11  H   UNL     1      40.033 -14.181  -0.410  1.00  0.00     0.184 HD
ENDROOT
BRANCH  10  12
HETATM   12  C   UNL     1      42.721 -17.120   1.773  1.00  0.00     0.256 C 
HETATM   13  N   UNL     1      42.353 -18.271   2.437  1.00  0.00    -0.321 N 
HETATM   14  H   UNL     1      41.533 -18.239   3.023  1.00  0.00     0.169 HD
HETATM   15  O   UNL     1      43.821 -16.868   1.298  1.00  0.00    -0.267 OA
BRANCH  13  16
HETATM   16  C   UNL     1      43.139 -19.439   2.609  1.00  0.00     0.068 A 
HETATM   17  C   UNL     1      44.110 -19.645   3.601  1.00  0.00     0.095 A 
HETATM   18  C   UNL     1      44.776 -20.874   3.701  1.00  0.00     0.039 A 
HETATM   19  C   UNL     1      44.530 -21.886   2.778  1.00  0.00     0.003 A 
HETATM   20  C   UNL     1      43.616 -21.674   1.751  1.00  0.00     0.002 A 
HETATM   21  C   UNL     1      42.931 -20.459   1.664  1.00  0.00     0.032 A 
BRANCH  17  22
HETATM   22  O   UNL     1      44.492 -18.690   4.503  1.00  0.00    -0.354 OA
HETATM   23  C   UNL     1      44.875 -19.291   5.738  1.00  0.00     0.210 C 
ENDBRANCH  17  22
ENDBRANCH  13  16
ENDBRANCH  10  12
BRANCH   9  24
HETATM   24  C   UNL     1      42.292 -15.029   4.011  1.00  0.00    -0.017 A 
HETATM   25  C   UNL     1      42.515 -15.692   5.261  1.00  0.00    -0.017 A 
HETATM   26  C   UNL     1      43.616 -15.281   6.058  1.00  0.00    -0.025 A 
HETATM   27  C   UNL     1      41.704 -16.733   5.780  1.00  0.00     0.013 A 
HETATM   28  C   UNL     1      43.885 -15.918   7.281  1.00  0.00     0.012 A 
HETATM   29  C   UNL     1      44.438 -14.229   5.637  1.00  0.00     0.012 A 
HETATM   30  C   UNL     1      43.077 -16.949   7.750  1.00  0.00     0.001 A 
HETATM   31  C   UNL     1      41.982 -17.352   7.002  1.00  0.00     0.001 A 
HETATM   32  C   UNL     1      44.189 -13.560   4.445  1.00  0.00     0.002 A 
HETATM   33  C   UNL     1      43.124 -13.949   3.644  1.00  0.00     0.010 A 
ENDBRANCH   9  24
TORSDOF 4
ENDMDL
MODEL 2
REMARK VINA RESULT:      -7.9      2.331      5.280
REMARK  4 active torsions:
REMARK  status: ('A' for Active; 'I' for Inactive)
REMARK    1  A    between atoms: C_9  and  C_10 
REMARK    2  A    between atoms: C_20  and  C_21 
REMARK       I    between atoms: C_21  and  N_22 
REMARK    3  A    between atoms: N_22  and  C_23 
REMARK    4  A    between atoms: C_24  and  O_25 
ROOT
HETATM    1  C   UNL     1      43.637 -15.269   6.612  1.00  0.00     0.070 C 
HETATM    2  C   UNL     1      42.942 -14.192   5.812  1.00  0.00     0.037 A 
HETATM    3  N   UNL     1      42.374 -13.167   6.559  1.00  0.00    -0.192 N 
HETATM    4  C   UNL     1      41.740 -12.113   6.019  1.00  0.00     0.725 A 
HETATM    5  N   UNL     1      41.618 -12.033   4.659  1.00  0.00    -0.084 N 
HETATM    6  N   UNL     1      41.093 -10.844   4.288  1.00  0.00    -0.149 NA
HETATM    7  C   UNL     1      40.813 -10.315   5.484  1.00  0.00     0.275 A 
HETATM    8  N   UNL     1      41.205 -11.054   6.570  1.00  0.00    -0.054 NA
HETATM    9  C   UNL     1      42.170 -13.021   3.724  1.00  0.00     0.203 A 
HETATM   10  C   UNL     1      42.870 -14.169   4.455  1.00  0.00     0.062 A 
HETATM   11  H   UNL     1      42.448 -13.224   7.572  1.00  0.00     0.184 HD
ENDROOT
BRANCH  10  12
HETATM   12  C   UNL     1      43.378 -15.332   3.659  1.00  0.00     0.256 C 
HETATM   13  N   UNL     1      42.846 -16.552   4.023  1.00  0.00    -0.321 N 
HETATM   14  H   UNL     1      42.359 -16.611   4.904  1.00  0.00     0.169 HD
HETATM   15  O   UNL     1      44.253 -15.134   2.826  1.00  0.00    -0.267 OA
BRANCH  13  16
HETATM   16  C   UNL     1      43.127 -17.810   3.432  1.00  0.00     0.068 A 
HETATM   17  C   UNL     1      42.523 -18.338   2.281  1.00  0.00     0.095 A 
HETATM   18  C   UNL     1      42.936 -19.571   1.762  1.00  0.00     0.039 A 
HETATM   19  C   UNL     1      43.908 -20.322   2.416  1.00  0.00     0.003 A 
HETATM   20  C   UNL     1      44.472 -19.841   3.593  1.00  0.00     0.002 A 
HETATM   21  C   UNL     1      44.080 -18.598   4.100  1.00  0.00     0.032 A 
BRANCH  17  22
HETATM   22  O   UNL     1      41.499 -17.726   1.610  1.00  0.00    -0.354 OA
HETATM   23  C   UNL     1      42.008 -16.866   0.593  1.00  0.00     0.210 C 
ENDBRANCH  17  22
ENDBRANCH  13  16
ENDBRANCH  10  12
BRANCH   9  24
HETATM   24  C   UNL     1      41.094 -13.466   2.727  1.00  0.00    -0.017 A 
HETATM   25  C   UNL     1      41.137 -13.089   1.347  1.00  0.00    -0.017 A 
HETATM   26  C   UNL     1      40.141 -13.601   0.474  1.00  0.00    -0.025 A 
HETATM   27  C   UNL     1      42.102 -12.221   0.775  1.00  0.00     0.013 A 
HETATM   28  C   UNL     1      40.157 -13.274  -0.893  1.00  0.00     0.012 A 
HETATM   29  C   UNL     1      39.125 -14.428   0.969  1.00  0.00     0.012 A 
HETATM   30  C   UNL     1      41.132 -12.434  -1.421  1.00  0.00     0.001 A 
HETATM   31  C   UNL     1      42.101 -11.902  -0.586  1.00  0.00     0.001 A 
HETATM   32  C   UNL     1      39.063 -14.753   2.319  1.00  0.00     0.002 A 
HETATM   33  C   UNL     1      40.032 -14.272   3.191  1.00  0.00     0.010 A 
ENDBRANCH   9  24
TORSDOF 4
ENDMDL
MODEL 3
REMARK VINA RESULT:      -7.8      3.117      7.389
REMARK  4 active torsions:
REMARK  status: ('A' for Active; 'I' for Inactive)
REMARK    1  A    between atoms: C_9  and  C_10 
REMARK    2  A    between atoms: C_20  and  C_21 
REMARK       I    between atoms: C_21  and  N_22 
REMARK    3  A    between atoms: N_22  and  C_23 
REMARK    4  A    between atoms: C_24  and  O_25 
ROOT
HETATM    1  C   UNL     1      45.135 -13.904   6.993  1.00  0.00     0.070 C 
HETATM    2  C   UNL     1      44.416 -15.119   6.454  1.00  0.00     0.037 A 
HETATM    3  N   UNL     1      44.748 -16.325   7.060  1.00  0.00    -0.192 N 
HETATM    4  C   UNL     1      44.191 -17.502   6.731  1.00  0.00     0.725 A 
HETATM    5  N   UNL     1      43.256 -17.543   5.733  1.00  0.00    -0.084 N 
HETATM    6  N   UNL     1      42.698 -18.771   5.642  1.00  0.00    -0.149 NA
HETATM    7  C   UNL     1      43.435 -19.443   6.534  1.00  0.00     0.275 A 
HETATM    8  N   UNL     1      44.351 -18.700   7.231  1.00  0.00    -0.054 NA
HETATM    9  C   UNL     1      42.783 -16.363   5.001  1.00  0.00     0.203 A 
HETATM   10  C   UNL     1      43.485 -15.084   5.465  1.00  0.00     0.062 A 
HETATM   11  H   UNL     1      45.451 -16.306   7.795  1.00  0.00     0.184 HD
ENDROOT
BRANCH  10  12
HETATM   12  C   UNL     1      43.216 -13.804   4.734  1.00  0.00     0.256 C 
HETATM   13  N   UNL     1      42.053 -13.165   5.108  1.00  0.00    -0.321 N 
HETATM   14  H   UNL     1      41.379 -13.686   5.648  1.00  0.00     0.169 HD
HETATM   15  O   UNL     1      43.979 -13.471   3.835  1.00  0.00    -0.267 OA
BRANCH  13  16
HETATM   16  C   UNL     1      41.561 -11.934   4.603  1.00  0.00     0.068 A 
HETATM   17  C   UNL     1      41.396 -10.747   5.332  1.00  0.00     0.095 A 
HETATM   18  C   UNL     1      40.958  -9.577   4.698  1.00  0.00     0.039 A 
HETATM   19  C   UNL     1      40.618  -9.591   3.348  1.00  0.00     0.003 A 
HETATM   20  C   UNL     1      40.716 -10.777   2.627  1.00  0.00     0.002 A 
HETATM   21  C   UNL     1      41.179 -11.939   3.251  1.00  0.00     0.032 A 
BRANCH  17  22
HETATM   22  O   UNL     1      41.617 -10.642   6.679  1.00  0.00    -0.354 OA
HETATM   23  C   UNL     1      40.397 -10.801   7.400  1.00  0.00     0.210 C 
ENDBRANCH  17  22
ENDBRANCH  13  16
ENDBRANCH  10  12
BRANCH   9  24
HETATM   24  C   UNL     1      42.854 -16.613   3.490  1.00  0.00    -0.017 A 
HETATM   25  C   UNL     1      41.828 -16.164   2.598  1.00  0.00    -0.017 A 
HETATM   26  C   UNL     1      42.003 -16.373   1.205  1.00  0.00    -0.025 A 
HETATM   27  C   UNL     1      40.626 -15.528   3.003  1.00  0.00     0.013 A 
HETATM   28  C   UNL     1      41.031 -15.930   0.291  1.00  0.00     0.012 A 
HETATM   29  C   UNL     1      43.141 -17.035   0.728  1.00  0.00     0.012 A 
HETATM   30  C   UNL     1      39.872 -15.293   0.725  1.00  0.00     0.001 A 
HETATM   31  C   UNL     1      39.667 -15.098   2.081  1.00  0.00     0.001 A 
HETATM   32  C   UNL     1      44.111 -17.509   1.602  1.00  0.00     0.002 A 
HETATM   33  C   UNL     1      43.967 -17.307   2.969  1.00  0.00     0.010 A 
ENDBRANCH   9  24
TORSDOF 4
ENDMDL
MODEL 4
REMARK VINA RESULT:      -7.6      2.453      5.411
REMARK  4 active torsions:
REMARK  status: ('A' for Active; 'I' for Inactive)
REMARK    1  A    between atoms: C_9  and  C_10 
REMARK    2  A    between atoms: C_20  and  C_21 
REMARK       I    between atoms: C_21  and  N_22 
REMARK    3  A    between atoms: N_22  and  C_23 
REMARK    4  A    between atoms: C_24  and  O_25 
ROOT
HETATM    1  C   UNL     1      42.946 -13.522   6.489  1.00  0.00     0.070 C 
HETATM    2  C   UNL     1      42.169 -12.718   5.472  1.00  0.00     0.037 A 
HETATM    3  N   UNL     1      41.310 -11.762   5.999  1.00  0.00    -0.192 N 
HETATM    4  C   UNL     1      40.561 -10.937   5.248  1.00  0.00     0.725 A 
HETATM    5  N   UNL     1      40.616 -11.040   3.885  1.00  0.00    -0.084 N 
HETATM    6  N   UNL     1      39.922 -10.043   3.295  1.00  0.00    -0.149 NA
HETATM    7  C   UNL     1      39.379  -9.453   4.366  1.00  0.00     0.275 A 
HETATM    8  N   UNL     1      39.754  -9.962   5.582  1.00  0.00    -0.054 NA
HETATM    9  C   UNL     1      41.478 -11.987   3.167  1.00  0.00     0.203 A 
HETATM   10  C   UNL     1      42.283 -12.866   4.126  1.00  0.00     0.062 A 
HETATM   11  H   UNL     1      41.253 -11.685   7.012  1.00  0.00     0.184 HD
ENDROOT
BRANCH  10  12
HETATM   12  C   UNL     1      43.118 -13.976   3.563  1.00  0.00     0.256 C 
HETATM   13  N   UNL     1      42.480 -15.197   3.499  1.00  0.00    -0.321 N 
HETATM   14  H   UNL     1      41.625 -15.312   4.022  1.00  0.00     0.169 HD
HETATM   15  O   UNL     1      44.287 -13.745   3.284  1.00  0.00    -0.267 OA
BRANCH  13  16
HETATM   16  C   UNL     1      43.016 -16.409   2.995  1.00  0.00     0.068 A 
HETATM   17  C   UNL     1      43.553 -17.457   3.758  1.00  0.00     0.095 A 
HETATM   18  C   UNL     1      43.995 -18.634   3.139  1.00  0.00     0.039 A 
HETATM   19  C   UNL     1      43.968 -18.755   1.753  1.00  0.00     0.003 A 
HETATM   20  C   UNL     1      43.498 -17.699   0.979  1.00  0.00     0.002 A 
HETATM   21  C   UNL     1      43.031 -16.534   1.595  1.00  0.00     0.032 A 
BRANCH  17  22
HETATM   22  O   UNL     1      43.708 -17.409   5.117  1.00  0.00    -0.354 OA
HETATM   23  C   UNL     1      44.617 -18.417   5.554  1.00  0.00     0.210 C 
ENDBRANCH  17  22
ENDBRANCH  13  16
ENDBRANCH  10  12
BRANCH   9  24
HETATM   24  C   UNL     1      40.661 -12.763   2.128  1.00  0.00    -0.017 A 
HETATM   25  C   UNL     1      41.043 -12.817   0.749  1.00  0.00    -0.017 A 
HETATM   26  C   UNL     1      40.272 -13.616  -0.136  1.00  0.00    -0.025 A 
HETATM   27  C   UNL     1      42.138 -12.114   0.186  1.00  0.00     0.013 A 
HETATM   28  C   UNL     1      40.623 -13.714  -1.494  1.00  0.00     0.012 A 
HETATM   29  C   UNL     1      39.147 -14.305   0.332  1.00  0.00     0.012 A 
HETATM   30  C   UNL     1      41.717 -13.024  -2.007  1.00  0.00     0.001 A 
HETATM   31  C   UNL     1      42.471 -12.218  -1.169  1.00  0.00     0.001 A 
HETATM   32  C   UNL     1      38.756 -14.212   1.663  1.00  0.00     0.002 A 
HETATM   33  C   UNL     1      39.499 -13.444   2.550  1.00  0.00     0.010 A 
ENDBRANCH   9  24
TORSDOF 4
ENDMDL
MODEL 5
REMARK VINA RESULT:      -7.6      2.771      7.376
REMARK  4 active torsions:
REMARK  status: ('A' for Active; 'I' for Inactive)
REMARK    1  A    between atoms: C_9  and  C_10 
REMARK    2  A    between atoms: C_20  and  C_21 
REMARK       I    between atoms: C_21  and  N_22 
REMARK    3  A    between atoms: N_22  and  C_23 
REMARK    4  A    between atoms: C_24  and  O_25 
ROOT
HETATM    1  C   UNL     1      45.141 -13.924   6.992  1.00  0.00     0.070 C 
HETATM    2  C   UNL     1      44.420 -15.137   6.452  1.00  0.00     0.037 A 
HETATM    3  N   UNL     1      44.744 -16.343   7.061  1.00  0.00    -0.192 N 
HETATM    4  C   UNL     1      44.184 -17.520   6.732  1.00  0.00     0.725 A 
HETATM    5  N   UNL     1      43.255 -17.559   5.729  1.00  0.00    -0.084 N 
HETATM    6  N   UNL     1      42.692 -18.784   5.637  1.00  0.00    -0.149 NA
HETATM    7  C   UNL     1      43.421 -19.457   6.534  1.00  0.00     0.275 A 
HETATM    8  N   UNL     1      44.337 -18.717   7.236  1.00  0.00    -0.054 NA
HETATM    9  C   UNL     1      42.791 -16.378   4.992  1.00  0.00     0.203 A 
HETATM   10  C   UNL     1      43.495 -15.102   5.457  1.00  0.00     0.062 A 
HETATM   11  H   UNL     1      45.443 -16.327   7.800  1.00  0.00     0.184 HD
ENDROOT
BRANCH  10  12
HETATM   12  C   UNL     1      43.235 -13.822   4.722  1.00  0.00     0.256 C 
HETATM   13  N   UNL     1      42.037 -13.216   5.034  1.00  0.00    -0.321 N 
HETATM   14  H   UNL     1      41.346 -13.759   5.530  1.00  0.00     0.169 HD
HETATM   15  O   UNL     1      44.039 -13.461   3.871  1.00  0.00    -0.267 OA
BRANCH  13  16
HETATM   16  C   UNL     1      41.543 -11.994   4.511  1.00  0.00     0.068 A 
HETATM   17  C   UNL     1      41.264 -11.722   3.163  1.00  0.00     0.095 A 
HETATM   18  C   UNL     1      40.718 -10.489   2.783  1.00  0.00     0.039 A 
HETATM   19  C   UNL     1      40.504  -9.491   3.729  1.00  0.00     0.003 A 
HETATM   20  C   UNL     1      40.835  -9.722   5.060  1.00  0.00     0.002 A 
HETATM   21  C   UNL     1      41.355 -10.962   5.447  1.00  0.00     0.032 A 
BRANCH  17  22
HETATM   22  O   UNL     1      41.517 -12.597   2.141  1.00  0.00    -0.354 OA
HETATM   23  C   UNL     1      41.806 -11.891   0.936  1.00  0.00     0.210 C 
ENDBRANCH  17  22
ENDBRANCH  13  16
ENDBRANCH  10  12
BRANCH   9  24
HETATM   24  C   UNL     1      42.869 -16.631   3.482  1.00  0.00    -0.017 A 
HETATM   25  C   UNL     1      41.825 -16.226   2.590  1.00  0.00    -0.017 A 
HETATM   26  C   UNL     1      42.006 -16.435   1.197  1.00  0.00    -0.025 A 
HETATM   27  C   UNL     1      40.600 -15.636   2.994  1.00  0.00     0.013 A 
HETATM   28  C   UNL     1      41.017 -16.033   0.283  1.00  0.00     0.012 A 
HETATM   29  C   UNL     1      43.168 -17.053   0.721  1.00  0.00     0.012 A 
HETATM   30  C   UNL     1      39.835 -15.440   0.716  1.00  0.00     0.001 A 
HETATM   31  C   UNL     1      39.623 -15.248   2.072  1.00  0.00     0.001 A 
HETATM   32  C   UNL     1      44.157 -17.486   1.596  1.00  0.00     0.002 A 
HETATM   33  C   UNL     1      44.007 -17.285   2.962  1.00  0.00     0.010 A 
ENDBRANCH   9  24
TORSDOF 4
ENDMDL
MODEL 6
REMARK VINA RESULT:      -7.5      2.539      5.821
REMARK  4 active torsions:
REMARK  status: ('A' for Active; 'I' for Inactive)
REMARK    1  A    between atoms: C_9  and  C_10 
REMARK    2  A    between atoms: C_20  and  C_21 
REMARK       I    between atoms: C_21  and  N_22 
REMARK    3  A    between atoms: N_22  and  C_23 
REMARK    4  A    between atoms: C_24  and  O_25 
ROOT
HETATM    1  C   UNL     1      39.845 -14.030   5.480  1.00  0.00     0.070 C 
HETATM    2  C   UNL     1      39.888 -13.128   4.267  1.00  0.00     0.037 A 
HETATM    3  N   UNL     1      39.433 -11.832   4.473  1.00  0.00    -0.192 N 
HETATM    4  C   UNL     1      39.424 -10.885   3.519  1.00  0.00     0.725 A 
HETATM    5  N   UNL     1      39.863 -11.199   2.262  1.00  0.00    -0.084 N 
HETATM    6  N   UNL     1      39.925 -10.098   1.481  1.00  0.00    -0.149 NA
HETATM    7  C   UNL     1      39.392  -9.185   2.301  1.00  0.00     0.275 A 
HETATM    8  N   UNL     1      39.083  -9.623   3.562  1.00  0.00    -0.054 NA
HETATM    9  C   UNL     1      40.387 -12.516   1.880  1.00  0.00     0.203 A 
HETATM   10  C   UNL     1      40.352 -13.505   3.047  1.00  0.00     0.062 A 
HETATM   11  H   UNL     1      39.093 -11.592   5.401  1.00  0.00     0.184 HD
ENDROOT
BRANCH  10  12
HETATM   12  C   UNL     1      40.729 -14.933   2.797  1.00  0.00     0.256 C 
HETATM   13  N   UNL     1      42.086 -15.181   2.831  1.00  0.00    -0.321 N 
HETATM   14  H   UNL     1      42.712 -14.392   2.790  1.00  0.00     0.169 HD
HETATM   15  O   UNL     1      39.846 -15.732   2.513  1.00  0.00    -0.267 OA
BRANCH  13  16
HETATM   16  C   UNL     1      42.724 -16.435   2.652  1.00  0.00     0.068 A 
HETATM   17  C   UNL     1      42.925 -17.410   3.640  1.00  0.00     0.095 A 
HETATM   18  C   UNL     1      43.516 -18.639   3.318  1.00  0.00     0.039 A 
HETATM   19  C   UNL     1      43.971 -18.886   2.026  1.00  0.00     0.003 A 
HETATM   20  C   UNL     1      43.835 -17.904   1.050  1.00  0.00     0.002 A 
HETATM   21  C   UNL     1      43.222 -16.687   1.362  1.00  0.00     0.032 A 
BRANCH  17  22
HETATM   22  O   UNL     1      42.598 -17.239   4.958  1.00  0.00    -0.354 OA
HETATM   23  C   UNL     1      41.303 -17.773   5.227  1.00  0.00     0.210 C 
ENDBRANCH  17  22
ENDBRANCH  13  16
ENDBRANCH  10  12
BRANCH   9  24
HETATM   24  C   UNL     1      39.694 -13.012   0.606  1.00  0.00    -0.017 A 
HETATM   25  C   UNL     1      40.407 -13.202  -0.621  1.00  0.00    -0.017 A 
HETATM   26  C   UNL     1      39.706 -13.732  -1.736  1.00  0.00    -0.025 A 
HETATM   27  C   UNL     1      41.776 -12.887  -0.817  1.00  0.00     0.013 A 
HETATM   28  C   UNL     1      40.371 -13.955  -2.954  1.00  0.00     0.012 A 
HETATM   29  C   UNL     1      38.341 -14.026  -1.637  1.00  0.00     0.012 A 
HETATM   30  C   UNL     1      41.721 -13.650  -3.103  1.00  0.00     0.001 A 
HETATM   31  C   UNL     1      42.422 -13.110  -2.037  1.00  0.00     0.001 A 
HETATM   32  C   UNL     1      37.644 -13.796  -0.457  1.00  0.00     0.002 A 
HETATM   33  C   UNL     1      38.310 -13.288   0.650  1.00  0.00     0.010 A 
ENDBRANCH   9  24
TORSDOF 4
ENDMDL
MODEL 7
REMARK VINA RESULT:      -7.5      3.598      7.697
REMARK  4 active torsions:
REMARK  status: ('A' for Active; 'I' for Inactive)
REMARK    1  A    between atoms: C_9  and  C_10 
REMARK    2  A    between atoms: C_20  and  C_21 
REMARK       I    between atoms: C_21  and  N_22 
REMARK    3  A    between atoms: N_22  and  C_23 
REMARK    4  A    between atoms: C_24  and  O_25 
ROOT
HETATM    1  C   UNL     1      45.217 -13.800   6.871  1.00  0.00     0.070 C 
HETATM    2  C   UNL     1      44.257 -14.891   6.455  1.00  0.00     0.037 A 
HETATM    3  N   UNL     1      44.713 -16.190   6.646  1.00  0.00    -0.192 N 
HETATM    4  C   UNL     1      43.987 -17.284   6.360  1.00  0.00     0.725 A 
HETATM    5  N   UNL     1      42.734 -17.135   5.832  1.00  0.00    -0.084 N 
HETATM    6  N   UNL     1      42.098 -18.324   5.751  1.00  0.00    -0.149 NA
HETATM    7  C   UNL     1      43.075 -19.153   6.133  1.00  0.00     0.275 A 
HETATM    8  N   UNL     1      44.244 -18.556   6.527  1.00  0.00    -0.054 NA
HETATM    9  C   UNL     1      42.098 -15.837   5.580  1.00  0.00     0.203 A 
HETATM   10  C   UNL     1      43.017 -14.670   5.947  1.00  0.00     0.062 A 
HETATM   11  H   UNL     1      45.648 -16.312   7.027  1.00  0.00     0.184 HD
ENDROOT
BRANCH  10  12
HETATM   12  C   UNL     1      42.575 -13.273   5.632  1.00  0.00     0.256 C 
HETATM   13  N   UNL     1      41.760 -12.701   6.587  1.00  0.00    -0.321 N 
HETATM   14  H   UNL     1      41.346 -13.306   7.280  1.00  0.00     0.169 HD
HETATM   15  O   UNL     1      42.892 -12.787   4.554  1.00  0.00    -0.267 OA
BRANCH  13  16
HETATM   16  C   UNL     1      41.214 -11.393   6.562  1.00  0.00     0.068 A 
HETATM   17  C   UNL     1      41.677 -10.288   7.294  1.00  0.00     0.095 A 
HETATM   18  C   UNL     1      41.086  -9.029   7.132  1.00  0.00     0.039 A 
HETATM   19  C   UNL     1      39.988  -8.867   6.292  1.00  0.00     0.003 A 
HETATM   20  C   UNL     1      39.478  -9.966   5.608  1.00  0.00     0.002 A 
HETATM   21  C   UNL     1      40.083 -11.219   5.747  1.00  0.00     0.032 A 
BRANCH  17  22
HETATM   22  O   UNL     1      42.690 -10.353   8.212  1.00  0.00    -0.354 OA
HETATM   23  C   UNL     1      42.172 -10.269   9.538  1.00  0.00     0.210 C 
ENDBRANCH  17  22
ENDBRANCH  13  16
ENDBRANCH  10  12
BRANCH   9  24
HETATM   24  C   UNL     1      41.548 -15.786   4.150  1.00  0.00    -0.017 A 
HETATM   25  C   UNL     1      42.257 -16.354   3.044  1.00  0.00    -0.017 A 
HETATM   26  C   UNL     1      41.647 -16.327   1.762  1.00  0.00    -0.025 A 
HETATM   27  C   UNL     1      43.547 -16.940   3.125  1.00  0.00     0.013 A 
HETATM   28  C   UNL     1      42.298 -16.893   0.652  1.00  0.00     0.012 A 
HETATM   29  C   UNL     1      40.395 -15.726   1.589  1.00  0.00     0.012 A 
HETATM   30  C   UNL     1      43.556 -17.475   0.775  1.00  0.00     0.001 A 
HETATM   31  C   UNL     1      44.183 -17.493   2.010  1.00  0.00     0.001 A 
HETATM   32  C   UNL     1      39.732 -15.135   2.658  1.00  0.00     0.002 A 
HETATM   33  C   UNL     1      40.304 -15.157   3.923  1.00  0.00     0.010 A 
ENDBRANCH   9  24
TORSDOF 4
ENDMDL
MODEL 8
REMARK VINA RESULT:      -7.2      2.766      6.379
REMARK  4 active torsions:
REMARK  status: ('A' for Active; 'I' for Inactive)
REMARK    1  A    between atoms: C_9  and  C_10 
REMARK    2  A    between atoms: C_20  and  C_21 
REMARK       I    between atoms: C_21  and  N_22 
REMARK    3  A    between atoms: N_22  and  C_23 
REMARK    4  A    between atoms: C_24  and  O_25 
ROOT
HETATM    1  C   UNL     1      42.174 -18.289   3.160  1.00  0.00     0.070 C 
HETATM    2  C   UNL     1      42.456 -16.952   3.807  1.00  0.00     0.037 A 
HETATM    3  N   UNL     1      43.264 -16.996   4.937  1.00  0.00    -0.192 N 
HETATM    4  C   UNL     1      43.642 -15.906   5.625  1.00  0.00     0.725 A 
HETATM    5  N   UNL     1      43.203 -14.676   5.222  1.00  0.00    -0.084 N 
HETATM    6  N   UNL     1      43.799 -13.691   5.930  1.00  0.00    -0.149 NA
HETATM    7  C   UNL     1      44.488 -14.413   6.822  1.00  0.00     0.275 A 
HETATM    8  N   UNL     1      44.429 -15.773   6.662  1.00  0.00    -0.054 NA
HETATM    9  C   UNL     1      42.356 -14.451   4.044  1.00  0.00     0.203 A 
HETATM   10  C   UNL     1      41.995 -15.762   3.342  1.00  0.00     0.062 A 
HETATM   11  H   UNL     1      43.586 -17.908   5.252  1.00  0.00     0.184 HD
ENDROOT
BRANCH  10  12
HETATM   12  C   UNL     1      41.029 -15.728   2.197  1.00  0.00     0.256 C 
HETATM   13  N   UNL     1      41.508 -15.105   1.063  1.00  0.00    -0.321 N 
HETATM   14  H   UNL     1      42.338 -14.538   1.148  1.00  0.00     0.169 HD
HETATM   15  O   UNL     1      39.900 -16.169   2.369  1.00  0.00    -0.267 OA
BRANCH  13  16
HETATM   16  C   UNL     1      40.825 -14.946  -0.170  1.00  0.00     0.068 A 
HETATM   17  C   UNL     1      39.697 -14.143  -0.394  1.00  0.00     0.095 A 
HETATM   18  C   UNL     1      39.151 -14.023  -1.678  1.00  0.00     0.039 A 
HETATM   19  C   UNL     1      39.682 -14.750  -2.740  1.00  0.00     0.003 A 
HETATM   20  C   UNL     1      40.761 -15.600  -2.521  1.00  0.00     0.002 A 
HETATM   21  C   UNL     1      41.324 -15.701  -1.245  1.00  0.00     0.032 A 
BRANCH  17  22
HETATM   22  O   UNL     1      39.043 -13.455   0.593  1.00  0.00    -0.354 OA
HETATM   23  C   UNL     1      37.722 -13.963   0.768  1.00  0.00     0.210 C 
ENDBRANCH  17  22
ENDBRANCH  13  16
ENDBRANCH  10  12
BRANCH   9  24
HETATM   24  C   UNL     1      41.152 -13.579   4.417  1.00  0.00    -0.017 A 
HETATM   25  C   UNL     1      40.762 -12.448   3.631  1.00  0.00    -0.017 A 
HETATM   26  C   UNL     1      39.593 -11.733   4.004  1.00  0.00    -0.025 A 
HETATM   27  C   UNL     1      41.468 -11.969   2.498  1.00  0.00     0.013 A 
HETATM   28  C   UNL     1      39.161 -10.630   3.248  1.00  0.00     0.012 A 
HETATM   29  C   UNL     1      38.864 -12.115   5.137  1.00  0.00     0.012 A 
HETATM   30  C   UNL     1      39.871 -10.200   2.131  1.00  0.00     0.001 A 
HETATM   31  C   UNL     1      41.028 -10.865   1.760  1.00  0.00     0.001 A 
HETATM   32  C   UNL     1      39.274 -13.186   5.923  1.00  0.00     0.002 A 
HETATM   33  C   UNL     1      40.409 -13.905   5.572  1.00  0.00     0.010 A 
ENDBRANCH   9  24
TORSDOF 4
ENDMDL
MODEL 9
REMARK VINA RESULT:      -7.1      2.431      5.400
REMARK  4 active torsions:
REMARK  status: ('A' for Active; 'I' for Inactive)
REMARK    1  A    between atoms: C_9  and  C_10 
REMARK    2  A    between atoms: C_20  and  C_21 
REMARK       I    between atoms: C_21  and  N_22 
REMARK    3  A    between atoms: N_22  and  C_23 
REMARK    4  A    between atoms: C_24  and  O_25 
ROOT
HETATM    1  C   UNL     1      40.268 -14.749   5.907  1.00  0.00     0.070 C 
HETATM    2  C   UNL     1      40.229 -13.540   5.002  1.00  0.00     0.037 A 
HETATM    3  N   UNL     1      39.213 -12.630   5.266  1.00  0.00    -0.192 N 
HETATM    4  C   UNL     1      39.041 -11.485   4.583  1.00  0.00     0.725 A 
HETATM    5  N   UNL     1      39.890 -11.188   3.553  1.00  0.00    -0.084 N 
HETATM    6  N   UNL     1      39.665  -9.941   3.083  1.00  0.00    -0.149 NA
HETATM    7  C   UNL     1      38.587  -9.600   3.798  1.00  0.00     0.275 A 
HETATM    8  N   UNL     1      38.181 -10.512   4.737  1.00  0.00    -0.054 NA
HETATM    9  C   UNL     1      41.021 -12.032   3.151  1.00  0.00     0.203 A 
HETATM   10  C   UNL     1      41.117 -13.301   4.001  1.00  0.00     0.062 A 
HETATM   11  H   UNL     1      38.568 -12.847   6.022  1.00  0.00     0.184 HD
ENDROOT
BRANCH  10  12
HETATM   12  C   UNL     1      42.137 -14.338   3.642  1.00  0.00     0.256 C 
HETATM   13  N   UNL     1      41.608 -15.546   3.238  1.00  0.00    -0.321 N 
HETATM   14  H   UNL     1      40.633 -15.722   3.425  1.00  0.00     0.169 HD
HETATM   15  O   UNL     1      43.322 -14.074   3.802  1.00  0.00    -0.267 OA
BRANCH  13  16
HETATM   16  C   UNL     1      42.332 -16.692   2.823  1.00  0.00     0.068 A 
HETATM   17  C   UNL     1      42.832 -16.934   1.534  1.00  0.00     0.095 A 
HETATM   18  C   UNL     1      43.588 -18.083   1.267  1.00  0.00     0.039 A 
HETATM   19  C   UNL     1      43.801 -19.034   2.261  1.00  0.00     0.003 A 
HETATM   20  C   UNL     1      43.258 -18.839   3.527  1.00  0.00     0.002 A 
HETATM   21  C   UNL     1      42.525 -17.681   3.803  1.00  0.00     0.032 A 
BRANCH  17  22
HETATM   22  O   UNL     1      42.609 -16.111   0.464  1.00  0.00    -0.354 OA
HETATM   23  C   UNL     1      41.345 -16.394  -0.133  1.00  0.00     0.210 C 
ENDBRANCH  17  22
ENDBRANCH  13  16
ENDBRANCH  10  12
BRANCH   9  24
HETATM   24  C   UNL     1      40.985 -12.283   1.639  1.00  0.00    -0.017 A 
HETATM   25  C   UNL     1      39.853 -12.880   0.997  1.00  0.00    -0.017 A 
HETATM   26  C   UNL     1      39.869 -13.014  -0.417  1.00  0.00    -0.025 A 
HETATM   27  C   UNL     1      38.705 -13.368   1.672  1.00  0.00     0.013 A 
HETATM   28  C   UNL     1      38.770 -13.575  -1.091  1.00  0.00     0.012 A 
HETATM   29  C   UNL     1      40.985 -12.598  -1.153  1.00  0.00     0.012 A 
HETATM   30  C   UNL     1      37.653 -14.026  -0.396  1.00  0.00     0.001 A 
HETATM   31  C   UNL     1      37.622 -13.929   0.986  1.00  0.00     0.001 A 
HETATM   32  C   UNL     1      42.099 -12.062  -0.519  1.00  0.00     0.002 A 
HETATM   33  C   UNL     1      42.103 -11.912   0.862  1.00  0.00     0.010 A 
ENDBRANCH   9  24
TORSDOF 4
ENDMDL
MODEL 10
REMARK VINA RESULT:      -7.1      3.345      5.792
REMARK  4 active torsions:
REMARK  status: ('A' for Active; 'I' for Inactive)
REMARK    1  A    between atoms: C_9  and  C_10 
REMARK    2  A    between atoms: C_20  and  C_21 
REMARK       I    between atoms: C_21  and  N_22 
REMARK    3  A    between atoms: N_22  and  C_23 
REMARK    4  A    between atoms: C_24  and  O_25 
ROOT
HETATM    1  C   UNL     1      40.223 -15.859  -3.314  1.00  0.00     0.070 C 
HETATM    2  C   UNL     1      39.458 -14.677  -2.762  1.00  0.00     0.037 A 
HETATM    3  N   UNL     1      38.538 -14.105  -3.632  1.00  0.00    -0.192 N 
HETATM    4  C   UNL     1      37.750 -13.066  -3.305  1.00  0.00     0.725 A 
HETATM    5  N   UNL     1      37.857 -12.513  -2.059  1.00  0.00    -0.084 N 
HETATM    6  N   UNL     1      36.894 -11.588  -1.854  1.00  0.00    -0.149 NA
HETATM    7  C   UNL     1      36.324 -11.555  -3.065  1.00  0.00     0.275 A 
HETATM    8  N   UNL     1      36.810 -12.453  -3.978  1.00  0.00    -0.054 NA
HETATM    9  C   UNL     1      38.768 -13.003  -1.017  1.00  0.00     0.203 A 
HETATM   10  C   UNL     1      39.607 -14.187  -1.504  1.00  0.00     0.062 A 
HETATM   11  H   UNL     1      38.459 -14.501  -4.565  1.00  0.00     0.184 HD
ENDROOT
BRANCH  10  12
HETATM   12  C   UNL     1      40.681 -14.728  -0.611  1.00  0.00     0.256 C 
HETATM   13  N   UNL     1      40.222 -15.509   0.429  1.00  0.00    -0.321 N 
HETATM   14  H   UNL     1      39.238 -15.474   0.648  1.00  0.00     0.169 HD
HETATM   15  O   UNL     1      41.840 -14.388  -0.814  1.00  0.00    -0.267 OA
BRANCH  13  16
HETATM   16  C   UNL     1      41.009 -16.164   1.410  1.00  0.00     0.068 A 
HETATM   17  C   UNL     1      41.428 -15.621   2.634  1.00  0.00     0.095 A 
HETATM   18  C   UNL     1      42.153 -16.398   3.547  1.00  0.00     0.039 A 
HETATM   19  C   UNL     1      42.524 -17.700   3.226  1.00  0.00     0.003 A 
HETATM   20  C   UNL     1      42.170 -18.232   1.990  1.00  0.00     0.002 A 
HETATM   21  C   UNL     1      41.424 -17.468   1.088  1.00  0.00     0.032 A 
BRANCH  17  22
HETATM   22  O   UNL     1      41.194 -14.327   3.013  1.00  0.00    -0.354 OA
HETATM   23  C   UNL     1      42.296 -13.494   2.658  1.00  0.00     0.210 C 
ENDBRANCH  17  22
ENDBRANCH  13  16
ENDBRANCH  10  12
BRANCH   9  24
HETATM   24  C   UNL     1      39.584 -11.842  -0.438  1.00  0.00    -0.017 A 
HETATM   25  C   UNL     1      39.542 -11.505   0.953  1.00  0.00    -0.017 A 
HETATM   26  C   UNL     1      40.382 -10.460   1.422  1.00  0.00    -0.025 A 
HETATM   27  C   UNL     1      38.706 -12.132   1.911  1.00  0.00     0.013 A 
HETATM   28  C   UNL     1      40.389 -10.110   2.783  1.00  0.00     0.012 A 
HETATM   29  C   UNL     1      41.204  -9.761   0.530  1.00  0.00     0.012 A 
HETATM   30  C   UNL     1      39.567 -10.761   3.698  1.00  0.00     0.001 A 
HETATM   31  C   UNL     1      38.721 -11.768   3.261  1.00  0.00     0.001 A 
HETATM   32  C   UNL     1      41.206 -10.063  -0.826  1.00  0.00     0.002 A 
HETATM   33  C   UNL     1      40.400 -11.086  -1.308  1.00  0.00     0.010 A 
ENDBRANCH   9  24
TORSDOF 4
ENDMDL
