MODEL 1
REMARK VINA RESULT:      -9.4      0.000      0.000
REMARK  6 active torsions:
REMARK  status: ('A' for Active; 'I' for Inactive)
REMARK    1  A    between atoms: C_4  and  N_5 
REMARK       I    between atoms: N_5  and  C_6 
REMARK       I    between atoms: C_6  and  N_16 
REMARK    2  A    between atoms: N_16  and  CA_17 
REMARK    3  A    between atoms: CA_17  and  C_18 
REMARK    4  A    between atoms: CA_17  and  CB_20 
REMARK    5  A    between atoms: C_18  and  O_19 
REMARK    6  A    between atoms: CB_20  and  CG_21 
ROOT
HETATM    1  N   UNK A   0      44.017 -18.228   5.890  1.00  0.00    -0.307 N 
HETATM    2  C   UNK A   0      43.925 -17.055   6.562  1.00  0.00     0.321 C 
HETATM    3  O   UNK A   0      43.775 -17.062   7.782  1.00  0.00    -0.247 OA
HETATM    4  H   UNK A   0      44.011 -19.030   6.520  1.00  0.00     0.170 HD
ATOM      5  N   TRP A   1      44.004 -15.904   5.850  1.00  0.00    -0.336 N 
ATOM      6  H   TRP A   1      44.716 -15.911   5.135  1.00  0.00     0.164 HD
ENDROOT
BRANCH   5   7
ATOM      7  CA  TRP A   1      43.768 -14.594   6.471  1.00  0.00     0.114 C 
BRANCH   7   8
ATOM      8  C   TRP A   1      45.094 -13.997   6.974  1.00  0.00     0.189 C 
BRANCH   8   9
ATOM      9  O   TRP A   1      44.956 -13.530   8.319  1.00  0.00    -0.399 OA
ATOM     10  H   TRP A   1      45.860 -13.374   8.645  1.00  0.00     0.209 HD
ENDBRANCH   8   9
ENDBRANCH   7   8
BRANCH   7  11
ATOM     11  CB  TRP A   1      43.072 -13.643   5.472  1.00  0.00     0.068 C 
BRANCH  11  12
ATOM     12  CG  TRP A   1      41.825 -14.229   4.861  1.00  0.00    -0.028 A 
ATOM     13  CD2 TRP A   1      41.513 -14.321   3.462  1.00  0.00    -0.002 A 
ATOM     14  CE2 TRP A   1      40.255 -14.917   3.349  1.00  0.00     0.042 A 
ATOM     15  CE3 TRP A   1      42.181 -13.948   2.277  1.00  0.00     0.014 A 
ATOM     16  CZ2 TRP A   1      39.633 -15.157   2.119  1.00  0.00     0.030 A 
ATOM     17  NE1 TRP A   1      39.817 -15.179   4.624  1.00  0.00    -0.365 N 
ATOM     18  CH2 TRP A   1      40.318 -14.778   0.962  1.00  0.00     0.002 A 
ATOM     19  CZ3 TRP A   1      41.574 -14.183   1.037  1.00  0.00     0.001 A 
ATOM     20  HE1 TRP A   1      38.925 -15.597   4.849  1.00  0.00     0.165 HD
ATOM     21  CD1 TRP A   1      40.753 -14.781   5.537  1.00  0.00     0.096 A 
ENDBRANCH  11  12
ENDBRANCH   7  11
ENDBRANCH   5   7
BRANCH   1  22
HETATM   22  C   UNK A   0      43.971 -18.617   4.527  1.00  0.00     0.066 A 
HETATM   23  C   UNK A   0      43.629 -17.772   3.464  1.00  0.00     0.038 A 
HETATM   24  C   UNK A   0      43.595 -18.246   2.146  1.00  0.00    -0.059 A 
HETATM   25  C   UNK A   0      43.214 -17.340   1.013  1.00  0.00     0.048 C 
HETATM   26  C   UNK A   0      43.873 -19.592   1.904  1.00  0.00     0.020 A 
HETATM   27  C   UNK A   0      44.193 -20.457   2.961  1.00  0.00    -0.005 A 
HETATM   28  C   UNK A   0      44.253 -19.975   4.286  1.00  0.00     0.093 A 
HETATM   29  C   UNK A   0      44.447 -21.816   2.734  1.00  0.00     0.015 A 
HETATM   30  N   UNK A   0      44.552 -20.796   5.322  1.00  0.00    -0.258 NA
HETATM   31  C   UNK A   0      44.788 -22.101   5.064  1.00  0.00     0.117 A 
HETATM   32  C   UNK A   0      44.746 -22.653   3.799  1.00  0.00     0.020 A 
ENDBRANCH   1  22
TORSDOF 6
ENDMDL
MODEL 2
REMARK VINA RESULT:      -8.6      3.305      7.963
REMARK  6 active torsions:
REMARK  status: ('A' for Active; 'I' for Inactive)
REMARK    1  A    between atoms: C_4  and  N_5 
REMARK       I    between atoms: N_5  and  C_6 
REMARK       I    between atoms: C_6  and  N_16 
REMARK    2  A    between atoms: N_16  and  CA_17 
REMARK    3  A    between atoms: CA_17  and  C_18 
REMARK    4  A    between atoms: CA_17  and  CB_20 
REMARK    5  A    between atoms: C_18  and  O_19 
REMARK    6  A    between atoms: CB_20  and  CG_21 
ROOT
HETATM    1  N   UNK A   0      41.670 -13.318   1.339  1.00  0.00    -0.307 N 
HETATM    2  C   UNK A   0      41.928 -14.170   2.362  1.00  0.00     0.321 C 
HETATM    3  O   UNK A   0      42.079 -13.728   3.499  1.00  0.00    -0.247 OA
HETATM    4  H   UNK A   0      41.564 -12.357   1.661  1.00  0.00     0.170 HD
ATOM      5  N   TRP A   1      42.009 -15.494   2.084  1.00  0.00    -0.336 N 
ATOM      6  H   TRP A   1      41.302 -15.825   1.446  1.00  0.00     0.164 HD
ENDROOT
BRANCH   5   7
ATOM      7  CA  TRP A   1      42.430 -16.472   3.097  1.00  0.00     0.114 C 
BRANCH   7   8
ATOM      8  C   TRP A   1      41.235 -17.341   3.525  1.00  0.00     0.189 C 
BRANCH   8   9
ATOM      9  O   TRP A   1      40.054 -16.955   2.818  1.00  0.00    -0.399 OA
ATOM     10  H   TRP A   1      40.320 -16.234   2.220  1.00  0.00     0.209 HD
ENDBRANCH   8   9
ENDBRANCH   7   8
BRANCH   7  11
ATOM     11  CB  TRP A   1      43.587 -17.341   2.558  1.00  0.00     0.068 C 
BRANCH  11  12
ATOM     12  CG  TRP A   1      44.029 -18.411   3.522  1.00  0.00    -0.028 A 
ATOM     13  CD2 TRP A   1      44.155 -19.815   3.251  1.00  0.00    -0.002 A 
ATOM     14  CE2 TRP A   1      44.577 -20.436   4.428  1.00  0.00     0.042 A 
ATOM     15  CE3 TRP A   1      43.943 -20.622   2.113  1.00  0.00     0.014 A 
ATOM     16  CZ2 TRP A   1      44.797 -21.815   4.526  1.00  0.00     0.030 A 
ATOM     17  NE1 TRP A   1      44.706 -19.453   5.379  1.00  0.00    -0.365 N 
ATOM     18  CH2 TRP A   1      44.580 -22.589   3.384  1.00  0.00     0.002 A 
ATOM     19  CZ3 TRP A   1      44.160 -22.003   2.193  1.00  0.00     0.001 A 
ATOM     20  HE1 TRP A   1      44.984 -19.615   6.336  1.00  0.00     0.165 HD
ATOM     21  CD1 TRP A   1      44.390 -18.235   4.845  1.00  0.00     0.096 A 
ENDBRANCH  11  12
ENDBRANCH   7  11
ENDBRANCH   5   7
BRANCH   1  22
HETATM   22  C   UNK A   0      41.656 -13.415  -0.076  1.00  0.00     0.066 A 
HETATM   23  C   UNK A   0      41.222 -14.533  -0.798  1.00  0.00     0.038 A 
HETATM   24  C   UNK A   0      41.259 -14.547  -2.198  1.00  0.00    -0.059 A 
HETATM   25  C   UNK A   0      40.805 -15.753  -2.967  1.00  0.00     0.048 C 
HETATM   26  C   UNK A   0      41.771 -13.438  -2.873  1.00  0.00     0.020 A 
HETATM   27  C   UNK A   0      42.234 -12.321  -2.163  1.00  0.00    -0.005 A 
HETATM   28  C   UNK A   0      42.174 -12.295  -0.753  1.00  0.00     0.093 A 
HETATM   29  C   UNK A   0      42.776 -11.213  -2.827  1.00  0.00     0.015 A 
HETATM   30  N   UNK A   0      42.623 -11.228  -0.048  1.00  0.00    -0.258 NA
HETATM   31  C   UNK A   0      43.141 -10.179  -0.724  1.00  0.00     0.117 A 
HETATM   32  C   UNK A   0      43.240 -10.126  -2.100  1.00  0.00     0.020 A 
ENDBRANCH   1  22
TORSDOF 6
ENDMDL
MODEL 3
REMARK VINA RESULT:      -8.4      2.597      4.527
REMARK  6 active torsions:
REMARK  status: ('A' for Active; 'I' for Inactive)
REMARK    1  A    between atoms: C_4  and  N_5 
REMARK       I    between atoms: N_5  and  C_6 
REMARK       I    between atoms: C_6  and  N_16 
REMARK    2  A    between atoms: N_16  and  CA_17 
REMARK    3  A    between atoms: CA_17  and  C_18 
REMARK    4  A    between atoms: CA_17  and  CB_20 
REMARK    5  A    between atoms: C_18  and  O_19 
REMARK    6  A    between atoms: CB_20  and  CG_21 
ROOT
HETATM    1  N   UNK A   0      43.586 -17.658   2.216  1.00  0.00    -0.307 N 
HETATM    2  C   UNK A   0      42.646 -16.705   2.004  1.00  0.00     0.321 C 
HETATM    3  O   UNK A   0      42.709 -16.001   0.997  1.00  0.00    -0.247 OA
HETATM    4  H   UNK A   0      44.243 -17.726   1.440  1.00  0.00     0.170 HD
ATOM      5  N   TRP A   1      41.660 -16.565   2.923  1.00  0.00    -0.336 N 
ATOM      6  H   TRP A   1      41.287 -17.439   3.262  1.00  0.00     0.164 HD
ENDROOT
BRANCH   5   7
ATOM      7  CA  TRP A   1      40.687 -15.466   2.852  1.00  0.00     0.114 C 
BRANCH   7   8
ATOM      8  C   TRP A   1      39.560 -15.818   1.865  1.00  0.00     0.189 C 
BRANCH   8   9
ATOM      9  O   TRP A   1      39.783 -15.187   0.602  1.00  0.00    -0.399 OA
ATOM     10  H   TRP A   1      40.105 -15.885   0.004  1.00  0.00     0.209 HD
ENDBRANCH   8   9
ENDBRANCH   7   8
BRANCH   7  11
ATOM     11  CB  TRP A   1      40.124 -15.155   4.256  1.00  0.00     0.068 C 
BRANCH  11  12
ATOM     12  CG  TRP A   1      41.037 -15.586   5.374  1.00  0.00    -0.028 A 
ATOM     13  CD2 TRP A   1      42.312 -15.018   5.712  1.00  0.00    -0.002 A 
ATOM     14  CE2 TRP A   1      42.816 -15.732   6.801  1.00  0.00     0.042 A 
ATOM     15  CE3 TRP A   1      43.090 -13.964   5.190  1.00  0.00     0.014 A 
ATOM     16  CZ2 TRP A   1      44.052 -15.448   7.392  1.00  0.00     0.030 A 
ATOM     17  NE1 TRP A   1      41.888 -16.695   7.117  1.00  0.00    -0.365 N 
ATOM     18  CH2 TRP A   1      44.802 -14.399   6.855  1.00  0.00     0.002 A 
ATOM     19  CZ3 TRP A   1      44.330 -13.665   5.771  1.00  0.00     0.001 A 
ATOM     20  HE1 TRP A   1      41.995 -17.372   7.859  1.00  0.00     0.165 HD
ATOM     21  CD1 TRP A   1      40.815 -16.611   6.275  1.00  0.00     0.096 A 
ENDBRANCH  11  12
ENDBRANCH   7  11
ENDBRANCH   5   7
BRANCH   1  22
HETATM   22  C   UNK A   0      43.964 -18.475   3.312  1.00  0.00     0.066 A 
HETATM   23  C   UNK A   0      44.263 -18.006   4.597  1.00  0.00     0.038 A 
HETATM   24  C   UNK A   0      44.644 -18.887   5.617  1.00  0.00    -0.059 A 
HETATM   25  C   UNK A   0      44.977 -18.376   6.988  1.00  0.00     0.048 C 
HETATM   26  C   UNK A   0      44.758 -20.248   5.329  1.00  0.00     0.020 A 
HETATM   27  C   UNK A   0      44.486 -20.730   4.041  1.00  0.00    -0.005 A 
HETATM   28  C   UNK A   0      44.077 -19.847   3.018  1.00  0.00     0.093 A 
HETATM   29  C   UNK A   0      44.623 -22.090   3.732  1.00  0.00     0.015 A 
HETATM   30  N   UNK A   0      43.817 -20.293   1.764  1.00  0.00    -0.258 NA
HETATM   31  C   UNK A   0      43.963 -21.611   1.505  1.00  0.00     0.117 A 
HETATM   32  C   UNK A   0      44.361 -22.539   2.445  1.00  0.00     0.020 A 
ENDBRANCH   1  22
TORSDOF 6
ENDMDL
MODEL 4
REMARK VINA RESULT:      -8.4      2.606      7.225
REMARK  6 active torsions:
REMARK  status: ('A' for Active; 'I' for Inactive)
REMARK    1  A    between atoms: C_4  and  N_5 
REMARK       I    between atoms: N_5  and  C_6 
REMARK       I    between atoms: C_6  and  N_16 
REMARK    2  A    between atoms: N_16  and  CA_17 
REMARK    3  A    between atoms: CA_17  and  C_18 
REMARK    4  A    between atoms: CA_17  and  CB_20 
REMARK    5  A    between atoms: C_18  and  O_19 
REMARK    6  A    between atoms: CB_20  and  CG_21 
ROOT
HETATM    1  N   UNK A   0      42.137 -13.412   1.416  1.00  0.00    -0.307 N 
HETATM    2  C   UNK A   0      42.425 -13.903   2.645  1.00  0.00     0.321 C 
HETATM    3  O   UNK A   0      43.457 -13.552   3.215  1.00  0.00    -0.247 OA
HETATM    4  H   UNK A   0      42.820 -12.718   1.112  1.00  0.00     0.170 HD
ATOM      5  N   TRP A   1      41.550 -14.774   3.205  1.00  0.00    -0.336 N 
ATOM      6  H   TRP A   1      40.582 -14.519   3.084  1.00  0.00     0.164 HD
ENDROOT
BRANCH   5   7
ATOM      7  CA  TRP A   1      41.851 -15.469   4.465  1.00  0.00     0.114 C 
BRANCH   7   8
ATOM      8  C   TRP A   1      41.092 -14.810   5.630  1.00  0.00     0.189 C 
BRANCH   8   9
ATOM      9  O   TRP A   1      39.860 -15.492   5.876  1.00  0.00    -0.399 OA
ATOM     10  H   TRP A   1      39.817 -16.217   5.228  1.00  0.00     0.209 HD
ENDBRANCH   8   9
ENDBRANCH   7   8
BRANCH   7  11
ATOM     11  CB  TRP A   1      41.502 -16.969   4.348  1.00  0.00     0.068 C 
BRANCH  11  12
ATOM     12  CG  TRP A   1      42.670 -17.877   4.633  1.00  0.00    -0.028 A 
ATOM     13  CD2 TRP A   1      43.221 -18.872   3.757  1.00  0.00    -0.002 A 
ATOM     14  CE2 TRP A   1      44.280 -19.487   4.430  1.00  0.00     0.042 A 
ATOM     15  CE3 TRP A   1      42.916 -19.315   2.453  1.00  0.00     0.014 A 
ATOM     16  CZ2 TRP A   1      45.044 -20.516   3.869  1.00  0.00     0.030 A 
ATOM     17  NE1 TRP A   1      44.373 -18.892   5.665  1.00  0.00    -0.365 N 
ATOM     18  CH2 TRP A   1      44.720 -20.934   2.576  1.00  0.00     0.002 A 
ATOM     19  CZ3 TRP A   1      43.672 -20.343   1.876  1.00  0.00     0.001 A 
ATOM     20  HE1 TRP A   1      45.045 -19.148   6.375  1.00  0.00     0.165 HD
ATOM     21  CD1 TRP A   1      43.421 -17.920   5.794  1.00  0.00     0.096 A 
ENDBRANCH  11  12
ENDBRANCH   7  11
ENDBRANCH   5   7
BRANCH   1  22
HETATM   22  C   UNK A   0      41.205 -13.730   0.395  1.00  0.00     0.066 A 
HETATM   23  C   UNK A   0      41.504 -14.458  -0.763  1.00  0.00     0.038 A 
HETATM   24  C   UNK A   0      40.522 -14.714  -1.729  1.00  0.00    -0.059 A 
HETATM   25  C   UNK A   0      40.852 -15.482  -2.975  1.00  0.00     0.048 C 
HETATM   26  C   UNK A   0      39.238 -14.200  -1.542  1.00  0.00     0.020 A 
HETATM   27  C   UNK A   0      38.930 -13.448  -0.399  1.00  0.00    -0.005 A 
HETATM   28  C   UNK A   0      39.912 -13.211   0.588  1.00  0.00     0.093 A 
HETATM   29  C   UNK A   0      37.652 -12.903  -0.212  1.00  0.00     0.015 A 
HETATM   30  N   UNK A   0      39.636 -12.480   1.695  1.00  0.00    -0.258 NA
HETATM   31  C   UNK A   0      38.393 -11.969   1.838  1.00  0.00     0.117 A 
HETATM   32  C   UNK A   0      37.378 -12.150   0.920  1.00  0.00     0.020 A 
ENDBRANCH   1  22
TORSDOF 6
ENDMDL
MODEL 5
REMARK VINA RESULT:      -8.3      3.513      5.479
REMARK  6 active torsions:
REMARK  status: ('A' for Active; 'I' for Inactive)
REMARK    1  A    between atoms: C_4  and  N_5 
REMARK       I    between atoms: N_5  and  C_6 
REMARK       I    between atoms: C_6  and  N_16 
REMARK    2  A    between atoms: N_16  and  CA_17 
REMARK    3  A    between atoms: CA_17  and  C_18 
REMARK    4  A    between atoms: CA_17  and  CB_20 
REMARK    5  A    between atoms: C_18  and  O_19 
REMARK    6  A    between atoms: CB_20  and  CG_21 
ROOT
HETATM    1  N   UNK A   0      40.512 -16.683   2.971  1.00  0.00    -0.307 N 
HETATM    2  C   UNK A   0      40.222 -15.489   2.399  1.00  0.00     0.321 C 
HETATM    3  O   UNK A   0      39.055 -15.208   2.134  1.00  0.00    -0.247 OA
HETATM    4  H   UNK A   0      39.671 -17.218   3.185  1.00  0.00     0.170 HD
ATOM      5  N   TRP A   1      41.246 -14.641   2.139  1.00  0.00    -0.336 N 
ATOM      6  H   TRP A   1      41.931 -14.584   2.877  1.00  0.00     0.164 HD
ENDROOT
BRANCH   5   7
ATOM      7  CA  TRP A   1      41.045 -13.393   1.388  1.00  0.00     0.114 C 
BRANCH   7   8
ATOM      8  C   TRP A   1      41.977 -12.294   1.925  1.00  0.00     0.189 C 
BRANCH   8   9
ATOM      9  O   TRP A   1      42.656 -11.641   0.850  1.00  0.00    -0.399 OA
ATOM     10  H   TRP A   1      43.521 -12.080   0.769  1.00  0.00     0.209 HD
ENDBRANCH   8   9
ENDBRANCH   7   8
BRANCH   7  11
ATOM     11  CB  TRP A   1      41.273 -13.631  -0.121  1.00  0.00     0.068 C 
BRANCH  11  12
ATOM     12  CG  TRP A   1      39.996 -13.662  -0.920  1.00  0.00    -0.028 A 
ATOM     13  CD2 TRP A   1      39.692 -14.529  -2.023  1.00  0.00    -0.002 A 
ATOM     14  CE2 TRP A   1      38.410 -14.205  -2.473  1.00  0.00     0.042 A 
ATOM     15  CE3 TRP A   1      40.389 -15.558  -2.690  1.00  0.00     0.014 A 
ATOM     16  CZ2 TRP A   1      37.793 -14.853  -3.549  1.00  0.00     0.030 A 
ATOM     17  NE1 TRP A   1      37.949 -13.184  -1.677  1.00  0.00    -0.365 N 
ATOM     18  CH2 TRP A   1      38.507 -15.868  -4.189  1.00  0.00     0.002 A 
ATOM     19  CZ3 TRP A   1      39.786 -16.218  -3.767  1.00  0.00     0.001 A 
ATOM     20  HE1 TRP A   1      37.049 -12.737  -1.783  1.00  0.00     0.165 HD
ATOM     21  CD1 TRP A   1      38.886 -12.858  -0.737  1.00  0.00     0.096 A 
ENDBRANCH  11  12
ENDBRANCH   7  11
ENDBRANCH   5   7
BRANCH   1  22
HETATM   22  C   UNK A   0      41.696 -17.426   3.210  1.00  0.00     0.066 A 
HETATM   23  C   UNK A   0      42.170 -18.462   2.395  1.00  0.00     0.038 A 
HETATM   24  C   UNK A   0      43.344 -19.154   2.717  1.00  0.00    -0.059 A 
HETATM   25  C   UNK A   0      43.840 -20.272   1.848  1.00  0.00     0.048 C 
HETATM   26  C   UNK A   0      44.026 -18.822   3.889  1.00  0.00     0.020 A 
HETATM   27  C   UNK A   0      43.550 -17.805   4.728  1.00  0.00    -0.005 A 
HETATM   28  C   UNK A   0      42.381 -17.089   4.393  1.00  0.00     0.093 A 
HETATM   29  C   UNK A   0      44.211 -17.480   5.921  1.00  0.00     0.015 A 
HETATM   30  N   UNK A   0      41.901 -16.107   5.194  1.00  0.00    -0.258 NA
HETATM   31  C   UNK A   0      42.564 -15.825   6.338  1.00  0.00     0.117 A 
HETATM   32  C   UNK A   0      43.710 -16.479   6.741  1.00  0.00     0.020 A 
ENDBRANCH   1  22
TORSDOF 6
ENDMDL
MODEL 6
REMARK VINA RESULT:      -8.2      3.228      5.002
REMARK  6 active torsions:
REMARK  status: ('A' for Active; 'I' for Inactive)
REMARK    1  A    between atoms: C_4  and  N_5 
REMARK       I    between atoms: N_5  and  C_6 
REMARK       I    between atoms: C_6  and  N_16 
REMARK    2  A    between atoms: N_16  and  CA_17 
REMARK    3  A    between atoms: CA_17  and  C_18 
REMARK    4  A    between atoms: CA_17  and  CB_20 
REMARK    5  A    between atoms: C_18  and  O_19 
REMARK    6  A    between atoms: CB_20  and  CG_21 
ROOT
HETATM    1  N   UNK A   0      41.669 -17.161   1.419  1.00  0.00    -0.307 N 
HETATM    2  C   UNK A   0      40.986 -16.230   0.708  1.00  0.00     0.321 C 
HETATM    3  O   UNK A   0      41.214 -16.093  -0.493  1.00  0.00    -0.247 OA
HETATM    4  H   UNK A   0      42.287 -17.715   0.828  1.00  0.00     0.170 HD
ATOM      5  N   TRP A   1      40.066 -15.478   1.359  1.00  0.00    -0.336 N 
ATOM      6  H   TRP A   1      39.493 -15.998   2.006  1.00  0.00     0.164 HD
ENDROOT
BRANCH   5   7
ATOM      7  CA  TRP A   1      39.387 -14.350   0.706  1.00  0.00     0.114 C 
BRANCH   7   8
ATOM      8  C   TRP A   1      37.880 -14.386   1.015  1.00  0.00     0.189 C 
BRANCH   8   9
ATOM      9  O   TRP A   1      37.285 -13.110   0.765  1.00  0.00    -0.399 OA
ATOM     10  H   TRP A   1      37.766 -12.731   0.008  1.00  0.00     0.209 HD
ENDBRANCH   8   9
ENDBRANCH   7   8
BRANCH   7  11
ATOM     11  CB  TRP A   1      40.017 -13.013   1.151  1.00  0.00     0.068 C 
BRANCH  11  12
ATOM     12  CG  TRP A   1      40.331 -12.962   2.624  1.00  0.00    -0.028 A 
ATOM     13  CD2 TRP A   1      41.574 -13.310   3.252  1.00  0.00    -0.002 A 
ATOM     14  CE2 TRP A   1      41.417 -13.129   4.628  1.00  0.00     0.042 A 
ATOM     15  CE3 TRP A   1      42.822 -13.768   2.781  1.00  0.00     0.014 A 
ATOM     16  CZ2 TRP A   1      42.437 -13.383   5.552  1.00  0.00     0.030 A 
ATOM     17  NE1 TRP A   1      40.132 -12.689   4.833  1.00  0.00    -0.365 N 
ATOM     18  CH2 TRP A   1      43.662 -13.835   5.056  1.00  0.00     0.002 A 
ATOM     19  CZ3 TRP A   1      43.855 -14.025   3.691  1.00  0.00     0.001 A 
ATOM     20  HE1 TRP A   1      39.732 -12.489   5.739  1.00  0.00     0.165 HD
ATOM     21  CD1 TRP A   1      39.475 -12.575   3.639  1.00  0.00     0.096 A 
ENDBRANCH  11  12
ENDBRANCH   7  11
ENDBRANCH   5   7
BRANCH   1  22
HETATM   22  C   UNK A   0      41.841 -17.451   2.796  1.00  0.00     0.066 A 
HETATM   23  C   UNK A   0      41.155 -16.818   3.840  1.00  0.00     0.038 A 
HETATM   24  C   UNK A   0      41.401 -17.159   5.177  1.00  0.00    -0.059 A 
HETATM   25  C   UNK A   0      40.674 -16.468   6.292  1.00  0.00     0.048 C 
HETATM   26  C   UNK A   0      42.371 -18.121   5.463  1.00  0.00     0.020 A 
HETATM   27  C   UNK A   0      43.084 -18.746   4.429  1.00  0.00    -0.005 A 
HETATM   28  C   UNK A   0      42.820 -18.422   3.080  1.00  0.00     0.093 A 
HETATM   29  C   UNK A   0      44.080 -19.693   4.704  1.00  0.00     0.015 A 
HETATM   30  N   UNK A   0      43.503 -19.009   2.068  1.00  0.00    -0.258 NA
HETATM   31  C   UNK A   0      44.458 -19.915   2.373  1.00  0.00     0.117 A 
HETATM   32  C   UNK A   0      44.780 -20.285   3.663  1.00  0.00     0.020 A 
ENDBRANCH   1  22
TORSDOF 6
ENDMDL
MODEL 7
REMARK VINA RESULT:      -8.1      2.890      7.315
REMARK  6 active torsions:
REMARK  status: ('A' for Active; 'I' for Inactive)
REMARK    1  A    between atoms: C_4  and  N_5 
REMARK       I    between atoms: N_5  and  C_6 
REMARK       I    between atoms: C_6  and  N_16 
REMARK    2  A    between atoms: N_16  and  CA_17 
REMARK    3  A    between atoms: CA_17  and  C_18 
REMARK    4  A    between atoms: CA_17  and  CB_20 
REMARK    5  A    between atoms: C_18  and  O_19 
REMARK    6  A    between atoms: CB_20  and  CG_21 
ROOT
HETATM    1  N   UNK A   0      42.102 -13.276   1.441  1.00  0.00    -0.307 N 
HETATM    2  C   UNK A   0      42.465 -13.889   2.595  1.00  0.00     0.321 C 
HETATM    3  O   UNK A   0      43.630 -13.816   2.982  1.00  0.00    -0.247 OA
HETATM    4  H   UNK A   0      42.870 -12.742   1.034  1.00  0.00     0.170 HD
ATOM      5  N   TRP A   1      41.515 -14.565   3.284  1.00  0.00    -0.336 N 
ATOM      6  H   TRP A   1      40.627 -14.089   3.336  1.00  0.00     0.164 HD
ENDROOT
BRANCH   5   7
ATOM      7  CA  TRP A   1      41.847 -15.380   4.461  1.00  0.00     0.114 C 
BRANCH   7   8
ATOM      8  C   TRP A   1      41.065 -14.882   5.689  1.00  0.00     0.189 C 
BRANCH   8   9
ATOM      9  O   TRP A   1      40.091 -15.849   6.091  1.00  0.00    -0.399 OA
ATOM     10  H   TRP A   1      40.590 -16.646   6.344  1.00  0.00     0.209 HD
ENDBRANCH   8   9
ENDBRANCH   7   8
BRANCH   7  11
ATOM     11  CB  TRP A   1      41.558 -16.871   4.182  1.00  0.00     0.068 C 
BRANCH  11  12
ATOM     12  CG  TRP A   1      42.723 -17.773   4.496  1.00  0.00    -0.028 A 
ATOM     13  CD2 TRP A   1      43.242 -18.828   3.672  1.00  0.00    -0.002 A 
ATOM     14  CE2 TRP A   1      44.310 -19.412   4.356  1.00  0.00     0.042 A 
ATOM     15  CE3 TRP A   1      42.899 -19.349   2.407  1.00  0.00     0.014 A 
ATOM     16  CZ2 TRP A   1      45.050 -20.484   3.844  1.00  0.00     0.030 A 
ATOM     17  NE1 TRP A   1      44.440 -18.741   5.548  1.00  0.00    -0.365 N 
ATOM     18  CH2 TRP A   1      44.689 -20.978   2.588  1.00  0.00     0.002 A 
ATOM     19  CZ3 TRP A   1      43.630 -20.420   1.878  1.00  0.00     0.001 A 
ATOM     20  HE1 TRP A   1      45.127 -18.960   6.256  1.00  0.00     0.165 HD
ATOM     21  CD1 TRP A   1      43.502 -17.752   5.638  1.00  0.00     0.096 A 
ENDBRANCH  11  12
ENDBRANCH   7  11
ENDBRANCH   5   7
BRANCH   1  22
HETATM   22  C   UNK A   0      40.967 -13.315   0.592  1.00  0.00     0.066 A 
HETATM   23  C   UNK A   0      39.657 -13.566   1.017  1.00  0.00     0.038 A 
HETATM   24  C   UNK A   0      38.595 -13.602   0.104  1.00  0.00    -0.059 A 
HETATM   25  C   UNK A   0      37.195 -13.885   0.563  1.00  0.00     0.048 C 
HETATM   26  C   UNK A   0      38.864 -13.418  -1.253  1.00  0.00     0.020 A 
HETATM   27  C   UNK A   0      40.174 -13.191  -1.697  1.00  0.00    -0.005 A 
HETATM   28  C   UNK A   0      41.242 -13.129  -0.776  1.00  0.00     0.093 A 
HETATM   29  C   UNK A   0      40.461 -13.032  -3.060  1.00  0.00     0.015 A 
HETATM   30  N   UNK A   0      42.516 -12.918  -1.186  1.00  0.00    -0.258 NA
HETATM   31  C   UNK A   0      42.753 -12.773  -2.508  1.00  0.00     0.117 A 
HETATM   32  C   UNK A   0      41.768 -12.823  -3.475  1.00  0.00     0.020 A 
ENDBRANCH   1  22
TORSDOF 6
ENDMDL
MODEL 8
REMARK VINA RESULT:      -8.1      2.831      4.600
REMARK  6 active torsions:
REMARK  status: ('A' for Active; 'I' for Inactive)
REMARK    1  A    between atoms: C_4  and  N_5 
REMARK       I    between atoms: N_5  and  C_6 
REMARK       I    between atoms: C_6  and  N_16 
REMARK    2  A    between atoms: N_16  and  CA_17 
REMARK    3  A    between atoms: CA_17  and  C_18 
REMARK    4  A    between atoms: CA_17  and  CB_20 
REMARK    5  A    between atoms: C_18  and  O_19 
REMARK    6  A    between atoms: CB_20  and  CG_21 
ROOT
HETATM    1  N   UNK A   0      40.906 -16.035   5.204  1.00  0.00    -0.307 N 
HETATM    2  C   UNK A   0      40.450 -14.914   4.594  1.00  0.00     0.321 C 
HETATM    3  O   UNK A   0      39.452 -14.345   5.032  1.00  0.00    -0.247 OA
HETATM    4  H   UNK A   0      40.372 -16.258   6.043  1.00  0.00     0.170 HD
ATOM      5  N   TRP A   1      41.124 -14.458   3.510  1.00  0.00    -0.336 N 
ATOM      6  H   TRP A   1      42.127 -14.491   3.606  1.00  0.00     0.164 HD
ENDROOT
BRANCH   5   7
ATOM      7  CA  TRP A   1      40.620 -13.340   2.700  1.00  0.00     0.114 C 
BRANCH   7   8
ATOM      8  C   TRP A   1      41.789 -12.607   2.020  1.00  0.00     0.189 C 
BRANCH   8   9
ATOM      9  O   TRP A   1      43.034 -12.992   2.608  1.00  0.00    -0.399 OA
ATOM     10  H   TRP A   1      43.527 -12.167   2.762  1.00  0.00     0.209 HD
ENDBRANCH   8   9
ENDBRANCH   7   8
BRANCH   7  11
ATOM     11  CB  TRP A   1      39.598 -13.848   1.660  1.00  0.00     0.068 C 
BRANCH  11  12
ATOM     12  CG  TRP A   1      40.233 -14.587   0.511  1.00  0.00    -0.028 A 
ATOM     13  CD2 TRP A   1      40.275 -14.171  -0.862  1.00  0.00    -0.002 A 
ATOM     14  CE2 TRP A   1      40.946 -15.161  -1.583  1.00  0.00     0.042 A 
ATOM     15  CE3 TRP A   1      39.799 -13.044  -1.565  1.00  0.00     0.014 A 
ATOM     16  CZ2 TRP A   1      41.164 -15.083  -2.963  1.00  0.00     0.030 A 
ATOM     17  NE1 TRP A   1      41.300 -16.141  -0.688  1.00  0.00    -0.365 N 
ATOM     18  CH2 TRP A   1      40.682 -13.956  -3.633  1.00  0.00     0.002 A 
ATOM     19  CZ3 TRP A   1      40.010 -12.950  -2.947  1.00  0.00     0.001 A 
ATOM     20  HE1 TRP A   1      41.788 -16.991  -0.933  1.00  0.00     0.165 HD
ATOM     21  CD1 TRP A   1      40.888 -15.803   0.570  1.00  0.00     0.096 A 
ENDBRANCH  11  12
ENDBRANCH   7  11
ENDBRANCH   5   7
BRANCH   1  22
HETATM   22  C   UNK A   0      41.845 -17.048   4.881  1.00  0.00     0.066 A 
HETATM   23  C   UNK A   0      41.973 -17.650   3.624  1.00  0.00     0.038 A 
HETATM   24  C   UNK A   0      42.920 -18.658   3.398  1.00  0.00    -0.059 A 
HETATM   25  C   UNK A   0      43.043 -19.309   2.053  1.00  0.00     0.048 C 
HETATM   26  C   UNK A   0      43.719 -19.085   4.460  1.00  0.00     0.020 A 
HETATM   27  C   UNK A   0      43.585 -18.509   5.731  1.00  0.00    -0.005 A 
HETATM   28  C   UNK A   0      42.649 -17.476   5.954  1.00  0.00     0.093 A 
HETATM   29  C   UNK A   0      44.363 -18.948   6.812  1.00  0.00     0.015 A 
HETATM   30  N   UNK A   0      42.499 -16.912   7.177  1.00  0.00    -0.258 NA
HETATM   31  C   UNK A   0      43.265 -17.364   8.195  1.00  0.00     0.117 A 
HETATM   32  C   UNK A   0      44.200 -18.371   8.063  1.00  0.00     0.020 A 
ENDBRANCH   1  22
TORSDOF 6
ENDMDL
MODEL 9
REMARK VINA RESULT:      -8.0      3.664      8.026
REMARK  6 active torsions:
REMARK  status: ('A' for Active; 'I' for Inactive)
REMARK    1  A    between atoms: C_4  and  N_5 
REMARK       I    between atoms: N_5  and  C_6 
REMARK       I    between atoms: C_6  and  N_16 
REMARK    2  A    between atoms: N_16  and  CA_17 
REMARK    3  A    between atoms: CA_17  and  C_18 
REMARK    4  A    between atoms: CA_17  and  CB_20 
REMARK    5  A    between atoms: C_18  and  O_19 
REMARK    6  A    between atoms: CB_20  and  CG_21 
ROOT
HETATM    1  N   UNK A   0      40.745 -15.399  -0.594  1.00  0.00    -0.307 N 
HETATM    2  C   UNK A   0      41.634 -15.850   0.324  1.00  0.00     0.321 C 
HETATM    3  O   UNK A   0      42.013 -17.019   0.281  1.00  0.00    -0.247 OA
HETATM    4  H   UNK A   0      40.526 -16.107  -1.294  1.00  0.00     0.170 HD
ATOM      5  N   TRP A   1      42.076 -14.981   1.265  1.00  0.00    -0.336 N 
ATOM      6  H   TRP A   1      42.289 -14.062   0.908  1.00  0.00     0.164 HD
ENDROOT
BRANCH   5   7
ATOM      7  CA  TRP A   1      42.923 -15.418   2.384  1.00  0.00     0.114 C 
BRANCH   7   8
ATOM      8  C   TRP A   1      43.362 -14.205   3.223  1.00  0.00     0.189 C 
BRANCH   8   9
ATOM      9  O   TRP A   1      43.003 -12.985   2.569  1.00  0.00    -0.399 OA
ATOM     10  H   TRP A   1      43.369 -13.043   1.669  1.00  0.00     0.209 HD
ENDBRANCH   8   9
ENDBRANCH   7   8
BRANCH   7  11
ATOM     11  CB  TRP A   1      42.176 -16.455   3.250  1.00  0.00     0.068 C 
BRANCH  11  12
ATOM     12  CG  TRP A   1      43.087 -17.485   3.866  1.00  0.00    -0.028 A 
ATOM     13  CD2 TRP A   1      43.440 -18.763   3.315  1.00  0.00    -0.002 A 
ATOM     14  CE2 TRP A   1      44.293 -19.393   4.224  1.00  0.00     0.042 A 
ATOM     15  CE3 TRP A   1      43.110 -19.449   2.128  1.00  0.00     0.014 A 
ATOM     16  CZ2 TRP A   1      44.829 -20.668   4.008  1.00  0.00     0.030 A 
ATOM     17  NE1 TRP A   1      44.455 -18.537   5.286  1.00  0.00    -0.365 N 
ATOM     18  CH2 TRP A   1      44.485 -21.323   2.824  1.00  0.00     0.002 A 
ATOM     19  CZ3 TRP A   1      43.639 -20.725   1.895  1.00  0.00     0.001 A 
ATOM     20  HE1 TRP A   1      45.013 -18.738   6.104  1.00  0.00     0.165 HD
ATOM     21  CD1 TRP A   1      43.746 -17.387   5.078  1.00  0.00     0.096 A 
ENDBRANCH  11  12
ENDBRANCH   7  11
ENDBRANCH   5   7
BRANCH   1  22
HETATM   22  C   UNK A   0      39.940 -14.240  -0.734  1.00  0.00     0.066 A 
HETATM   23  C   UNK A   0      38.830 -13.934   0.063  1.00  0.00     0.038 A 
HETATM   24  C   UNK A   0      38.081 -12.771  -0.157  1.00  0.00    -0.059 A 
HETATM   25  C   UNK A   0      36.885 -12.456   0.691  1.00  0.00     0.048 C 
HETATM   26  C   UNK A   0      38.434 -11.928  -1.212  1.00  0.00     0.020 A 
HETATM   27  C   UNK A   0      39.528 -12.233  -2.035  1.00  0.00    -0.005 A 
HETATM   28  C   UNK A   0      40.299 -13.392  -1.799  1.00  0.00     0.093 A 
HETATM   29  C   UNK A   0      39.876 -11.410  -3.114  1.00  0.00     0.015 A 
HETATM   30  N   UNK A   0      41.355 -13.708  -2.587  1.00  0.00    -0.258 NA
HETATM   31  C   UNK A   0      41.658 -12.891  -3.620  1.00  0.00     0.117 A 
HETATM   32  C   UNK A   0      40.954 -11.743  -3.922  1.00  0.00     0.020 A 
ENDBRANCH   1  22
TORSDOF 6
ENDMDL
MODEL 10
REMARK VINA RESULT:      -8.0      3.098      4.790
REMARK  6 active torsions:
REMARK  status: ('A' for Active; 'I' for Inactive)
REMARK    1  A    between atoms: C_4  and  N_5 
REMARK       I    between atoms: N_5  and  C_6 
REMARK       I    between atoms: C_6  and  N_16 
REMARK    2  A    between atoms: N_16  and  CA_17 
REMARK    3  A    between atoms: CA_17  and  C_18 
REMARK    4  A    between atoms: CA_17  and  CB_20 
REMARK    5  A    between atoms: C_18  and  O_19 
REMARK    6  A    between atoms: CB_20  and  CG_21 
ROOT
HETATM    1  N   UNK A   0      40.555 -16.879   3.556  1.00  0.00    -0.307 N 
HETATM    2  C   UNK A   0      40.318 -15.705   2.922  1.00  0.00     0.321 C 
HETATM    3  O   UNK A   0      39.433 -15.640   2.070  1.00  0.00    -0.247 OA
HETATM    4  H   UNK A   0      39.892 -17.603   3.280  1.00  0.00     0.170 HD
ATOM      5  N   TRP A   1      41.077 -14.634   3.259  1.00  0.00    -0.336 N 
ATOM      6  H   TRP A   1      41.236 -14.538   4.250  1.00  0.00     0.164 HD
ENDROOT
BRANCH   5   7
ATOM      7  CA  TRP A   1      40.991 -13.364   2.523  1.00  0.00     0.114 C 
BRANCH   7   8
ATOM      8  C   TRP A   1      40.752 -12.199   3.500  1.00  0.00     0.189 C 
BRANCH   8   9
ATOM      9  O   TRP A   1      41.994 -11.702   4.003  1.00  0.00    -0.399 OA
ATOM     10  H   TRP A   1      42.667 -11.935   3.340  1.00  0.00     0.209 HD
ENDBRANCH   8   9
ENDBRANCH   7   8
BRANCH   7  11
ATOM     11  CB  TRP A   1      42.270 -13.139   1.688  1.00  0.00     0.068 C 
BRANCH  11  12
ATOM     12  CG  TRP A   1      41.990 -12.781   0.252  1.00  0.00    -0.028 A 
ATOM     13  CD2 TRP A   1      41.579 -13.675  -0.794  1.00  0.00    -0.002 A 
ATOM     14  CE2 TRP A   1      41.450 -12.925  -1.964  1.00  0.00     0.042 A 
ATOM     15  CE3 TRP A   1      41.309 -15.058  -0.858  1.00  0.00     0.014 A 
ATOM     16  CZ2 TRP A   1      41.067 -13.483  -3.189  1.00  0.00     0.030 A 
ATOM     17  NE1 TRP A   1      41.767 -11.626  -1.648  1.00  0.00    -0.365 N 
ATOM     18  CH2 TRP A   1      40.806 -14.854  -3.223  1.00  0.00     0.002 A 
ATOM     19  CZ3 TRP A   1      40.923 -15.633  -2.076  1.00  0.00     0.001 A 
ATOM     20  HE1 TRP A   1      41.774 -10.861  -2.308  1.00  0.00     0.165 HD
ATOM     21  CD1 TRP A   1      42.083 -11.527  -0.322  1.00  0.00     0.096 A 
ENDBRANCH  11  12
ENDBRANCH   7  11
ENDBRANCH   5   7
BRANCH   1  22
HETATM   22  C   UNK A   0      41.584 -17.384   4.392  1.00  0.00     0.066 A 
HETATM   23  C   UNK A   0      41.762 -17.043   5.738  1.00  0.00     0.038 A 
HETATM   24  C   UNK A   0      42.817 -17.580   6.486  1.00  0.00    -0.059 A 
HETATM   25  C   UNK A   0      43.011 -17.199   7.924  1.00  0.00     0.048 C 
HETATM   26  C   UNK A   0      43.721 -18.441   5.861  1.00  0.00     0.020 A 
HETATM   27  C   UNK A   0      43.570 -18.772   4.507  1.00  0.00    -0.005 A 
HETATM   28  C   UNK A   0      42.492 -18.252   3.758  1.00  0.00     0.093 A 
HETATM   29  C   UNK A   0      44.486 -19.614   3.860  1.00  0.00     0.015 A 
HETATM   30  N   UNK A   0      42.334 -18.555   2.446  1.00  0.00    -0.258 NA
HETATM   31  C   UNK A   0      43.239 -19.367   1.857  1.00  0.00     0.117 A 
HETATM   32  C   UNK A   0      44.322 -19.914   2.515  1.00  0.00     0.020 A 
ENDBRANCH   1  22
TORSDOF 6
ENDMDL
