MODEL 1
REMARK VINA RESULT:      -7.8      0.000      0.000
REMARK  4 active torsions:
REMARK  status: ('A' for Active; 'I' for Inactive)
REMARK    1  A    between atoms: C_2  and  C_3 
REMARK    2  A    between atoms: C_5  and  C_6 
REMARK       I    between atoms: C_6  and  N_7 
REMARK    3  A    between atoms: N_7  and  C_8 
REMARK    4  A    between atoms: C_10  and  C_11 
ROOT
HETATM    1  C   UNL     1      43.327 -17.799   2.706  1.00  0.00     0.035 A 
HETATM    2  C   UNL     1      43.270 -17.508   4.073  1.00  0.00     0.042 A 
HETATM    3  C   UNL     1      43.770 -18.407   5.032  1.00  0.00    -0.021 A 
HETATM    4  C   UNL     1      44.315 -19.621   4.596  1.00  0.00     0.012 A 
HETATM    5  C   UNL     1      44.368 -19.926   3.235  1.00  0.00     0.003 A 
HETATM    6  C   UNL     1      43.880 -19.017   2.296  1.00  0.00     0.029 A 
ENDROOT
BRANCH   1   7
HETATM    7  N   UNL     1      42.874 -16.930   1.696  1.00  0.00    -0.321 N 
HETATM    8  C   UNL     1      41.586 -16.757   1.220  1.00  0.00     0.280 C 
HETATM    9  O   UNL     1      40.602 -17.398   1.574  1.00  0.00    -0.265 OA
HETATM   10  H   UNL     1      43.565 -16.330   1.257  1.00  0.00     0.169 HD
BRANCH   8  11
HETATM   11  C   UNL     1      41.499 -15.703   0.223  1.00  0.00     0.144 A 
HETATM   12  O   UNL     1      41.186 -16.021  -1.073  1.00  0.00    -0.309 OA
HETATM   13  C   UNL     1      41.208 -14.863  -1.792  1.00  0.00     0.059 A 
HETATM   14  C   UNL     1      41.516 -13.791  -0.974  1.00  0.00    -0.029 A 
HETATM   15  C   UNL     1      41.699 -14.341   0.324  1.00  0.00     0.052 A 
HETATM   16  C   UNL     1      41.639 -12.365  -1.367  1.00  0.00     0.050 C 
BRANCH  13  17
HETATM   17  C   UNL     1      40.924 -14.990  -3.246  1.00  0.00     0.061 C 
HETATM   18  C   UNL     1      39.779 -15.953  -3.512  1.00  0.00     0.012 C 
ENDBRANCH  13  17
ENDBRANCH   8  11
ENDBRANCH   1   7
BRANCH   3  19
HETATM   19  C   UNL     1      43.733 -18.091   6.452  1.00  0.00     0.010 A 
HETATM   20  C   UNL     1      43.466 -16.874   7.127  1.00  0.00     0.152 A 
HETATM   21  N   UNL     1      43.506 -16.995   8.457  1.00  0.00    -0.187 NA
HETATM   22  N   UNL     1      43.803 -18.291   8.643  1.00  0.00    -0.289 N 
HETATM   23  H   UNL     1      43.890 -18.634   9.593  1.00  0.00     0.188 HD
HETATM   24  C   UNL     1      43.942 -18.990   7.479  1.00  0.00     0.123 A 
ENDBRANCH   3  19
TORSDOF 4
ENDMDL
MODEL 2
REMARK VINA RESULT:      -7.8      2.198      3.144
REMARK  4 active torsions:
REMARK  status: ('A' for Active; 'I' for Inactive)
REMARK    1  A    between atoms: C_2  and  C_3 
REMARK    2  A    between atoms: C_5  and  C_6 
REMARK       I    between atoms: C_6  and  N_7 
REMARK    3  A    between atoms: N_7  and  C_8 
REMARK    4  A    between atoms: C_10  and  C_11 
ROOT
HETATM    1  C   UNL     1      43.298 -17.327   2.775  1.00  0.00     0.035 A 
HETATM    2  C   UNL     1      43.635 -18.679   2.645  1.00  0.00     0.042 A 
HETATM    3  C   UNL     1      44.036 -19.441   3.757  1.00  0.00    -0.021 A 
HETATM    4  C   UNL     1      44.113 -18.816   5.008  1.00  0.00     0.012 A 
HETATM    5  C   UNL     1      43.788 -17.466   5.148  1.00  0.00     0.003 A 
HETATM    6  C   UNL     1      43.379 -16.729   4.037  1.00  0.00     0.029 A 
ENDROOT
BRANCH   1   7
HETATM    7  N   UNL     1      42.860 -16.519   1.710  1.00  0.00    -0.321 N 
HETATM    8  C   UNL     1      41.579 -16.374   1.207  1.00  0.00     0.280 C 
HETATM    9  O   UNL     1      40.589 -16.993   1.585  1.00  0.00    -0.265 OA
HETATM   10  H   UNL     1      43.557 -15.947   1.245  1.00  0.00     0.169 HD
BRANCH   8  11
HETATM   11  C   UNL     1      41.505 -15.382   0.148  1.00  0.00     0.144 A 
HETATM   12  O   UNL     1      41.075 -15.753  -1.099  1.00  0.00    -0.309 OA
HETATM   13  C   UNL     1      41.139 -14.648  -1.896  1.00  0.00     0.059 A 
HETATM   14  C   UNL     1      41.592 -13.557  -1.176  1.00  0.00    -0.029 A 
HETATM   15  C   UNL     1      41.823 -14.038   0.142  1.00  0.00     0.052 A 
HETATM   16  C   UNL     1      41.802 -12.175  -1.673  1.00  0.00     0.050 C 
BRANCH  13  17
HETATM   17  C   UNL     1      40.741 -14.841  -3.315  1.00  0.00     0.061 C 
HETATM   18  C   UNL     1      39.860 -16.067  -3.489  1.00  0.00     0.012 C 
ENDBRANCH  13  17
ENDBRANCH   8  11
ENDBRANCH   1   7
BRANCH   3  19
HETATM   19  C   UNL     1      44.361 -20.854   3.625  1.00  0.00     0.010 A 
HETATM   20  C   UNL     1      44.383 -21.699   2.489  1.00  0.00     0.152 A 
HETATM   21  N   UNL     1      44.760 -22.949   2.775  1.00  0.00    -0.187 NA
HETATM   22  N   UNL     1      44.979 -22.912   4.099  1.00  0.00    -0.289 N 
HETATM   23  H   UNL     1      45.281 -23.762   4.562  1.00  0.00     0.188 HD
HETATM   24  C   UNL     1      44.761 -21.684   4.652  1.00  0.00     0.123 A 
ENDBRANCH   3  19
TORSDOF 4
ENDMDL
MODEL 3
REMARK VINA RESULT:      -7.7      2.354      3.599
REMARK  4 active torsions:
REMARK  status: ('A' for Active; 'I' for Inactive)
REMARK    1  A    between atoms: C_2  and  C_3 
REMARK    2  A    between atoms: C_5  and  C_6 
REMARK       I    between atoms: C_6  and  N_7 
REMARK    3  A    between atoms: N_7  and  C_8 
REMARK    4  A    between atoms: C_10  and  C_11 
ROOT
HETATM    1  C   UNL     1      43.272 -17.384   2.599  1.00  0.00     0.035 A 
HETATM    2  C   UNL     1      43.621 -18.737   2.522  1.00  0.00     0.042 A 
HETATM    3  C   UNL     1      44.032 -19.449   3.664  1.00  0.00    -0.021 A 
HETATM    4  C   UNL     1      44.106 -18.773   4.888  1.00  0.00     0.012 A 
HETATM    5  C   UNL     1      43.769 -17.422   4.974  1.00  0.00     0.003 A 
HETATM    6  C   UNL     1      43.350 -16.734   3.834  1.00  0.00     0.029 A 
ENDROOT
BRANCH   1   7
HETATM    7  N   UNL     1      42.824 -16.624   1.502  1.00  0.00    -0.321 N 
HETATM    8  C   UNL     1      41.589 -16.654   0.879  1.00  0.00     0.280 C 
HETATM    9  O   UNL     1      40.669 -17.417   1.154  1.00  0.00    -0.265 OA
HETATM   10  H   UNL     1      43.471 -15.947   1.112  1.00  0.00     0.169 HD
BRANCH   8  11
HETATM   11  C   UNL     1      41.472 -15.659  -0.174  1.00  0.00     0.144 A 
HETATM   12  O   UNL     1      41.733 -14.343   0.107  1.00  0.00    -0.309 OA
HETATM   13  C   UNL     1      41.514 -13.633  -1.035  1.00  0.00     0.059 A 
HETATM   14  C   UNL     1      41.129 -14.475  -2.063  1.00  0.00    -0.029 A 
HETATM   15  C   UNL     1      41.107 -15.780  -1.500  1.00  0.00     0.052 A 
HETATM   16  C   UNL     1      40.799 -14.098  -3.460  1.00  0.00     0.050 C 
BRANCH  13  17
HETATM   17  C   UNL     1      41.711 -12.162  -0.940  1.00  0.00     0.061 C 
HETATM   18  C   UNL     1      43.020 -11.729  -1.579  1.00  0.00     0.012 C 
ENDBRANCH  13  17
ENDBRANCH   8  11
ENDBRANCH   1   7
BRANCH   3  19
HETATM   19  C   UNL     1      44.371 -20.863   3.588  1.00  0.00     0.010 A 
HETATM   20  C   UNL     1      44.413 -21.750   2.484  1.00  0.00     0.152 A 
HETATM   21  N   UNL     1      44.796 -22.985   2.821  1.00  0.00    -0.187 NA
HETATM   22  N   UNL     1      44.999 -22.897   4.145  1.00  0.00    -0.289 N 
HETATM   23  H   UNL     1      45.303 -23.727   4.643  1.00  0.00     0.188 HD
HETATM   24  C   UNL     1      44.765 -21.651   4.650  1.00  0.00     0.123 A 
ENDBRANCH   3  19
TORSDOF 4
ENDMDL
MODEL 4
REMARK VINA RESULT:      -7.6      2.649      8.400
REMARK  4 active torsions:
REMARK  status: ('A' for Active; 'I' for Inactive)
REMARK    1  A    between atoms: C_2  and  C_3 
REMARK    2  A    between atoms: C_5  and  C_6 
REMARK       I    between atoms: C_6  and  N_7 
REMARK    3  A    between atoms: N_7  and  C_8 
REMARK    4  A    between atoms: C_10  and  C_11 
ROOT
HETATM    1  C   UNL     1      41.797 -15.295   0.554  1.00  0.00     0.035 A 
HETATM    2  C   UNL     1      41.076 -15.641  -0.594  1.00  0.00     0.042 A 
HETATM    3  C   UNL     1      40.555 -14.655  -1.452  1.00  0.00    -0.021 A 
HETATM    4  C   UNL     1      40.753 -13.308  -1.127  1.00  0.00     0.012 A 
HETATM    5  C   UNL     1      41.462 -12.951   0.020  1.00  0.00     0.003 A 
HETATM    6  C   UNL     1      41.984 -13.941   0.853  1.00  0.00     0.029 A 
ENDROOT
BRANCH   1   7
HETATM    7  N   UNL     1      42.371 -16.231   1.435  1.00  0.00    -0.321 N 
HETATM    8  C   UNL     1      41.746 -17.015   2.389  1.00  0.00     0.280 C 
HETATM    9  O   UNL     1      40.553 -16.979   2.672  1.00  0.00    -0.265 OA
HETATM   10  H   UNL     1      43.373 -16.376   1.367  1.00  0.00     0.169 HD
BRANCH   8  11
HETATM   11  C   UNL     1      42.665 -17.924   3.051  1.00  0.00     0.144 A 
HETATM   12  O   UNL     1      43.228 -18.952   2.343  1.00  0.00    -0.309 OA
HETATM   13  C   UNL     1      44.010 -19.660   3.207  1.00  0.00     0.059 A 
HETATM   14  C   UNL     1      43.975 -19.094   4.468  1.00  0.00    -0.029 A 
HETATM   15  C   UNL     1      43.108 -17.972   4.358  1.00  0.00     0.052 A 
HETATM   16  C   UNL     1      44.685 -19.560   5.685  1.00  0.00     0.050 C 
BRANCH  13  17
HETATM   17  C   UNL     1      44.696 -20.852   2.642  1.00  0.00     0.061 C 
HETATM   18  C   UNL     1      43.767 -21.669   1.759  1.00  0.00     0.012 C 
ENDBRANCH  13  17
ENDBRANCH   8  11
ENDBRANCH   1   7
BRANCH   3  19
HETATM   19  C   UNL     1      39.827 -15.017  -2.660  1.00  0.00     0.010 A 
HETATM   20  C   UNL     1      39.947 -16.140  -3.515  1.00  0.00     0.152 A 
HETATM   21  N   UNL     1      39.072 -16.122  -4.525  1.00  0.00    -0.187 NA
HETATM   22  N   UNL     1      38.389 -14.984  -4.324  1.00  0.00    -0.289 N 
HETATM   23  H   UNL     1      37.651 -14.743  -4.977  1.00  0.00     0.188 HD
HETATM   24  C   UNL     1      38.796 -14.292  -3.222  1.00  0.00     0.123 A 
ENDBRANCH   3  19
TORSDOF 4
ENDMDL
MODEL 5
REMARK VINA RESULT:      -7.5      3.510      5.020
REMARK  4 active torsions:
REMARK  status: ('A' for Active; 'I' for Inactive)
REMARK    1  A    between atoms: C_2  and  C_3 
REMARK    2  A    between atoms: C_5  and  C_6 
REMARK       I    between atoms: C_6  and  N_7 
REMARK    3  A    between atoms: N_7  and  C_8 
REMARK    4  A    between atoms: C_10  and  C_11 
ROOT
HETATM    1  C   UNL     1      43.110 -17.218   4.782  1.00  0.00     0.035 A 
HETATM    2  C   UNL     1      43.220 -18.342   3.957  1.00  0.00     0.042 A 
HETATM    3  C   UNL     1      44.140 -19.367   4.242  1.00  0.00    -0.021 A 
HETATM    4  C   UNL     1      44.966 -19.237   5.365  1.00  0.00     0.012 A 
HETATM    5  C   UNL     1      44.871 -18.116   6.189  1.00  0.00     0.003 A 
HETATM    6  C   UNL     1      43.944 -17.114   5.900  1.00  0.00     0.029 A 
ENDROOT
BRANCH   1   7
HETATM    7  N   UNL     1      42.189 -16.174   4.571  1.00  0.00    -0.321 N 
HETATM    8  C   UNL     1      41.020 -15.902   5.259  1.00  0.00     0.280 C 
HETATM    9  O   UNL     1      40.549 -16.584   6.163  1.00  0.00    -0.265 OA
HETATM   10  H   UNL     1      42.400 -15.514   3.829  1.00  0.00     0.169 HD
BRANCH   8  11
HETATM   11  C   UNL     1      40.375 -14.684   4.800  1.00  0.00     0.144 A 
HETATM   12  O   UNL     1      40.028 -14.558   3.480  1.00  0.00    -0.309 OA
HETATM   13  C   UNL     1      39.481 -13.320   3.320  1.00  0.00     0.059 A 
HETATM   14  C   UNL     1      39.452 -12.643   4.526  1.00  0.00    -0.029 A 
HETATM   15  C   UNL     1      40.027 -13.531   5.475  1.00  0.00     0.052 A 
HETATM   16  C   UNL     1      38.937 -11.275   4.779  1.00  0.00     0.050 C 
BRANCH  13  17
HETATM   17  C   UNL     1      39.061 -12.963   1.939  1.00  0.00     0.061 C 
HETATM   18  C   UNL     1      38.322 -14.107   1.263  1.00  0.00     0.012 C 
ENDBRANCH  13  17
ENDBRANCH   8  11
ENDBRANCH   1   7
BRANCH   3  19
HETATM   19  C   UNL     1      44.236 -20.549   3.397  1.00  0.00     0.010 A 
HETATM   20  C   UNL     1      44.664 -21.868   3.690  1.00  0.00     0.152 A 
HETATM   21  N   UNL     1      44.586 -22.688   2.637  1.00  0.00    -0.187 NA
HETATM   22  N   UNL     1      44.112 -21.897   1.662  1.00  0.00    -0.289 N 
HETATM   23  H   UNL     1      43.963 -22.300   0.743  1.00  0.00     0.188 HD
HETATM   24  C   UNL     1      43.880 -20.614   2.065  1.00  0.00     0.123 A 
ENDBRANCH   3  19
TORSDOF 4
ENDMDL
MODEL 6
REMARK VINA RESULT:      -7.5      3.632      6.892
REMARK  4 active torsions:
REMARK  status: ('A' for Active; 'I' for Inactive)
REMARK    1  A    between atoms: C_2  and  C_3 
REMARK    2  A    between atoms: C_5  and  C_6 
REMARK       I    between atoms: C_6  and  N_7 
REMARK    3  A    between atoms: N_7  and  C_8 
REMARK    4  A    between atoms: C_10  and  C_11 
ROOT
HETATM    1  C   UNL     1      40.933 -15.942   3.006  1.00  0.00     0.035 A 
HETATM    2  C   UNL     1      40.921 -15.103   4.126  1.00  0.00     0.042 A 
HETATM    3  C   UNL     1      40.091 -13.970   4.179  1.00  0.00    -0.021 A 
HETATM    4  C   UNL     1      39.281 -13.677   3.075  1.00  0.00     0.012 A 
HETATM    5  C   UNL     1      39.292 -14.500   1.949  1.00  0.00     0.003 A 
HETATM    6  C   UNL     1      40.112 -15.629   1.918  1.00  0.00     0.029 A 
ENDROOT
BRANCH   1   7
HETATM    7  N   UNL     1      41.716 -17.107   2.903  1.00  0.00    -0.321 N 
HETATM    8  C   UNL     1      43.071 -17.217   2.645  1.00  0.00     0.280 C 
HETATM    9  O   UNL     1      43.828 -16.284   2.397  1.00  0.00    -0.265 OA
HETATM   10  H   UNL     1      41.246 -17.995   3.050  1.00  0.00     0.169 HD
BRANCH   8  11
HETATM   11  C   UNL     1      43.538 -18.592   2.697  1.00  0.00     0.144 A 
HETATM   12  O   UNL     1      44.228 -19.031   3.796  1.00  0.00    -0.309 OA
HETATM   13  C   UNL     1      44.573 -20.330   3.567  1.00  0.00     0.059 A 
HETATM   14  C   UNL     1      44.100 -20.747   2.336  1.00  0.00    -0.029 A 
HETATM   15  C   UNL     1      43.431 -19.621   1.783  1.00  0.00     0.052 A 
HETATM   16  C   UNL     1      44.262 -22.085   1.715  1.00  0.00     0.050 C 
BRANCH  13  17
HETATM   17  C   UNL     1      45.365 -20.995   4.635  1.00  0.00     0.061 C 
HETATM   18  C   UNL     1      44.628 -22.188   5.220  1.00  0.00     0.012 C 
ENDBRANCH  13  17
ENDBRANCH   8  11
ENDBRANCH   1   7
BRANCH   3  19
HETATM   19  C   UNL     1      40.060 -13.112   5.355  1.00  0.00     0.010 A 
HETATM   20  C   UNL     1      38.978 -12.672   6.156  1.00  0.00     0.152 A 
HETATM   21  N   UNL     1      39.363 -11.900   7.176  1.00  0.00    -0.187 NA
HETATM   22  N   UNL     1      40.696 -11.839   7.033  1.00  0.00    -0.289 N 
HETATM   23  H   UNL     1      41.229 -11.296   7.705  1.00  0.00     0.188 HD
HETATM   24  C   UNL     1      41.162 -12.549   5.966  1.00  0.00     0.123 A 
ENDBRANCH   3  19
TORSDOF 4
ENDMDL
MODEL 7
REMARK VINA RESULT:      -7.4      4.641      8.375
REMARK  4 active torsions:
REMARK  status: ('A' for Active; 'I' for Inactive)
REMARK    1  A    between atoms: C_2  and  C_3 
REMARK    2  A    between atoms: C_5  and  C_6 
REMARK       I    between atoms: C_6  and  N_7 
REMARK    3  A    between atoms: N_7  and  C_8 
REMARK    4  A    between atoms: C_10  and  C_11 
ROOT
HETATM    1  C   UNL     1      43.969 -15.881   6.448  1.00  0.00     0.035 A 
HETATM    2  C   UNL     1      43.565 -15.849   5.109  1.00  0.00     0.042 A 
HETATM    3  C   UNL     1      43.596 -17.006   4.311  1.00  0.00    -0.021 A 
HETATM    4  C   UNL     1      44.059 -18.201   4.875  1.00  0.00     0.012 A 
HETATM    5  C   UNL     1      44.473 -18.242   6.207  1.00  0.00     0.003 A 
HETATM    6  C   UNL     1      44.423 -17.088   6.989  1.00  0.00     0.029 A 
ENDROOT
BRANCH   1   7
HETATM    7  N   UNL     1      43.933 -14.767   7.308  1.00  0.00    -0.321 N 
HETATM    8  C   UNL     1      44.823 -13.711   7.391  1.00  0.00     0.280 C 
HETATM    9  O   UNL     1      45.859 -13.599   6.743  1.00  0.00    -0.265 OA
HETATM   10  H   UNL     1      43.149 -14.703   7.950  1.00  0.00     0.169 HD
BRANCH   8  11
HETATM   11  C   UNL     1      44.405 -12.704   8.351  1.00  0.00     0.144 A 
HETATM   12  O   UNL     1      43.340 -11.892   8.059  1.00  0.00    -0.309 OA
HETATM   13  C   UNL     1      43.191 -11.028   9.104  1.00  0.00     0.059 A 
HETATM   14  C   UNL     1      44.137 -11.280  10.080  1.00  0.00    -0.029 A 
HETATM   15  C   UNL     1      44.914 -12.365   9.588  1.00  0.00     0.052 A 
HETATM   16  C   UNL     1      44.314 -10.566  11.369  1.00  0.00     0.050 C 
BRANCH  13  17
HETATM   17  C   UNL     1      42.099 -10.028   8.974  1.00  0.00     0.061 C 
HETATM   18  C   UNL     1      40.867 -10.436   9.765  1.00  0.00     0.012 C 
ENDBRANCH  13  17
ENDBRANCH   8  11
ENDBRANCH   1   7
BRANCH   3  19
HETATM   19  C   UNL     1      43.151 -16.977   2.925  1.00  0.00     0.010 A 
HETATM   20  C   UNL     1      41.860 -16.810   2.367  1.00  0.00     0.152 A 
HETATM   21  N   UNL     1      41.863 -16.820   1.030  1.00  0.00    -0.187 NA
HETATM   22  N   UNL     1      43.158 -16.999   0.724  1.00  0.00    -0.289 N 
HETATM   23  H   UNL     1      43.420 -17.042  -0.255  1.00  0.00     0.188 HD
HETATM   24  C   UNL     1      43.968 -17.092   1.818  1.00  0.00     0.123 A 
ENDBRANCH   3  19
TORSDOF 4
ENDMDL
MODEL 8
REMARK VINA RESULT:      -7.3      1.840      2.404
REMARK  4 active torsions:
REMARK  status: ('A' for Active; 'I' for Inactive)
REMARK    1  A    between atoms: C_2  and  C_3 
REMARK    2  A    between atoms: C_5  and  C_6 
REMARK       I    between atoms: C_6  and  N_7 
REMARK    3  A    between atoms: N_7  and  C_8 
REMARK    4  A    between atoms: C_10  and  C_11 
ROOT
HETATM    1  C   UNL     1      42.885 -18.212   2.687  1.00  0.00     0.035 A 
HETATM    2  C   UNL     1      42.966 -18.261   4.083  1.00  0.00     0.042 A 
HETATM    3  C   UNL     1      43.794 -19.193   4.732  1.00  0.00    -0.021 A 
HETATM    4  C   UNL     1      44.532 -20.095   3.955  1.00  0.00     0.012 A 
HETATM    5  C   UNL     1      44.451 -20.061   2.562  1.00  0.00     0.003 A 
HETATM    6  C   UNL     1      43.635 -19.120   1.934  1.00  0.00     0.029 A 
ENDROOT
BRANCH   1   7
HETATM    7  N   UNL     1      42.101 -17.283   1.977  1.00  0.00    -0.321 N 
HETATM    8  C   UNL     1      42.279 -15.916   1.856  1.00  0.00     0.280 C 
HETATM    9  O   UNL     1      43.149 -15.258   2.416  1.00  0.00    -0.265 OA
HETATM   10  H   UNL     1      41.303 -17.647   1.465  1.00  0.00     0.169 HD
BRANCH   8  11
HETATM   11  C   UNL     1      41.305 -15.305   0.968  1.00  0.00     0.144 A 
HETATM   12  O   UNL     1      40.157 -14.768   1.490  1.00  0.00    -0.309 OA
HETATM   13  C   UNL     1      39.416 -14.301   0.445  1.00  0.00     0.059 A 
HETATM   14  C   UNL     1      40.077 -14.514  -0.752  1.00  0.00    -0.029 A 
HETATM   15  C   UNL     1      41.296 -15.159  -0.405  1.00  0.00     0.052 A 
HETATM   16  C   UNL     1      39.612 -14.154  -2.114  1.00  0.00     0.050 C 
BRANCH  13  17
HETATM   17  C   UNL     1      38.101 -13.700   0.792  1.00  0.00     0.061 C 
HETATM   18  C   UNL     1      38.255 -12.517   1.733  1.00  0.00     0.012 C 
ENDBRANCH  13  17
ENDBRANCH   8  11
ENDBRANCH   1   7
BRANCH   3  19
HETATM   19  C   UNL     1      43.898 -19.227   6.184  1.00  0.00     0.010 A 
HETATM   20  C   UNL     1      44.260 -18.221   7.113  1.00  0.00     0.152 A 
HETATM   21  N   UNL     1      44.215 -18.640   8.381  1.00  0.00    -0.187 NA
HETATM   22  N   UNL     1      43.826 -19.920   8.272  1.00  0.00    -0.289 N 
HETATM   23  H   UNL     1      43.716 -20.465   9.120  1.00  0.00     0.188 HD
HETATM   24  C   UNL     1      43.617 -20.317   6.983  1.00  0.00     0.123 A 
ENDBRANCH   3  19
TORSDOF 4
ENDMDL
MODEL 9
REMARK VINA RESULT:      -7.3      4.486      6.064
REMARK  4 active torsions:
REMARK  status: ('A' for Active; 'I' for Inactive)
REMARK    1  A    between atoms: C_2  and  C_3 
REMARK    2  A    between atoms: C_5  and  C_6 
REMARK       I    between atoms: C_6  and  N_7 
REMARK    3  A    between atoms: N_7  and  C_8 
REMARK    4  A    between atoms: C_10  and  C_11 
ROOT
HETATM    1  C   UNL     1      43.378 -16.957   5.140  1.00  0.00     0.035 A 
HETATM    2  C   UNL     1      43.376 -18.000   4.209  1.00  0.00     0.042 A 
HETATM    3  C   UNL     1      44.201 -19.127   4.375  1.00  0.00    -0.021 A 
HETATM    4  C   UNL     1      45.047 -19.183   5.489  1.00  0.00     0.012 A 
HETATM    5  C   UNL     1      45.065 -18.144   6.419  1.00  0.00     0.003 A 
HETATM    6  C   UNL     1      44.230 -17.039   6.246  1.00  0.00     0.029 A 
ENDROOT
BRANCH   1   7
HETATM    7  N   UNL     1      42.556 -15.818   5.049  1.00  0.00    -0.321 N 
HETATM    8  C   UNL     1      41.322 -15.595   5.634  1.00  0.00     0.280 C 
HETATM    9  O   UNL     1      40.695 -16.407   6.307  1.00  0.00    -0.265 OA
HETATM   10  H   UNL     1      42.902 -15.039   4.497  1.00  0.00     0.169 HD
BRANCH   8  11
HETATM   11  C   UNL     1      40.815 -14.259   5.372  1.00  0.00     0.144 A 
HETATM   12  O   UNL     1      41.414 -13.179   5.966  1.00  0.00    -0.309 OA
HETATM   13  C   UNL     1      40.724 -12.069   5.581  1.00  0.00     0.059 A 
HETATM   14  C   UNL     1      39.689 -12.412   4.729  1.00  0.00    -0.029 A 
HETATM   15  C   UNL     1      39.757 -13.827   4.597  1.00  0.00     0.052 A 
HETATM   16  C   UNL     1      38.707 -11.501   4.091  1.00  0.00     0.050 C 
BRANCH  13  17
HETATM   17  C   UNL     1      41.195 -10.777   6.145  1.00  0.00     0.061 C 
HETATM   18  C   UNL     1      41.894 -10.968   7.481  1.00  0.00     0.012 C 
ENDBRANCH  13  17
ENDBRANCH   8  11
ENDBRANCH   1   7
BRANCH   3  19
HETATM   19  C   UNL     1      44.178 -20.225   3.419  1.00  0.00     0.010 A 
HETATM   20  C   UNL     1      44.655 -21.555   3.520  1.00  0.00     0.152 A 
HETATM   21  N   UNL     1      44.427 -22.277   2.419  1.00  0.00    -0.187 NA
HETATM   22  N   UNL     1      43.806 -21.410   1.603  1.00  0.00    -0.289 N 
HETATM   23  H   UNL     1      43.525 -21.732   0.683  1.00  0.00     0.188 HD
HETATM   24  C   UNL     1      43.628 -20.175   2.154  1.00  0.00     0.123 A 
ENDBRANCH   3  19
TORSDOF 4
ENDMDL
MODEL 10
REMARK VINA RESULT:      -7.0      4.200      5.613
REMARK  4 active torsions:
REMARK  status: ('A' for Active; 'I' for Inactive)
REMARK    1  A    between atoms: C_2  and  C_3 
REMARK    2  A    between atoms: C_5  and  C_6 
REMARK       I    between atoms: C_6  and  N_7 
REMARK    3  A    between atoms: N_7  and  C_8 
REMARK    4  A    between atoms: C_10  and  C_11 
ROOT
HETATM    1  C   UNL     1      43.562 -16.801   5.276  1.00  0.00     0.035 A 
HETATM    2  C   UNL     1      43.495 -17.807   4.306  1.00  0.00     0.042 A 
HETATM    3  C   UNL     1      44.223 -19.003   4.446  1.00  0.00    -0.021 A 
HETATM    4  C   UNL     1      45.040 -19.166   5.572  1.00  0.00     0.012 A 
HETATM    5  C   UNL     1      45.121 -18.165   6.540  1.00  0.00     0.003 A 
HETATM    6  C   UNL     1      44.381 -16.991   6.393  1.00  0.00     0.029 A 
ENDROOT
BRANCH   1   7
HETATM    7  N   UNL     1      42.835 -15.597   5.211  1.00  0.00    -0.321 N 
HETATM    8  C   UNL     1      41.592 -15.309   5.749  1.00  0.00     0.280 C 
HETATM    9  O   UNL     1      40.870 -16.104   6.342  1.00  0.00    -0.265 OA
HETATM   10  H   UNL     1      43.269 -14.820   4.724  1.00  0.00     0.169 HD
BRANCH   8  11
HETATM   11  C   UNL     1      41.204 -13.925   5.542  1.00  0.00     0.144 A 
HETATM   12  O   UNL     1      39.977 -13.640   5.002  1.00  0.00    -0.309 OA
HETATM   13  C   UNL     1      39.889 -12.284   4.886  1.00  0.00     0.059 A 
HETATM   14  C   UNL     1      41.041 -11.682   5.360  1.00  0.00    -0.029 A 
HETATM   15  C   UNL     1      41.882 -12.747   5.783  1.00  0.00     0.052 A 
HETATM   16  C   UNL     1      41.343 -10.230   5.409  1.00  0.00     0.050 C 
BRANCH  13  17
HETATM   17  C   UNL     1      38.635 -11.758   4.286  1.00  0.00     0.061 C 
HETATM   18  C   UNL     1      38.722 -11.692   2.770  1.00  0.00     0.012 C 
ENDBRANCH  13  17
ENDBRANCH   8  11
ENDBRANCH   1   7
BRANCH   3  19
HETATM   19  C   UNL     1      44.134 -20.060   3.449  1.00  0.00     0.010 A 
HETATM   20  C   UNL     1      44.624 -21.389   3.458  1.00  0.00     0.152 A 
HETATM   21  N   UNL     1      44.316 -22.067   2.348  1.00  0.00    -0.187 NA
HETATM   22  N   UNL     1      43.628 -21.173   1.619  1.00  0.00    -0.289 N 
HETATM   23  H   UNL     1      43.279 -21.459   0.711  1.00  0.00     0.188 HD
HETATM   24  C   UNL     1      43.487 -19.963   2.234  1.00  0.00     0.123 A 
ENDBRANCH   3  19
TORSDOF 4
ENDMDL
