MODEL 1
REMARK VINA RESULT:      -7.9      0.000      0.000
REMARK  5 active torsions:
REMARK  status: ('A' for Active; 'I' for Inactive)
REMARK    1  A    between atoms: C_7  and  N_8 
REMARK    2  A    between atoms: N_8  and  C_9 
REMARK    3  A    between atoms: C_9  and  C_10 
REMARK       I    between atoms: C_10  and  N_11 
REMARK    4  A    between atoms: N_11  and  C_12 
REMARK    5  A    between atoms: C_16  and  C_17 
ROOT
HETATM    1  C   UNL     1      44.694 -17.401   6.578  1.00  0.00     0.068 C 
HETATM    2  C   UNL     1      44.191 -18.016   5.306  1.00  0.00     0.014 A 
HETATM    3  N   UNL     1      44.700 -19.217   4.983  1.00  0.00    -0.359 N 
HETATM    4  H   UNL     1      45.389 -19.632   5.609  1.00  0.00     0.166 HD
HETATM    5  C   UNL     1      44.350 -19.925   3.899  1.00  0.00     0.044 A 
HETATM    6  C   UNL     1      43.400 -19.396   3.003  1.00  0.00     0.012 A 
HETATM    7  C   UNL     1      42.874 -18.100   3.270  1.00  0.00     0.030 A 
HETATM    8  C   UNL     1      43.233 -17.417   4.461  1.00  0.00    -0.010 A 
HETATM    9  C   UNL     1      44.940 -21.180   3.675  1.00  0.00     0.030 A 
HETATM   10  C   UNL     1      44.578 -21.941   2.567  1.00  0.00     0.002 A 
HETATM   11  C   UNL     1      43.619 -21.458   1.687  1.00  0.00     0.001 A 
HETATM   12  C   UNL     1      43.034 -20.207   1.903  1.00  0.00     0.015 A 
ENDROOT
BRANCH   7  13
HETATM   13  N   UNL     1      42.017 -17.453   2.362  1.00  0.00    -0.283 NA
HETATM   14  H   UNL     1      41.267 -18.062   2.023  1.00  0.00     0.128 HD
BRANCH  13  15
HETATM   15  C   UNL     1      42.675 -16.826   1.198  1.00  0.00     0.195 C 
BRANCH  15  16
HETATM   16  C   UNL     1      41.693 -15.861   0.521  1.00  0.00     0.231 C 
HETATM   17  N   UNL     1      41.738 -15.880  -0.858  1.00  0.00    -0.356 N 
HETATM   18  H   UNL     1      42.514 -16.346  -1.309  1.00  0.00     0.162 HD
HETATM   19  O   UNL     1      40.950 -15.134   1.176  1.00  0.00    -0.272 OA
BRANCH  17  20
HETATM   20  C   UNL     1      40.983 -14.934  -1.670  1.00  0.00     0.076 C 
HETATM   21  C   UNL     1      41.770 -13.634  -1.838  1.00  0.00     0.032 C 
HETATM   22  C   UNL     1      40.673 -15.557  -3.028  1.00  0.00     0.032 C 
ENDBRANCH  17  20
ENDBRANCH  15  16
ENDBRANCH  13  15
ENDBRANCH   7  13
BRANCH   8  23
HETATM   23  C   UNL     1      42.626 -16.064   4.861  1.00  0.00     0.014 C 
HETATM   24  C   UNL     1      43.269 -14.902   4.102  1.00  0.00     0.015 C 
HETATM   25  C   UNL     1      41.095 -15.992   4.798  1.00  0.00     0.015 C 
ENDBRANCH   8  23
TORSDOF 5
ENDMDL
MODEL 2
REMARK VINA RESULT:      -7.6      1.706      2.039
REMARK  5 active torsions:
REMARK  status: ('A' for Active; 'I' for Inactive)
REMARK    1  A    between atoms: C_7  and  N_8 
REMARK    2  A    between atoms: N_8  and  C_9 
REMARK    3  A    between atoms: C_9  and  C_10 
REMARK       I    between atoms: C_10  and  N_11 
REMARK    4  A    between atoms: N_11  and  C_12 
REMARK    5  A    between atoms: C_16  and  C_17 
ROOT
HETATM    1  C   UNL     1      44.701 -18.030   7.270  1.00  0.00     0.068 C 
HETATM    2  C   UNL     1      44.277 -18.364   5.871  1.00  0.00     0.014 A 
HETATM    3  N   UNL     1      44.660 -19.564   5.403  1.00  0.00    -0.359 N 
HETATM    4  H   UNL     1      45.211 -20.166   6.014  1.00  0.00     0.166 HD
HETATM    5  C   UNL     1      44.352 -20.039   4.187  1.00  0.00     0.044 A 
HETATM    6  C   UNL     1      43.591 -19.247   3.305  1.00  0.00     0.012 A 
HETATM    7  C   UNL     1      43.209 -17.944   3.733  1.00  0.00     0.030 A 
HETATM    8  C   UNL     1      43.511 -17.509   5.051  1.00  0.00    -0.010 A 
HETATM    9  C   UNL     1      44.796 -21.319   3.814  1.00  0.00     0.030 A 
HETATM   10  C   UNL     1      44.473 -21.841   2.565  1.00  0.00     0.002 A 
HETATM   11  C   UNL     1      43.695 -21.095   1.690  1.00  0.00     0.001 A 
HETATM   12  C   UNL     1      43.256 -19.819   2.055  1.00  0.00     0.015 A 
ENDROOT
BRANCH   7  13
HETATM   13  N   UNL     1      42.557 -17.048   2.868  1.00  0.00    -0.283 NA
HETATM   14  H   UNL     1      42.792 -16.070   3.060  1.00  0.00     0.128 HD
BRANCH  13  15
HETATM   15  C   UNL     1      41.086 -17.174   2.806  1.00  0.00     0.195 C 
BRANCH  15  16
HETATM   16  C   UNL     1      40.470 -15.789   2.568  1.00  0.00     0.231 C 
HETATM   17  N   UNL     1      39.899 -15.628   1.323  1.00  0.00    -0.356 N 
HETATM   18  H   UNL     1      40.094 -16.318   0.610  1.00  0.00     0.162 HD
HETATM   19  O   UNL     1      40.508 -14.911   3.427  1.00  0.00    -0.272 OA
BRANCH  17  20
HETATM   20  C   UNL     1      39.392 -14.341   0.864  1.00  0.00     0.076 C 
HETATM   21  C   UNL     1      39.793 -14.101  -0.591  1.00  0.00     0.032 C 
HETATM   22  C   UNL     1      37.875 -14.303   1.019  1.00  0.00     0.032 C 
ENDBRANCH  17  20
ENDBRANCH  15  16
ENDBRANCH  13  15
ENDBRANCH   7  13
BRANCH   8  23
HETATM   23  C   UNL     1      43.041 -16.159   5.610  1.00  0.00     0.014 C 
HETATM   24  C   UNL     1      41.792 -16.304   6.482  1.00  0.00     0.015 C 
HETATM   25  C   UNL     1      44.123 -15.334   6.319  1.00  0.00     0.015 C 
ENDBRANCH   8  23
TORSDOF 5
ENDMDL
MODEL 3
REMARK VINA RESULT:      -7.2      1.708      3.980
REMARK  5 active torsions:
REMARK  status: ('A' for Active; 'I' for Inactive)
REMARK    1  A    between atoms: C_7  and  N_8 
REMARK    2  A    between atoms: N_8  and  C_9 
REMARK    3  A    between atoms: C_9  and  C_10 
REMARK       I    between atoms: C_10  and  N_11 
REMARK    4  A    between atoms: N_11  and  C_12 
REMARK    5  A    between atoms: C_16  and  C_17 
ROOT
HETATM    1  C   UNL     1      44.675 -20.862   3.224  1.00  0.00     0.068 C 
HETATM    2  C   UNL     1      44.184 -19.704   4.041  1.00  0.00     0.014 A 
HETATM    3  N   UNL     1      44.355 -19.798   5.371  1.00  0.00    -0.359 N 
HETATM    4  H   UNL     1      44.798 -20.638   5.741  1.00  0.00     0.166 HD
HETATM    5  C   UNL     1      43.999 -18.852   6.252  1.00  0.00     0.044 A 
HETATM    6  C   UNL     1      43.385 -17.670   5.790  1.00  0.00     0.012 A 
HETATM    7  C   UNL     1      43.129 -17.548   4.395  1.00  0.00     0.030 A 
HETATM    8  C   UNL     1      43.576 -18.553   3.498  1.00  0.00    -0.010 A 
HETATM    9  C   UNL     1      44.245 -19.056   7.620  1.00  0.00     0.030 A 
HETATM   10  C   UNL     1      43.903 -18.079   8.551  1.00  0.00     0.002 A 
HETATM   11  C   UNL     1      43.327 -16.892   8.120  1.00  0.00     0.001 A 
HETATM   12  C   UNL     1      43.076 -16.687   6.759  1.00  0.00     0.015 A 
ENDROOT
BRANCH   7  13
HETATM   13  N   UNL     1      42.411 -16.458   3.873  1.00  0.00    -0.283 NA
HETATM   14  H   UNL     1      42.027 -16.646   2.942  1.00  0.00     0.128 HD
BRANCH  13  15
HETATM   15  C   UNL     1      43.138 -15.173   3.830  1.00  0.00     0.195 C 
BRANCH  15  16
HETATM   16  C   UNL     1      42.581 -14.314   2.688  1.00  0.00     0.231 C 
HETATM   17  N   UNL     1      41.587 -14.925   1.951  1.00  0.00    -0.356 N 
HETATM   18  H   UNL     1      41.440 -15.918   2.069  1.00  0.00     0.162 HD
HETATM   19  O   UNL     1      43.012 -13.186   2.460  1.00  0.00    -0.272 OA
BRANCH  17  20
HETATM   20  C   UNL     1      41.037 -14.322   0.743  1.00  0.00     0.076 C 
HETATM   21  C   UNL     1      41.254 -15.245  -0.456  1.00  0.00     0.032 C 
HETATM   22  C   UNL     1      39.552 -14.036   0.942  1.00  0.00     0.032 C 
ENDBRANCH  17  20
ENDBRANCH  15  16
ENDBRANCH  13  15
ENDBRANCH   7  13
BRANCH   8  23
HETATM   23  C   UNL     1      43.425 -18.435   1.974  1.00  0.00     0.014 C 
HETATM   24  C   UNL     1      41.959 -18.312   1.553  1.00  0.00     0.015 C 
HETATM   25  C   UNL     1      44.287 -17.353   1.313  1.00  0.00     0.015 C 
ENDBRANCH   8  23
TORSDOF 5
ENDMDL
MODEL 4
REMARK VINA RESULT:      -7.2      1.819      2.257
REMARK  5 active torsions:
REMARK  status: ('A' for Active; 'I' for Inactive)
REMARK    1  A    between atoms: C_7  and  N_8 
REMARK    2  A    between atoms: N_8  and  C_9 
REMARK    3  A    between atoms: C_9  and  C_10 
REMARK       I    between atoms: C_10  and  N_11 
REMARK    4  A    between atoms: N_11  and  C_12 
REMARK    5  A    between atoms: C_16  and  C_17 
ROOT
HETATM    1  C   UNL     1      43.211 -16.048   6.531  1.00  0.00     0.068 C 
HETATM    2  C   UNL     1      43.345 -16.862   5.278  1.00  0.00     0.014 A 
HETATM    3  N   UNL     1      43.851 -18.098   5.423  1.00  0.00    -0.359 N 
HETATM    4  H   UNL     1      44.114 -18.405   6.359  1.00  0.00     0.166 HD
HETATM    5  C   UNL     1      44.020 -18.973   4.420  1.00  0.00     0.044 A 
HETATM    6  C   UNL     1      43.670 -18.598   3.107  1.00  0.00     0.012 A 
HETATM    7  C   UNL     1      43.182 -17.278   2.893  1.00  0.00     0.030 A 
HETATM    8  C   UNL     1      42.968 -16.410   3.996  1.00  0.00    -0.010 A 
HETATM    9  C   UNL     1      44.545 -20.246   4.697  1.00  0.00     0.030 A 
HETATM   10  C   UNL     1      44.711 -21.177   3.675  1.00  0.00     0.002 A 
HETATM   11  C   UNL     1      44.342 -20.846   2.379  1.00  0.00     0.001 A 
HETATM   12  C   UNL     1      43.824 -19.577   2.098  1.00  0.00     0.015 A 
ENDROOT
BRANCH   7  13
HETATM   13  N   UNL     1      42.929 -16.789   1.600  1.00  0.00    -0.283 NA
HETATM   14  H   UNL     1      43.151 -15.794   1.502  1.00  0.00     0.128 HD
BRANCH  13  15
HETATM   15  C   UNL     1      41.563 -17.018   1.085  1.00  0.00     0.195 C 
BRANCH  15  16
HETATM   16  C   UNL     1      41.011 -15.705   0.513  1.00  0.00     0.231 C 
HETATM   17  N   UNL     1      39.856 -15.261   1.123  1.00  0.00    -0.356 N 
HETATM   18  H   UNL     1      39.358 -15.896   1.732  1.00  0.00     0.162 HD
HETATM   19  O   UNL     1      41.564 -15.127  -0.420  1.00  0.00    -0.272 OA
BRANCH  17  20
HETATM   20  C   UNL     1      39.110 -14.112   0.624  1.00  0.00     0.076 C 
HETATM   21  C   UNL     1      37.618 -14.287   0.905  1.00  0.00     0.032 C 
HETATM   22  C   UNL     1      39.637 -12.837   1.275  1.00  0.00     0.032 C 
ENDBRANCH  17  20
ENDBRANCH  15  16
ENDBRANCH  13  15
ENDBRANCH   7  13
BRANCH   8  23
HETATM   23  C   UNL     1      42.350 -15.012   3.848  1.00  0.00     0.014 C 
HETATM   24  C   UNL     1      41.008 -14.900   4.574  1.00  0.00     0.015 C 
HETATM   25  C   UNL     1      43.278 -13.846   4.209  1.00  0.00     0.015 C 
ENDBRANCH   8  23
TORSDOF 5
ENDMDL
MODEL 5
REMARK VINA RESULT:      -7.2      4.192      6.987
REMARK  5 active torsions:
REMARK  status: ('A' for Active; 'I' for Inactive)
REMARK    1  A    between atoms: C_7  and  N_8 
REMARK    2  A    between atoms: N_8  and  C_9 
REMARK    3  A    between atoms: C_9  and  C_10 
REMARK       I    between atoms: C_10  and  N_11 
REMARK    4  A    between atoms: N_11  and  C_12 
REMARK    5  A    between atoms: C_16  and  C_17 
ROOT
HETATM    1  C   UNL     1      40.331 -14.973   3.614  1.00  0.00     0.068 C 
HETATM    2  C   UNL     1      41.471 -15.513   4.426  1.00  0.00     0.014 A 
HETATM    3  N   UNL     1      41.877 -16.758   4.126  1.00  0.00    -0.359 N 
HETATM    4  H   UNL     1      41.394 -17.256   3.380  1.00  0.00     0.166 HD
HETATM    5  C   UNL     1      42.894 -17.391   4.730  1.00  0.00     0.044 A 
HETATM    6  C   UNL     1      43.596 -16.744   5.767  1.00  0.00     0.012 A 
HETATM    7  C   UNL     1      43.166 -15.445   6.160  1.00  0.00     0.030 A 
HETATM    8  C   UNL     1      42.121 -14.796   5.451  1.00  0.00    -0.010 A 
HETATM    9  C   UNL     1      43.239 -18.690   4.318  1.00  0.00     0.030 A 
HETATM   10  C   UNL     1      44.303 -19.359   4.916  1.00  0.00     0.002 A 
HETATM   11  C   UNL     1      45.033 -18.731   5.917  1.00  0.00     0.001 A 
HETATM   12  C   UNL     1      44.689 -17.442   6.333  1.00  0.00     0.015 A 
ENDROOT
BRANCH   7  13
HETATM   13  N   UNL     1      43.734 -14.787   7.265  1.00  0.00    -0.283 NA
HETATM   14  H   UNL     1      43.082 -14.140   7.718  1.00  0.00     0.128 HD
BRANCH  13  15
HETATM   15  C   UNL     1      44.999 -14.072   7.002  1.00  0.00     0.195 C 
BRANCH  15  16
HETATM   16  C   UNL     1      45.176 -12.959   8.044  1.00  0.00     0.231 C 
HETATM   17  N   UNL     1      44.011 -12.590   8.685  1.00  0.00    -0.356 N 
HETATM   18  H   UNL     1      43.130 -12.909   8.305  1.00  0.00     0.162 HD
HETATM   19  O   UNL     1      46.272 -12.446   8.258  1.00  0.00    -0.272 OA
BRANCH  17  20
HETATM   20  C   UNL     1      43.957 -11.457   9.600  1.00  0.00     0.076 C 
HETATM   21  C   UNL     1      42.676 -10.654   9.373  1.00  0.00     0.032 C 
HETATM   22  C   UNL     1      44.033 -11.956  11.039  1.00  0.00     0.032 C 
ENDBRANCH  17  20
ENDBRANCH  15  16
ENDBRANCH  13  15
ENDBRANCH   7  13
BRANCH   8  23
HETATM   23  C   UNL     1      41.678 -13.358   5.757  1.00  0.00     0.014 C 
HETATM   24  C   UNL     1      42.089 -12.385   4.650  1.00  0.00     0.015 C 
HETATM   25  C   UNL     1      40.196 -13.195   6.119  1.00  0.00     0.015 C 
ENDBRANCH   8  23
TORSDOF 5
ENDMDL
MODEL 6
REMARK VINA RESULT:      -7.1      2.329      3.872
REMARK  5 active torsions:
REMARK  status: ('A' for Active; 'I' for Inactive)
REMARK    1  A    between atoms: C_7  and  N_8 
REMARK    2  A    between atoms: N_8  and  C_9 
REMARK    3  A    between atoms: C_9  and  C_10 
REMARK       I    between atoms: C_10  and  N_11 
REMARK    4  A    between atoms: N_11  and  C_12 
REMARK    5  A    between atoms: C_16  and  C_17 
ROOT
HETATM    1  C   UNL     1      39.900 -14.144   5.061  1.00  0.00     0.068 C 
HETATM    2  C   UNL     1      40.426 -15.082   4.015  1.00  0.00     0.014 A 
HETATM    3  N   UNL     1      41.258 -16.046   4.444  1.00  0.00    -0.359 N 
HETATM    4  H   UNL     1      41.482 -16.082   5.438  1.00  0.00     0.166 HD
HETATM    5  C   UNL     1      41.803 -16.985   3.657  1.00  0.00     0.044 A 
HETATM    6  C   UNL     1      41.521 -16.981   2.276  1.00  0.00     0.012 A 
HETATM    7  C   UNL     1      40.691 -15.945   1.763  1.00  0.00     0.030 A 
HETATM    8  C   UNL     1      40.092 -15.009   2.647  1.00  0.00    -0.010 A 
HETATM    9  C   UNL     1      42.647 -17.955   4.224  1.00  0.00     0.030 A 
HETATM   10  C   UNL     1      43.209 -18.951   3.430  1.00  0.00     0.002 A 
HETATM   11  C   UNL     1      42.921 -18.990   2.073  1.00  0.00     0.001 A 
HETATM   12  C   UNL     1      42.086 -18.024   1.504  1.00  0.00     0.015 A 
ENDROOT
BRANCH   7  13
HETATM   13  N   UNL     1      40.465 -15.800   0.383  1.00  0.00    -0.283 NA
HETATM   14  H   UNL     1      40.273 -16.692  -0.082  1.00  0.00     0.128 HD
BRANCH  13  15
HETATM   15  C   UNL     1      41.523 -15.096  -0.368  1.00  0.00     0.195 C 
BRANCH  15  16
HETATM   16  C   UNL     1      40.955 -14.611  -1.709  1.00  0.00     0.231 C 
HETATM   17  N   UNL     1      39.723 -15.143  -2.029  1.00  0.00    -0.356 N 
HETATM   18  H   UNL     1      39.385 -15.932  -1.495  1.00  0.00     0.162 HD
HETATM   19  O   UNL     1      41.573 -13.826  -2.424  1.00  0.00    -0.272 OA
BRANCH  17  20
HETATM   20  C   UNL     1      39.092 -14.911  -3.323  1.00  0.00     0.076 C 
HETATM   21  C   UNL     1      39.083 -16.199  -4.145  1.00  0.00     0.032 C 
HETATM   22  C   UNL     1      37.673 -14.393  -3.115  1.00  0.00     0.032 C 
ENDBRANCH  17  20
ENDBRANCH  15  16
ENDBRANCH  13  15
ENDBRANCH   7  13
BRANCH   8  23
HETATM   23  C   UNL     1      39.107 -13.930   2.173  1.00  0.00     0.014 C 
HETATM   24  C   UNL     1      39.828 -12.682   1.661  1.00  0.00     0.015 C 
HETATM   25  C   UNL     1      38.045 -14.409   1.176  1.00  0.00     0.015 C 
ENDBRANCH   8  23
TORSDOF 5
ENDMDL
MODEL 7
REMARK VINA RESULT:      -7.0      2.465      5.866
REMARK  5 active torsions:
REMARK  status: ('A' for Active; 'I' for Inactive)
REMARK    1  A    between atoms: C_7  and  N_8 
REMARK    2  A    between atoms: N_8  and  C_9 
REMARK    3  A    between atoms: C_9  and  C_10 
REMARK       I    between atoms: C_10  and  N_11 
REMARK    4  A    between atoms: N_11  and  C_12 
REMARK    5  A    between atoms: C_16  and  C_17 
ROOT
HETATM    1  C   UNL     1      41.087 -14.514  -0.879  1.00  0.00     0.068 C 
HETATM    2  C   UNL     1      41.334 -15.330   0.355  1.00  0.00     0.014 A 
HETATM    3  N   UNL     1      42.283 -16.277   0.261  1.00  0.00    -0.359 N 
HETATM    4  H   UNL     1      42.769 -16.386  -0.628  1.00  0.00     0.166 HD
HETATM    5  C   UNL     1      42.654 -17.083   1.267  1.00  0.00     0.044 A 
HETATM    6  C   UNL     1      42.015 -16.969   2.518  1.00  0.00     0.012 A 
HETATM    7  C   UNL     1      40.963 -16.020   2.651  1.00  0.00     0.030 A 
HETATM    8  C   UNL     1      40.647 -15.151   1.574  1.00  0.00    -0.010 A 
HETATM    9  C   UNL     1      43.674 -18.026   1.054  1.00  0.00     0.030 A 
HETATM   10  C   UNL     1      44.089 -18.860   2.089  1.00  0.00     0.002 A 
HETATM   11  C   UNL     1      43.499 -18.746   3.340  1.00  0.00     0.001 A 
HETATM   12  C   UNL     1      42.481 -17.812   3.555  1.00  0.00     0.015 A 
ENDROOT
BRANCH   7  13
HETATM   13  N   UNL     1      40.196 -15.933   3.826  1.00  0.00    -0.283 NA
HETATM   14  H   UNL     1      39.191 -15.869   3.639  1.00  0.00     0.128 HD
BRANCH  13  15
HETATM   15  C   UNL     1      40.570 -14.849   4.756  1.00  0.00     0.195 C 
BRANCH  15  16
HETATM   16  C   UNL     1      41.402 -15.432   5.905  1.00  0.00     0.231 C 
HETATM   17  N   UNL     1      42.631 -14.829   6.079  1.00  0.00    -0.356 N 
HETATM   18  H   UNL     1      42.975 -14.217   5.352  1.00  0.00     0.162 HD
HETATM   19  O   UNL     1      40.992 -16.368   6.587  1.00  0.00    -0.272 OA
BRANCH  17  20
HETATM   20  C   UNL     1      43.616 -15.340   7.025  1.00  0.00     0.076 C 
HETATM   21  C   UNL     1      44.327 -16.561   6.443  1.00  0.00     0.032 C 
HETATM   22  C   UNL     1      44.620 -14.241   7.362  1.00  0.00     0.032 C 
ENDBRANCH  17  20
ENDBRANCH  15  16
ENDBRANCH  13  15
ENDBRANCH   7  13
BRANCH   8  23
HETATM   23  C   UNL     1      39.595 -14.038   1.683  1.00  0.00     0.014 C 
HETATM   24  C   UNL     1      40.200 -12.654   1.440  1.00  0.00     0.015 C 
HETATM   25  C   UNL     1      38.330 -14.250   0.841  1.00  0.00     0.015 C 
ENDBRANCH   8  23
TORSDOF 5
ENDMDL
MODEL 8
REMARK VINA RESULT:      -7.0      2.143      4.127
REMARK  5 active torsions:
REMARK  status: ('A' for Active; 'I' for Inactive)
REMARK    1  A    between atoms: C_7  and  N_8 
REMARK    2  A    between atoms: N_8  and  C_9 
REMARK    3  A    between atoms: C_9  and  C_10 
REMARK       I    between atoms: C_10  and  N_11 
REMARK    4  A    between atoms: N_11  and  C_12 
REMARK    5  A    between atoms: C_16  and  C_17 
ROOT
HETATM    1  C   UNL     1      43.649 -19.952   2.428  1.00  0.00     0.068 C 
HETATM    2  C   UNL     1      43.429 -18.952   3.525  1.00  0.00     0.014 A 
HETATM    3  N   UNL     1      43.726 -19.361   4.770  1.00  0.00    -0.359 N 
HETATM    4  H   UNL     1      44.074 -20.310   4.896  1.00  0.00     0.166 HD
HETATM    5  C   UNL     1      43.616 -18.597   5.867  1.00  0.00     0.044 A 
HETATM    6  C   UNL     1      43.142 -17.275   5.746  1.00  0.00     0.012 A 
HETATM    7  C   UNL     1      42.759 -16.814   4.455  1.00  0.00     0.030 A 
HETATM    8  C   UNL     1      42.949 -17.642   3.318  1.00  0.00    -0.010 A 
HETATM    9  C   UNL     1      43.973 -19.129   7.117  1.00  0.00     0.030 A 
HETATM   10  C   UNL     1      43.885 -18.349   8.267  1.00  0.00     0.002 A 
HETATM   11  C   UNL     1      43.453 -17.033   8.171  1.00  0.00     0.001 A 
HETATM   12  C   UNL     1      43.091 -16.501   6.930  1.00  0.00     0.015 A 
ENDROOT
BRANCH   7  13
HETATM   13  N   UNL     1      42.162 -15.554   4.271  1.00  0.00    -0.283 NA
HETATM   14  H   UNL     1      42.592 -14.825   4.848  1.00  0.00     0.128 HD
BRANCH  13  15
HETATM   15  C   UNL     1      40.699 -15.506   4.465  1.00  0.00     0.195 C 
BRANCH  15  16
HETATM   16  C   UNL     1      40.111 -14.381   3.602  1.00  0.00     0.231 C 
HETATM   17  N   UNL     1      39.496 -14.816   2.446  1.00  0.00    -0.356 N 
HETATM   18  H   UNL     1      39.643 -15.772   2.151  1.00  0.00     0.162 HD
HETATM   19  O   UNL     1      40.209 -13.201   3.928  1.00  0.00    -0.272 OA
BRANCH  17  20
HETATM   20  C   UNL     1      39.006 -13.888   1.434  1.00  0.00     0.076 C 
HETATM   21  C   UNL     1      39.969 -13.843   0.247  1.00  0.00     0.032 C 
HETATM   22  C   UNL     1      37.612 -14.312   0.982  1.00  0.00     0.032 C 
ENDBRANCH  17  20
ENDBRANCH  15  16
ENDBRANCH  13  15
ENDBRANCH   7  13
BRANCH   8  23
HETATM   23  C   UNL     1      42.654 -17.171   1.886  1.00  0.00     0.014 C 
HETATM   24  C   UNL     1      43.836 -17.419   0.948  1.00  0.00     0.015 C 
HETATM   25  C   UNL     1      41.344 -17.695   1.284  1.00  0.00     0.015 C 
ENDBRANCH   8  23
TORSDOF 5
ENDMDL
MODEL 9
REMARK VINA RESULT:      -6.9      3.335      6.474
REMARK  5 active torsions:
REMARK  status: ('A' for Active; 'I' for Inactive)
REMARK    1  A    between atoms: C_7  and  N_8 
REMARK    2  A    between atoms: N_8  and  C_9 
REMARK    3  A    between atoms: C_9  and  C_10 
REMARK       I    between atoms: C_10  and  N_11 
REMARK    4  A    between atoms: N_11  and  C_12 
REMARK    5  A    between atoms: C_16  and  C_17 
ROOT
HETATM    1  C   UNL     1      44.550 -20.135   3.794  1.00  0.00     0.068 C 
HETATM    2  C   UNL     1      43.655 -18.932   3.786  1.00  0.00     0.014 A 
HETATM    3  N   UNL     1      43.028 -18.665   2.628  1.00  0.00    -0.359 N 
HETATM    4  H   UNL     1      43.197 -19.282   1.835  1.00  0.00     0.166 HD
HETATM    5  C   UNL     1      42.174 -17.647   2.443  1.00  0.00     0.044 A 
HETATM    6  C   UNL     1      41.906 -16.765   3.509  1.00  0.00     0.012 A 
HETATM    7  C   UNL     1      42.590 -16.972   4.740  1.00  0.00     0.030 A 
HETATM    8  C   UNL     1      43.440 -18.097   4.903  1.00  0.00    -0.010 A 
HETATM    9  C   UNL     1      41.565 -17.478   1.188  1.00  0.00     0.030 A 
HETATM   10  C   UNL     1      40.660 -16.441   0.979  1.00  0.00     0.002 A 
HETATM   11  C   UNL     1      40.352 -15.578   2.022  1.00  0.00     0.001 A 
HETATM   12  C   UNL     1      40.961 -15.739   3.270  1.00  0.00     0.015 A 
ENDROOT
BRANCH   7  13
HETATM   13  N   UNL     1      42.470 -16.066   5.808  1.00  0.00    -0.283 NA
HETATM   14  H   UNL     1      41.505 -15.758   5.961  1.00  0.00     0.128 HD
BRANCH  13  15
HETATM   15  C   UNL     1      43.337 -14.872   5.735  1.00  0.00     0.195 C 
BRANCH  15  16
HETATM   16  C   UNL     1      43.889 -14.560   7.132  1.00  0.00     0.231 C 
HETATM   17  N   UNL     1      43.995 -13.214   7.413  1.00  0.00    -0.356 N 
HETATM   18  H   UNL     1      43.907 -12.554   6.652  1.00  0.00     0.162 HD
HETATM   19  O   UNL     1      44.214 -15.453   7.910  1.00  0.00    -0.272 OA
BRANCH  17  20
HETATM   20  C   UNL     1      44.629 -12.725   8.631  1.00  0.00     0.076 C 
HETATM   21  C   UNL     1      46.106 -12.426   8.377  1.00  0.00     0.032 C 
HETATM   22  C   UNL     1      43.903 -11.476   9.121  1.00  0.00     0.032 C 
ENDBRANCH  17  20
ENDBRANCH  15  16
ENDBRANCH  13  15
ENDBRANCH   7  13
BRANCH   8  23
HETATM   23  C   UNL     1      44.128 -18.436   6.233  1.00  0.00     0.014 C 
HETATM   24  C   UNL     1      43.791 -19.851   6.706  1.00  0.00     0.015 C 
HETATM   25  C   UNL     1      45.639 -18.180   6.271  1.00  0.00     0.015 C 
ENDBRANCH   8  23
TORSDOF 5
ENDMDL
MODEL 10
REMARK VINA RESULT:      -6.8      2.555      5.421
REMARK  5 active torsions:
REMARK  status: ('A' for Active; 'I' for Inactive)
REMARK    1  A    between atoms: C_7  and  N_8 
REMARK    2  A    between atoms: N_8  and  C_9 
REMARK    3  A    between atoms: C_9  and  C_10 
REMARK       I    between atoms: C_10  and  N_11 
REMARK    4  A    between atoms: N_11  and  C_12 
REMARK    5  A    between atoms: C_16  and  C_17 
ROOT
HETATM    1  C   UNL     1      44.627 -20.364   3.483  1.00  0.00     0.068 C 
HETATM    2  C   UNL     1      43.745 -19.162   3.647  1.00  0.00     0.014 A 
HETATM    3  N   UNL     1      43.038 -18.792   2.566  1.00  0.00    -0.359 N 
HETATM    4  H   UNL     1      43.143 -19.337   1.711  1.00  0.00     0.166 HD
HETATM    5  C   UNL     1      42.182 -17.759   2.534  1.00  0.00     0.044 A 
HETATM    6  C   UNL     1      42.000 -16.975   3.691  1.00  0.00     0.012 A 
HETATM    7  C   UNL     1      42.769 -17.292   4.846  1.00  0.00     0.030 A 
HETATM    8  C   UNL     1      43.619 -18.430   4.846  1.00  0.00    -0.010 A 
HETATM    9  C   UNL     1      41.485 -17.477   1.348  1.00  0.00     0.030 A 
HETATM   10  C   UNL     1      40.577 -16.423   1.297  1.00  0.00     0.002 A 
HETATM   11  C   UNL     1      40.354 -15.656   2.432  1.00  0.00     0.001 A 
HETATM   12  C   UNL     1      41.049 -15.929   3.614  1.00  0.00     0.015 A 
ENDROOT
BRANCH   7  13
HETATM   13  N   UNL     1      42.736 -16.484   5.996  1.00  0.00    -0.283 NA
HETATM   14  H   UNL     1      41.826 -16.037   6.139  1.00  0.00     0.128 HD
BRANCH  13  15
HETATM   15  C   UNL     1      43.786 -15.450   6.082  1.00  0.00     0.195 C 
BRANCH  15  16
HETATM   16  C   UNL     1      43.231 -14.120   5.555  1.00  0.00     0.231 C 
HETATM   17  N   UNL     1      42.133 -13.650   6.245  1.00  0.00    -0.356 N 
HETATM   18  H   UNL     1      41.661 -14.275   6.885  1.00  0.00     0.162 HD
HETATM   19  O   UNL     1      43.733 -13.551   4.589  1.00  0.00    -0.272 OA
BRANCH  17  20
HETATM   20  C   UNL     1      41.385 -12.479   5.804  1.00  0.00     0.076 C 
HETATM   21  C   UNL     1      39.912 -12.836   5.605  1.00  0.00     0.032 C 
HETATM   22  C   UNL     1      41.535 -11.359   6.829  1.00  0.00     0.032 C 
ENDBRANCH  17  20
ENDBRANCH  15  16
ENDBRANCH  13  15
ENDBRANCH   7  13
BRANCH   8  23
HETATM   23  C   UNL     1      44.397 -18.888   6.088  1.00  0.00     0.014 C 
HETATM   24  C   UNL     1      45.661 -18.055   6.309  1.00  0.00     0.015 C 
HETATM   25  C   UNL     1      43.569 -18.996   7.374  1.00  0.00     0.015 C 
ENDBRANCH   8  23
TORSDOF 5
ENDMDL
