MODEL 1
REMARK VINA RESULT:      -9.1      0.000      0.000
REMARK  4 active torsions:
REMARK  status: ('A' for Active; 'I' for Inactive)
REMARK    1  A    between atoms: C_3  and  O_4 
REMARK    2  A    between atoms: O_4  and  C_5 
REMARK    3  A    between atoms: C_11  and  C_12 
REMARK    4  A    between atoms: C_23  and  N_24 
ROOT
HETATM    1  C   UNL     1      44.360 -17.925   5.655  1.00  0.00     0.244 A 
HETATM    2  N   UNL     1      44.228 -19.363   5.663  1.00  0.00    -0.151 N 
HETATM    3  C   UNL     1      43.960 -20.035   6.829  1.00  0.00     0.734 A 
HETATM    4  N   UNL     1      43.951 -21.329   6.599  1.00  0.00    -0.060 NA
HETATM    5  C   UNL     1      44.253 -21.490   5.269  1.00  0.00     0.103 A 
HETATM    6  C   UNL     1      44.441 -20.258   4.649  1.00  0.00     0.083 A 
HETATM    7  C   UNL     1      44.393 -22.667   4.522  1.00  0.00     0.034 A 
HETATM    8  C   UNL     1      44.720 -22.567   3.166  1.00  0.00     0.002 A 
HETATM    9  C   UNL     1      44.903 -21.319   2.566  1.00  0.00     0.002 A 
HETATM   10  C   UNL     1      44.768 -20.132   3.295  1.00  0.00     0.033 A 
HETATM   11  N   UNL     1      43.752 -19.405   8.006  1.00  0.00    -0.033 NA
HETATM   12  C   UNL     1      43.884 -18.130   8.064  1.00  0.00     0.193 A 
HETATM   13  N   UNL     1      44.213 -17.314   6.975  1.00  0.00    -0.339 N 
HETATM   14  H   UNL     1      44.186 -16.310   7.061  1.00  0.00     0.164 HD
ENDROOT
BRANCH   1  15
HETATM   15  C   UNL     1      43.355 -17.239   4.745  1.00  0.00    -0.014 A 
HETATM   16  C   UNL     1      42.287 -16.486   5.267  1.00  0.00     0.020 A 
HETATM   17  C   UNL     1      41.402 -15.800   4.422  1.00  0.00    -0.027 A 
HETATM   18  C   UNL     1      41.603 -15.862   3.035  1.00  0.00     0.086 A 
HETATM   19  C   UNL     1      40.301 -14.965   5.015  1.00  0.00     0.051 C 
HETATM   20  C   UNL     1      42.686 -16.567   2.488  1.00  0.00    -0.027 A 
HETATM   21  C   UNL     1      42.940 -16.602   1.006  1.00  0.00     0.051 C 
HETATM   22  C   UNL     1      43.540 -17.271   3.352  1.00  0.00     0.020 A 
BRANCH  18  23
HETATM   23  O   UNL     1      40.780 -15.130   2.219  1.00  0.00    -0.289 OA
BRANCH  23  24
HETATM   24  C   UNL     1      39.750 -15.949   1.677  1.00  0.00     0.505 C 
HETATM   25  F   UNL     1      39.838 -17.160   2.280  1.00  0.00    -0.184 F 
HETATM   26  F   UNL     1      38.558 -15.415   2.042  1.00  0.00    -0.184 F 
ENDBRANCH  23  24
ENDBRANCH  18  23
ENDBRANCH   1  15
BRANCH  12  27
HETATM   27  N   UNL     1      43.700 -17.425   9.198  1.00  0.00    -0.272 NA
HETATM   28  H   UNL     1      44.344 -16.637   9.246  1.00  0.00     0.127 HD
HETATM   29  H   UNL     1      42.754 -17.131   9.402  1.00  0.00     0.127 HD
ENDBRANCH  12  27
TORSDOF 4
ENDMDL
MODEL 2
REMARK VINA RESULT:      -9.0      3.053      6.273
REMARK  4 active torsions:
REMARK  status: ('A' for Active; 'I' for Inactive)
REMARK    1  A    between atoms: C_3  and  O_4 
REMARK    2  A    between atoms: O_4  and  C_5 
REMARK    3  A    between atoms: C_11  and  C_12 
REMARK    4  A    between atoms: C_23  and  N_24 
ROOT
HETATM    1  C   UNL     1      42.109 -16.026   5.476  1.00  0.00     0.244 A 
HETATM    2  N   UNL     1      41.801 -14.854   4.689  1.00  0.00    -0.151 N 
HETATM    3  C   UNL     1      42.350 -13.636   5.003  1.00  0.00     0.734 A 
HETATM    4  N   UNL     1      41.874 -12.717   4.194  1.00  0.00    -0.060 NA
HETATM    5  C   UNL     1      40.978 -13.351   3.369  1.00  0.00     0.103 A 
HETATM    6  C   UNL     1      40.905 -14.710   3.664  1.00  0.00     0.083 A 
HETATM    7  C   UNL     1      40.180 -12.824   2.345  1.00  0.00     0.034 A 
HETATM    8  C   UNL     1      39.328 -13.686   1.647  1.00  0.00     0.002 A 
HETATM    9  C   UNL     1      39.273 -15.046   1.961  1.00  0.00     0.002 A 
HETATM   10  C   UNL     1      40.062 -15.591   2.981  1.00  0.00     0.033 A 
HETATM   11  N   UNL     1      43.237 -13.470   6.009  1.00  0.00    -0.033 NA
HETATM   12  C   UNL     1      43.526 -14.471   6.758  1.00  0.00     0.193 A 
HETATM   13  N   UNL     1      43.003 -15.760   6.602  1.00  0.00    -0.339 N 
HETATM   14  H   UNL     1      43.360 -16.527   7.149  1.00  0.00     0.164 HD
ENDROOT
BRANCH   1  15
HETATM   15  C   UNL     1      42.755 -17.136   4.663  1.00  0.00    -0.014 A 
HETATM   16  C   UNL     1      42.966 -17.004   3.278  1.00  0.00     0.020 A 
HETATM   17  C   UNL     1      43.622 -18.004   2.546  1.00  0.00    -0.027 A 
HETATM   18  C   UNL     1      44.086 -19.144   3.219  1.00  0.00     0.086 A 
HETATM   19  C   UNL     1      43.873 -17.808   1.076  1.00  0.00     0.051 C 
HETATM   20  C   UNL     1      43.931 -19.282   4.607  1.00  0.00    -0.027 A 
HETATM   21  C   UNL     1      44.466 -20.477   5.347  1.00  0.00     0.051 C 
HETATM   22  C   UNL     1      43.244 -18.283   5.312  1.00  0.00     0.020 A 
BRANCH  18  23
HETATM   23  O   UNL     1      44.792 -20.082   2.511  1.00  0.00    -0.289 OA
BRANCH  23  24
HETATM   24  C   UNL     1      44.006 -21.250   2.298  1.00  0.00     0.505 C 
HETATM   25  F   UNL     1      42.823 -20.848   1.771  1.00  0.00    -0.184 F 
HETATM   26  F   UNL     1      44.623 -22.000   1.353  1.00  0.00    -0.184 F 
ENDBRANCH  23  24
ENDBRANCH  18  23
ENDBRANCH   1  15
BRANCH  12  27
HETATM   27  N   UNL     1      44.396 -14.390   7.786  1.00  0.00    -0.272 NA
HETATM   28  H   UNL     1      43.940 -14.618   8.667  1.00  0.00     0.127 HD
HETATM   29  H   UNL     1      45.264 -14.898   7.686  1.00  0.00     0.127 HD
ENDBRANCH  12  27
TORSDOF 4
ENDMDL
MODEL 3
REMARK VINA RESULT:      -9.0      2.779      5.770
REMARK  4 active torsions:
REMARK  status: ('A' for Active; 'I' for Inactive)
REMARK    1  A    between atoms: C_3  and  O_4 
REMARK    2  A    between atoms: O_4  and  C_5 
REMARK    3  A    between atoms: C_11  and  C_12 
REMARK    4  A    between atoms: C_23  and  N_24 
ROOT
HETATM    1  C   UNL     1      42.336 -17.446   6.004  1.00  0.00     0.244 A 
HETATM    2  N   UNL     1      42.671 -16.061   5.765  1.00  0.00    -0.151 N 
HETATM    3  C   UNL     1      43.328 -15.325   6.719  1.00  0.00     0.734 A 
HETATM    4  N   UNL     1      43.461 -14.085   6.304  1.00  0.00    -0.060 NA
HETATM    5  C   UNL     1      42.850 -14.018   5.077  1.00  0.00     0.103 A 
HETATM    6  C   UNL     1      42.332 -15.257   4.711  1.00  0.00     0.083 A 
HETATM    7  C   UNL     1      42.691 -12.922   4.218  1.00  0.00     0.034 A 
HETATM    8  C   UNL     1      42.010 -13.109   3.010  1.00  0.00     0.002 A 
HETATM    9  C   UNL     1      41.500 -14.363   2.664  1.00  0.00     0.002 A 
HETATM   10  C   UNL     1      41.648 -15.469   3.509  1.00  0.00     0.033 A 
HETATM   11  N   UNL     1      43.742 -15.851   7.893  1.00  0.00    -0.033 NA
HETATM   12  C   UNL     1      43.448 -17.069   8.170  1.00  0.00     0.193 A 
HETATM   13  N   UNL     1      42.734 -17.927   7.326  1.00  0.00    -0.339 N 
HETATM   14  H   UNL     1      42.638 -18.904   7.552  1.00  0.00     0.164 HD
ENDROOT
BRANCH   1  15
HETATM   15  C   UNL     1      42.961 -18.392   4.992  1.00  0.00    -0.014 A 
HETATM   16  C   UNL     1      42.976 -18.092   3.618  1.00  0.00     0.020 A 
HETATM   17  C   UNL     1      43.612 -18.938   2.698  1.00  0.00    -0.027 A 
HETATM   18  C   UNL     1      44.255 -20.092   3.169  1.00  0.00     0.086 A 
HETATM   19  C   UNL     1      43.652 -18.560   1.242  1.00  0.00     0.051 C 
HETATM   20  C   UNL     1      44.295 -20.394   4.539  1.00  0.00    -0.027 A 
HETATM   21  C   UNL     1      45.020 -21.604   5.061  1.00  0.00     0.051 C 
HETATM   22  C   UNL     1      43.624 -19.549   5.436  1.00  0.00     0.020 A 
BRANCH  18  23
HETATM   23  O   UNL     1      44.938 -20.874   2.274  1.00  0.00    -0.289 OA
BRANCH  23  24
HETATM   24  C   UNL     1      44.152 -21.993   1.879  1.00  0.00     0.505 C 
HETATM   25  F   UNL     1      42.850 -21.651   2.047  1.00  0.00    -0.184 F 
HETATM   26  F   UNL     1      44.339 -22.186   0.551  1.00  0.00    -0.184 F 
ENDBRANCH  23  24
ENDBRANCH  18  23
ENDBRANCH   1  15
BRANCH  12  27
HETATM   27  N   UNL     1      43.819 -17.669   9.320  1.00  0.00    -0.272 NA
HETATM   28  H   UNL     1      43.004 -17.961   9.857  1.00  0.00     0.127 HD
HETATM   29  H   UNL     1      44.489 -18.422   9.243  1.00  0.00     0.127 HD
ENDBRANCH  12  27
TORSDOF 4
ENDMDL
MODEL 4
REMARK VINA RESULT:      -8.8      3.155      6.084
REMARK  4 active torsions:
REMARK  status: ('A' for Active; 'I' for Inactive)
REMARK    1  A    between atoms: C_3  and  O_4 
REMARK    2  A    between atoms: O_4  and  C_5 
REMARK    3  A    between atoms: C_11  and  C_12 
REMARK    4  A    between atoms: C_23  and  N_24 
ROOT
HETATM    1  C   UNL     1      42.336 -16.237   5.527  1.00  0.00     0.244 A 
HETATM    2  N   UNL     1      41.966 -15.140   4.663  1.00  0.00    -0.151 N 
HETATM    3  C   UNL     1      42.410 -13.867   4.920  1.00  0.00     0.734 A 
HETATM    4  N   UNL     1      41.892 -13.035   4.044  1.00  0.00    -0.060 NA
HETATM    5  C   UNL     1      41.076 -13.784   3.233  1.00  0.00     0.103 A 
HETATM    6  C   UNL     1      41.097 -15.125   3.606  1.00  0.00     0.083 A 
HETATM    7  C   UNL     1      40.274 -13.380   2.157  1.00  0.00     0.034 A 
HETATM    8  C   UNL     1      39.514 -14.344   1.486  1.00  0.00     0.002 A 
HETATM    9  C   UNL     1      39.553 -15.684   1.879  1.00  0.00     0.002 A 
HETATM   10  C   UNL     1      40.346 -16.107   2.952  1.00  0.00     0.033 A 
HETATM   11  N   UNL     1      43.247 -13.575   5.940  1.00  0.00    -0.033 NA
HETATM   12  C   UNL     1      43.587 -14.506   6.755  1.00  0.00     0.193 A 
HETATM   13  N   UNL     1      43.169 -15.839   6.660  1.00  0.00    -0.339 N 
HETATM   14  H   UNL     1      43.565 -16.543   7.262  1.00  0.00     0.164 HD
ENDROOT
BRANCH   1  15
HETATM   15  C   UNL     1      43.092 -17.338   4.800  1.00  0.00    -0.014 A 
HETATM   16  C   UNL     1      43.500 -18.509   5.464  1.00  0.00     0.020 A 
HETATM   17  C   UNL     1      44.138 -19.550   4.773  1.00  0.00    -0.027 A 
HETATM   18  C   UNL     1      44.353 -19.416   3.393  1.00  0.00     0.086 A 
HETATM   19  C   UNL     1      44.517 -20.808   5.504  1.00  0.00     0.051 C 
HETATM   20  C   UNL     1      43.915 -18.279   2.696  1.00  0.00    -0.027 A 
HETATM   21  C   UNL     1      44.098 -18.145   1.209  1.00  0.00     0.051 C 
HETATM   22  C   UNL     1      43.308 -17.238   3.415  1.00  0.00     0.020 A 
BRANCH  18  23
HETATM   23  O   UNL     1      44.909 -20.467   2.710  1.00  0.00    -0.289 OA
BRANCH  23  24
HETATM   24  C   UNL     1      43.906 -21.386   2.295  1.00  0.00     0.505 C 
HETATM   25  F   UNL     1      44.057 -21.571   0.959  1.00  0.00    -0.184 F 
HETATM   26  F   UNL     1      44.162 -22.579   2.887  1.00  0.00    -0.184 F 
ENDBRANCH  23  24
ENDBRANCH  18  23
ENDBRANCH   1  15
BRANCH  12  27
HETATM   27  N   UNL     1      44.413 -14.299   7.801  1.00  0.00    -0.272 NA
HETATM   28  H   UNL     1      44.217 -13.405   8.248  1.00  0.00     0.127 HD
HETATM   29  H   UNL     1      44.472 -15.040   8.486  1.00  0.00     0.127 HD
ENDBRANCH  12  27
TORSDOF 4
ENDMDL
MODEL 5
REMARK VINA RESULT:      -8.7      3.841      6.531
REMARK  4 active torsions:
REMARK  status: ('A' for Active; 'I' for Inactive)
REMARK    1  A    between atoms: C_3  and  O_4 
REMARK    2  A    between atoms: O_4  and  C_5 
REMARK    3  A    between atoms: C_11  and  C_12 
REMARK    4  A    between atoms: C_23  and  N_24 
ROOT
HETATM    1  C   UNL     1      40.763 -16.328   3.765  1.00  0.00     0.244 A 
HETATM    2  N   UNL     1      40.948 -15.250   2.820  1.00  0.00    -0.151 N 
HETATM    3  C   UNL     1      40.824 -13.943   3.217  1.00  0.00     0.734 A 
HETATM    4  N   UNL     1      40.969 -13.152   2.178  1.00  0.00    -0.060 NA
HETATM    5  C   UNL     1      41.154 -13.969   1.091  1.00  0.00     0.103 A 
HETATM    6  C   UNL     1      41.139 -15.309   1.466  1.00  0.00     0.083 A 
HETATM    7  C   UNL     1      41.334 -13.632  -0.258  1.00  0.00     0.034 A 
HETATM    8  C   UNL     1      41.493 -14.662  -1.192  1.00  0.00     0.002 A 
HETATM    9  C   UNL     1      41.475 -16.000  -0.790  1.00  0.00     0.002 A 
HETATM   10  C   UNL     1      41.296 -16.356   0.552  1.00  0.00     0.033 A 
HETATM   11  N   UNL     1      40.583 -13.586   4.498  1.00  0.00    -0.033 NA
HETATM   12  C   UNL     1      40.383 -14.502   5.375  1.00  0.00     0.193 A 
HETATM   13  N   UNL     1      40.417 -15.876   5.112  1.00  0.00    -0.339 N 
HETATM   14  H   UNL     1      40.368 -16.543   5.865  1.00  0.00     0.164 HD
ENDROOT
BRANCH   1  15
HETATM   15  C   UNL     1      41.991 -17.213   3.907  1.00  0.00    -0.014 A 
HETATM   16  C   UNL     1      42.864 -17.086   5.002  1.00  0.00     0.020 A 
HETATM   17  C   UNL     1      43.958 -17.950   5.162  1.00  0.00    -0.027 A 
HETATM   18  C   UNL     1      44.166 -18.963   4.215  1.00  0.00     0.086 A 
HETATM   19  C   UNL     1      44.842 -17.817   6.371  1.00  0.00     0.051 C 
HETATM   20  C   UNL     1      43.285 -19.142   3.137  1.00  0.00    -0.027 A 
HETATM   21  C   UNL     1      43.471 -20.254   2.140  1.00  0.00     0.051 C 
HETATM   22  C   UNL     1      42.217 -18.246   2.981  1.00  0.00     0.020 A 
BRANCH  18  23
HETATM   23  O   UNL     1      45.192 -19.849   4.416  1.00  0.00    -0.289 OA
BRANCH  23  24
HETATM   24  C   UNL     1      44.695 -21.101   4.875  1.00  0.00     0.505 C 
HETATM   25  F   UNL     1      45.746 -21.957   4.928  1.00  0.00    -0.184 F 
HETATM   26  F   UNL     1      44.259 -20.935   6.148  1.00  0.00    -0.184 F 
ENDBRANCH  23  24
ENDBRANCH  18  23
ENDBRANCH   1  15
BRANCH  12  27
HETATM   27  N   UNL     1      40.131 -14.232   6.672  1.00  0.00    -0.272 NA
HETATM   28  H   UNL     1      40.996 -14.076   7.185  1.00  0.00     0.127 HD
HETATM   29  H   UNL     1      39.461 -13.499   6.861  1.00  0.00     0.127 HD
ENDBRANCH  12  27
TORSDOF 4
ENDMDL
MODEL 6
REMARK VINA RESULT:      -8.7      3.252      4.637
REMARK  4 active torsions:
REMARK  status: ('A' for Active; 'I' for Inactive)
REMARK    1  A    between atoms: C_3  and  O_4 
REMARK    2  A    between atoms: O_4  and  C_5 
REMARK    3  A    between atoms: C_11  and  C_12 
REMARK    4  A    between atoms: C_23  and  N_24 
ROOT
HETATM    1  C   UNL     1      41.779 -14.547   3.587  1.00  0.00     0.244 A 
HETATM    2  N   UNL     1      41.981 -15.959   3.815  1.00  0.00    -0.151 N 
HETATM    3  C   UNL     1      41.459 -16.570   4.927  1.00  0.00     0.734 A 
HETATM    4  N   UNL     1      41.829 -17.831   4.951  1.00  0.00    -0.060 NA
HETATM    5  C   UNL     1      42.629 -18.022   3.853  1.00  0.00     0.103 A 
HETATM    6  C   UNL     1      42.751 -16.848   3.114  1.00  0.00     0.083 A 
HETATM    7  C   UNL     1      43.297 -19.178   3.426  1.00  0.00     0.034 A 
HETATM    8  C   UNL     1      44.072 -19.115   2.263  1.00  0.00     0.002 A 
HETATM    9  C   UNL     1      44.178 -17.925   1.539  1.00  0.00     0.002 A 
HETATM   10  C   UNL     1      43.519 -16.761   1.949  1.00  0.00     0.033 A 
HETATM   11  N   UNL     1      40.694 -15.917   5.830  1.00  0.00    -0.033 NA
HETATM   12  C   UNL     1      40.504 -14.656   5.692  1.00  0.00     0.193 A 
HETATM   13  N   UNL     1      41.020 -13.883   4.645  1.00  0.00    -0.339 N 
HETATM   14  H   UNL     1      40.737 -12.923   4.530  1.00  0.00     0.164 HD
ENDROOT
BRANCH   1  15
HETATM   15  C   UNL     1      41.056 -14.252   2.283  1.00  0.00    -0.014 A 
HETATM   16  C   UNL     1      39.663 -14.415   2.164  1.00  0.00     0.020 A 
HETATM   17  C   UNL     1      38.993 -14.078   0.979  1.00  0.00    -0.027 A 
HETATM   18  C   UNL     1      39.731 -13.555  -0.094  1.00  0.00     0.086 A 
HETATM   19  C   UNL     1      37.497 -14.219   0.903  1.00  0.00     0.051 C 
HETATM   20  C   UNL     1      41.114 -13.339   0.013  1.00  0.00    -0.027 A 
HETATM   21  C   UNL     1      41.908 -12.737  -1.113  1.00  0.00     0.051 C 
HETATM   22  C   UNL     1      41.767 -13.714   1.197  1.00  0.00     0.020 A 
BRANCH  18  23
HETATM   23  O   UNL     1      39.060 -13.159  -1.221  1.00  0.00    -0.289 OA
BRANCH  23  24
HETATM   24  C   UNL     1      39.040 -14.201  -2.189  1.00  0.00     0.505 C 
HETATM   25  F   UNL     1      37.743 -14.551  -2.378  1.00  0.00    -0.184 F 
HETATM   26  F   UNL     1      39.483 -13.688  -3.363  1.00  0.00    -0.184 F 
ENDBRANCH  23  24
ENDBRANCH  18  23
ENDBRANCH   1  15
BRANCH  12  27
HETATM   27  N   UNL     1      39.759 -13.929   6.550  1.00  0.00    -0.272 NA
HETATM   28  H   UNL     1      39.726 -12.952   6.265  1.00  0.00     0.127 HD
HETATM   29  H   UNL     1      38.832 -14.278   6.753  1.00  0.00     0.127 HD
ENDBRANCH  12  27
TORSDOF 4
ENDMDL
MODEL 7
REMARK VINA RESULT:      -8.6      3.717      6.533
REMARK  4 active torsions:
REMARK  status: ('A' for Active; 'I' for Inactive)
REMARK    1  A    between atoms: C_3  and  O_4 
REMARK    2  A    between atoms: O_4  and  C_5 
REMARK    3  A    between atoms: C_11  and  C_12 
REMARK    4  A    between atoms: C_23  and  N_24 
ROOT
HETATM    1  C   UNL     1      41.710 -15.627   4.315  1.00  0.00     0.244 A 
HETATM    2  N   UNL     1      41.924 -14.847   3.118  1.00  0.00    -0.151 N 
HETATM    3  C   UNL     1      42.327 -13.538   3.198  1.00  0.00     0.734 A 
HETATM    4  N   UNL     1      42.389 -13.021   1.991  1.00  0.00    -0.060 NA
HETATM    5  C   UNL     1      41.986 -14.007   1.125  1.00  0.00     0.103 A 
HETATM    6  C   UNL     1      41.677 -15.178   1.813  1.00  0.00     0.083 A 
HETATM    7  C   UNL     1      41.851 -13.970  -0.269  1.00  0.00     0.034 A 
HETATM    8  C   UNL     1      41.405 -15.119  -0.931  1.00  0.00     0.002 A 
HETATM    9  C   UNL     1      41.102 -16.282  -0.219  1.00  0.00     0.002 A 
HETATM   10  C   UNL     1      41.230 -16.338   1.173  1.00  0.00     0.033 A 
HETATM   11  N   UNL     1      42.597 -12.925   4.372  1.00  0.00    -0.033 NA
HETATM   12  C   UNL     1      42.399 -13.561   5.469  1.00  0.00     0.193 A 
HETATM   13  N   UNL     1      41.934 -14.879   5.551  1.00  0.00    -0.339 N 
HETATM   14  H   UNL     1      41.912 -15.359   6.437  1.00  0.00     0.164 HD
ENDROOT
BRANCH   1  15
HETATM   15  C   UNL     1      42.595 -16.860   4.388  1.00  0.00    -0.014 A 
HETATM   16  C   UNL     1      42.572 -17.841   3.380  1.00  0.00     0.020 A 
HETATM   17  C   UNL     1      43.439 -18.943   3.420  1.00  0.00    -0.027 A 
HETATM   18  C   UNL     1      44.352 -19.050   4.480  1.00  0.00     0.086 A 
HETATM   19  C   UNL     1      43.421 -19.947   2.299  1.00  0.00     0.051 C 
HETATM   20  C   UNL     1      44.429 -18.064   5.475  1.00  0.00    -0.027 A 
HETATM   21  C   UNL     1      45.434 -18.144   6.591  1.00  0.00     0.051 C 
HETATM   22  C   UNL     1      43.530 -16.987   5.430  1.00  0.00     0.020 A 
BRANCH  18  23
HETATM   23  O   UNL     1      45.245 -20.089   4.473  1.00  0.00    -0.289 OA
BRANCH  23  24
HETATM   24  C   UNL     1      44.628 -21.289   4.924  1.00  0.00     0.505 C 
HETATM   25  F   UNL     1      45.616 -22.187   5.160  1.00  0.00    -0.184 F 
HETATM   26  F   UNL     1      44.037 -21.032   6.117  1.00  0.00    -0.184 F 
ENDBRANCH  23  24
ENDBRANCH  18  23
ENDBRANCH   1  15
BRANCH  12  27
HETATM   27  N   UNL     1      42.638 -13.023   6.682  1.00  0.00    -0.272 NA
HETATM   28  H   UNL     1      43.204 -12.180   6.601  1.00  0.00     0.127 HD
HETATM   29  H   UNL     1      41.833 -12.862   7.273  1.00  0.00     0.127 HD
ENDBRANCH  12  27
TORSDOF 4
ENDMDL
MODEL 8
REMARK VINA RESULT:      -8.4      3.586      6.266
REMARK  4 active torsions:
REMARK  status: ('A' for Active; 'I' for Inactive)
REMARK    1  A    between atoms: C_3  and  O_4 
REMARK    2  A    between atoms: O_4  and  C_5 
REMARK    3  A    between atoms: C_11  and  C_12 
REMARK    4  A    between atoms: C_23  and  N_24 
ROOT
HETATM    1  C   UNL     1      42.520 -16.367   5.480  1.00  0.00     0.244 A 
HETATM    2  N   UNL     1      42.653 -15.523   4.315  1.00  0.00    -0.151 N 
HETATM    3  C   UNL     1      43.323 -14.328   4.389  1.00  0.00     0.734 A 
HETATM    4  N   UNL     1      43.254 -13.712   3.230  1.00  0.00    -0.060 NA
HETATM    5  C   UNL     1      42.498 -14.512   2.410  1.00  0.00     0.103 A 
HETATM    6  C   UNL     1      42.095 -15.667   3.074  1.00  0.00     0.083 A 
HETATM    7  C   UNL     1      42.104 -14.308   1.080  1.00  0.00     0.034 A 
HETATM    8  C   UNL     1      41.313 -15.279   0.457  1.00  0.00     0.002 A 
HETATM    9  C   UNL     1      40.923 -16.430   1.144  1.00  0.00     0.002 A 
HETATM   10  C   UNL     1      41.305 -16.652   2.472  1.00  0.00     0.033 A 
HETATM   11  N   UNL     1      43.935 -13.900   5.515  1.00  0.00    -0.033 NA
HETATM   12  C   UNL     1      43.827 -14.596   6.588  1.00  0.00     0.193 A 
HETATM   13  N   UNL     1      43.128 -15.805   6.685  1.00  0.00    -0.339 N 
HETATM   14  H   UNL     1      43.180 -16.360   7.524  1.00  0.00     0.164 HD
ENDROOT
BRANCH   1  15
HETATM   15  C   UNL     1      43.131 -17.745   5.289  1.00  0.00    -0.014 A 
HETATM   16  C   UNL     1      43.759 -18.110   4.084  1.00  0.00     0.020 A 
HETATM   17  C   UNL     1      44.379 -19.359   3.938  1.00  0.00    -0.027 A 
HETATM   18  C   UNL     1      44.381 -20.247   5.025  1.00  0.00     0.086 A 
HETATM   19  C   UNL     1      45.083 -19.696   2.652  1.00  0.00     0.051 C 
HETATM   20  C   UNL     1      43.804 -19.893   6.254  1.00  0.00    -0.027 A 
HETATM   21  C   UNL     1      43.840 -20.817   7.440  1.00  0.00     0.051 C 
HETATM   22  C   UNL     1      43.162 -18.650   6.365  1.00  0.00     0.020 A 
BRANCH  18  23
HETATM   23  O   UNL     1      45.053 -21.435   4.900  1.00  0.00    -0.289 OA
BRANCH  23  24
HETATM   24  C   UNL     1      44.246 -22.404   4.241  1.00  0.00     0.505 C 
HETATM   25  F   UNL     1      45.027 -23.020   3.319  1.00  0.00    -0.184 F 
HETATM   26  F   UNL     1      43.898 -23.346   5.152  1.00  0.00    -0.184 F 
ENDBRANCH  23  24
ENDBRANCH  18  23
ENDBRANCH   1  15
BRANCH  12  27
HETATM   27  N   UNL     1      44.402 -14.239   7.754  1.00  0.00    -0.272 NA
HETATM   28  H   UNL     1      44.721 -15.057   8.268  1.00  0.00     0.127 HD
HETATM   29  H   UNL     1      45.128 -13.537   7.706  1.00  0.00     0.127 HD
ENDBRANCH  12  27
TORSDOF 4
ENDMDL
MODEL 9
REMARK VINA RESULT:      -8.3      3.852      6.683
REMARK  4 active torsions:
REMARK  status: ('A' for Active; 'I' for Inactive)
REMARK    1  A    between atoms: C_3  and  O_4 
REMARK    2  A    between atoms: O_4  and  C_5 
REMARK    3  A    between atoms: C_11  and  C_12 
REMARK    4  A    between atoms: C_23  and  N_24 
ROOT
HETATM    1  C   UNL     1      40.576 -16.128   3.876  1.00  0.00     0.244 A 
HETATM    2  N   UNL     1      40.881 -15.086   2.924  1.00  0.00    -0.151 N 
HETATM    3  C   UNL     1      40.865 -13.767   3.301  1.00  0.00     0.734 A 
HETATM    4  N   UNL     1      41.107 -13.007   2.256  1.00  0.00    -0.060 NA
HETATM    5  C   UNL     1      41.247 -13.853   1.184  1.00  0.00     0.103 A 
HETATM    6  C   UNL     1      41.102 -15.181   1.576  1.00  0.00     0.083 A 
HETATM    7  C   UNL     1      41.491 -13.554  -0.163  1.00  0.00     0.034 A 
HETATM    8  C   UNL     1      41.581 -14.607  -1.079  1.00  0.00     0.002 A 
HETATM    9  C   UNL     1      41.433 -15.932  -0.661  1.00  0.00     0.002 A 
HETATM   10  C   UNL     1      41.188 -16.251   0.679  1.00  0.00     0.033 A 
HETATM   11  N   UNL     1      40.624 -13.371   4.570  1.00  0.00    -0.033 NA
HETATM   12  C   UNL     1      40.320 -14.252   5.452  1.00  0.00     0.193 A 
HETATM   13  N   UNL     1      40.237 -15.628   5.207  1.00  0.00    -0.339 N 
HETATM   14  H   UNL     1      40.109 -16.277   5.967  1.00  0.00     0.164 HD
ENDROOT
BRANCH   1  15
HETATM   15  C   UNL     1      41.715 -17.117   4.062  1.00  0.00    -0.014 A 
HETATM   16  C   UNL     1      42.007 -18.092   3.090  1.00  0.00     0.020 A 
HETATM   17  C   UNL     1      43.100 -18.958   3.237  1.00  0.00    -0.027 A 
HETATM   18  C   UNL     1      43.920 -18.830   4.368  1.00  0.00     0.086 A 
HETATM   19  C   UNL     1      43.411 -19.956   2.156  1.00  0.00     0.051 C 
HETATM   20  C   UNL     1      43.681 -17.837   5.331  1.00  0.00    -0.027 A 
HETATM   21  C   UNL     1      44.579 -17.660   6.524  1.00  0.00     0.051 C 
HETATM   22  C   UNL     1      42.562 -17.004   5.178  1.00  0.00     0.020 A 
BRANCH  18  23
HETATM   23  O   UNL     1      45.029 -19.629   4.469  1.00  0.00    -0.289 OA
BRANCH  23  24
HETATM   24  C   UNL     1      44.673 -20.932   4.916  1.00  0.00     0.505 C 
HETATM   25  F   UNL     1      45.787 -21.702   4.841  1.00  0.00    -0.184 F 
HETATM   26  F   UNL     1      44.343 -20.847   6.228  1.00  0.00    -0.184 F 
ENDBRANCH  23  24
ENDBRANCH  18  23
ENDBRANCH   1  15
BRANCH  12  27
HETATM   27  N   UNL     1      40.059 -13.943   6.738  1.00  0.00    -0.272 NA
HETATM   28  H   UNL     1      39.548 -14.694   7.197  1.00  0.00     0.127 HD
HETATM   29  H   UNL     1      40.844 -13.643   7.301  1.00  0.00     0.127 HD
ENDBRANCH  12  27
TORSDOF 4
ENDMDL
MODEL 10
REMARK VINA RESULT:      -8.2      3.350      4.961
REMARK  4 active torsions:
REMARK  status: ('A' for Active; 'I' for Inactive)
REMARK    1  A    between atoms: C_3  and  O_4 
REMARK    2  A    between atoms: O_4  and  C_5 
REMARK    3  A    between atoms: C_11  and  C_12 
REMARK    4  A    between atoms: C_23  and  N_24 
ROOT
HETATM    1  C   UNL     1      41.800 -14.462   3.629  1.00  0.00     0.244 A 
HETATM    2  N   UNL     1      41.959 -15.887   3.804  1.00  0.00    -0.151 N 
HETATM    3  C   UNL     1      41.408 -16.525   4.887  1.00  0.00     0.734 A 
HETATM    4  N   UNL     1      41.740 -17.796   4.865  1.00  0.00    -0.060 NA
HETATM    5  C   UNL     1      42.545 -17.969   3.767  1.00  0.00     0.103 A 
HETATM    6  C   UNL     1      42.708 -16.771   3.076  1.00  0.00     0.083 A 
HETATM    7  C   UNL     1      43.184 -19.126   3.301  1.00  0.00     0.034 A 
HETATM    8  C   UNL     1      43.971 -19.041   2.148  1.00  0.00     0.002 A 
HETATM    9  C   UNL     1      44.119 -17.828   1.472  1.00  0.00     0.002 A 
HETATM   10  C   UNL     1      43.490 -16.661   1.921  1.00  0.00     0.033 A 
HETATM   11  N   UNL     1      40.654 -15.885   5.808  1.00  0.00    -0.033 NA
HETATM   12  C   UNL     1      40.502 -14.614   5.718  1.00  0.00     0.193 A 
HETATM   13  N   UNL     1      41.050 -13.817   4.705  1.00  0.00    -0.339 N 
HETATM   14  H   UNL     1      40.797 -12.846   4.626  1.00  0.00     0.164 HD
ENDROOT
BRANCH   1  15
HETATM   15  C   UNL     1      41.098 -14.096   2.332  1.00  0.00    -0.014 A 
HETATM   16  C   UNL     1      41.819 -13.658   1.206  1.00  0.00     0.020 A 
HETATM   17  C   UNL     1      41.172 -13.385  -0.009  1.00  0.00    -0.027 A 
HETATM   18  C   UNL     1      39.784 -13.571  -0.095  1.00  0.00     0.086 A 
HETATM   19  C   UNL     1      41.980 -12.967  -1.206  1.00  0.00     0.051 C 
HETATM   20  C   UNL     1      39.046 -14.051   0.999  1.00  0.00    -0.027 A 
HETATM   21  C   UNL     1      37.565 -14.298   0.905  1.00  0.00     0.051 C 
HETATM   22  C   UNL     1      39.711 -14.286   2.212  1.00  0.00     0.020 A 
BRANCH  18  23
HETATM   23  O   UNL     1      39.169 -13.375  -1.304  1.00  0.00    -0.289 OA
BRANCH  23  24
HETATM   24  C   UNL     1      38.747 -12.023  -1.441  1.00  0.00     0.505 C 
HETATM   25  F   UNL     1      39.188 -11.584  -2.647  1.00  0.00    -0.184 F 
HETATM   26  F   UNL     1      37.393 -12.012  -1.491  1.00  0.00    -0.184 F 
ENDBRANCH  23  24
ENDBRANCH  18  23
ENDBRANCH   1  15
BRANCH  12  27
HETATM   27  N   UNL     1      39.770 -13.899   6.596  1.00  0.00    -0.272 NA
HETATM   28  H   UNL     1      38.781 -14.127   6.516  1.00  0.00     0.127 HD
HETATM   29  H   UNL     1      40.069 -13.924   7.562  1.00  0.00     0.127 HD
ENDBRANCH  12  27
TORSDOF 4
ENDMDL
