MODEL 1
REMARK VINA RESULT:      -8.7      0.000      0.000
REMARK  8 active torsions:
REMARK  status: ('A' for Active; 'I' for Inactive)
REMARK    1  A    between atoms: C_2  and  O_3 
REMARK    2  A    between atoms: O_3  and  C_4 
REMARK    3  A    between atoms: C_4  and  C_5 
REMARK    4  A    between atoms: C_6  and  C_7 
REMARK    5  A    between atoms: C_7  and  O_8 
REMARK    6  A    between atoms: O_8  and  C_9 
REMARK    7  A    between atoms: C_9  and  C_10 
REMARK       I    between atoms: C_10  and  N_11 
REMARK       I    between atoms: N_11  and  C_12 
REMARK       I    between atoms: C_12  and  N_13 
REMARK    8  A    between atoms: N_13  and  C_14 
ROOT
HETATM    1  C   UNL     1      40.895 -16.656   3.251  1.00  0.00     0.282 C 
ENDROOT
BRANCH   1   2
HETATM    2  O   UNL     1      42.037 -16.171   3.969  1.00  0.00    -0.307 OA
BRANCH   2   3
HETATM    3  C   UNL     1      43.220 -16.393   3.319  1.00  0.00     0.318 C 
HETATM    4  O   UNL     1      43.834 -15.530   2.698  1.00  0.00    -0.257 OA
BRANCH   3   5
HETATM    5  C   UNL     1      43.641 -17.762   3.488  1.00  0.00     0.160 A 
HETATM    6  C   UNL     1      44.153 -18.471   4.570  1.00  0.00     0.018 A 
HETATM    7  C   UNL     1      44.329 -19.816   4.112  1.00  0.00     0.009 A 
HETATM    8  C   UNL     1      43.916 -19.828   2.788  1.00  0.00     0.087 A 
HETATM    9  C   UNL     1      44.770 -21.027   4.680  1.00  0.00     0.015 A 
HETATM   10  O   UNL     1      43.496 -18.596   2.412  1.00  0.00    -0.303 OA
HETATM   11  C   UNL     1      43.922 -20.956   1.971  1.00  0.00     0.038 A 
HETATM   12  C   UNL     1      44.371 -22.145   2.552  1.00  0.00     0.003 A 
HETATM   13  C   UNL     1      44.786 -22.183   3.886  1.00  0.00     0.001 A 
BRANCH   6  14
HETATM   14  C   UNL     1      44.379 -17.961   5.948  1.00  0.00     0.210 C 
BRANCH  14  15
HETATM   15  O   UNL     1      43.132 -17.871   6.639  1.00  0.00    -0.387 OA
BRANCH  15  16
HETATM   16  C   UNL     1      43.155 -16.881   7.663  1.00  0.00     0.163 C 
HETATM   17  C   UNL     1      43.932 -15.684   7.149  1.00  0.00     0.033 C 
ENDBRANCH  15  16
ENDBRANCH  14  15
ENDBRANCH   6  14
ENDBRANCH   3   5
ENDBRANCH   2   3
ENDBRANCH   1   2
BRANCH   1  18
HETATM   18  C   UNL     1      40.205 -15.572   2.409  1.00  0.00     0.249 C 
HETATM   19  N   UNL     1      40.389 -15.533   1.046  1.00  0.00    -0.277 N 
HETATM   20  C   UNL     1      41.086 -16.402   0.251  1.00  0.00     0.327 C 
HETATM   21  H   UNL     1      40.101 -14.657   0.645  1.00  0.00     0.173 HD
HETATM   22  N   UNL     1      41.546 -15.920  -0.943  1.00  0.00    -0.308 N 
HETATM   23  O   UNL     1      41.359 -17.558   0.564  1.00  0.00    -0.247 OA
HETATM   24  H   UNL     1      42.381 -16.414  -1.234  1.00  0.00     0.170 HD
HETATM   25  O   UNL     1      39.517 -14.693   2.940  1.00  0.00    -0.271 OA
BRANCH  22  26
HETATM   26  C   UNL     1      41.213 -14.759  -1.659  1.00  0.00     0.042 A 
HETATM   27  C   UNL     1      40.402 -14.738  -2.807  1.00  0.00    -0.035 A 
HETATM   28  C   UNL     1      39.844 -15.968  -3.472  1.00  0.00     0.050 C 
HETATM   29  C   UNL     1      40.157 -13.502  -3.439  1.00  0.00     0.015 A 
HETATM   30  C   UNL     1      40.739 -12.314  -2.981  1.00  0.00    -0.061 A 
HETATM   31  C   UNL     1      40.523 -11.020  -3.708  1.00  0.00     0.048 C 
HETATM   32  C   UNL     1      41.597 -12.365  -1.881  1.00  0.00     0.009 A 
HETATM   33  C   UNL     1      41.837 -13.578  -1.234  1.00  0.00     0.030 A 
ENDBRANCH  22  26
ENDBRANCH   1  18
TORSDOF 8
ENDMDL
MODEL 2
REMARK VINA RESULT:      -8.6      1.990      2.440
REMARK  8 active torsions:
REMARK  status: ('A' for Active; 'I' for Inactive)
REMARK    1  A    between atoms: C_2  and  O_3 
REMARK    2  A    between atoms: O_3  and  C_4 
REMARK    3  A    between atoms: C_4  and  C_5 
REMARK    4  A    between atoms: C_6  and  C_7 
REMARK    5  A    between atoms: C_7  and  O_8 
REMARK    6  A    between atoms: O_8  and  C_9 
REMARK    7  A    between atoms: C_9  and  C_10 
REMARK       I    between atoms: C_10  and  N_11 
REMARK       I    between atoms: N_11  and  C_12 
REMARK       I    between atoms: C_12  and  N_13 
REMARK    8  A    between atoms: N_13  and  C_14 
ROOT
HETATM    1  C   UNL     1      41.107 -16.395   4.803  1.00  0.00     0.282 C 
ENDROOT
BRANCH   1   2
HETATM    2  O   UNL     1      42.501 -16.105   4.965  1.00  0.00    -0.307 OA
BRANCH   2   3
HETATM    3  C   UNL     1      43.233 -16.310   3.828  1.00  0.00     0.318 C 
HETATM    4  O   UNL     1      43.526 -15.423   3.032  1.00  0.00    -0.257 OA
BRANCH   3   5
HETATM    5  C   UNL     1      43.620 -17.694   3.719  1.00  0.00     0.160 A 
HETATM    6  C   UNL     1      44.289 -18.564   4.574  1.00  0.00     0.018 A 
HETATM    7  C   UNL     1      44.322 -19.828   3.904  1.00  0.00     0.009 A 
HETATM    8  C   UNL     1      43.676 -19.638   2.692  1.00  0.00     0.087 A 
HETATM    9  C   UNL     1      44.808 -21.117   4.201  1.00  0.00     0.015 A 
HETATM   10  O   UNL     1      43.247 -18.358   2.580  1.00  0.00    -0.303 OA
HETATM   11  C   UNL     1      43.487 -20.632   1.735  1.00  0.00     0.038 A 
HETATM   12  C   UNL     1      43.983 -21.901   2.047  1.00  0.00     0.003 A 
HETATM   13  C   UNL     1      44.630 -22.143   3.261  1.00  0.00     0.001 A 
BRANCH   6  14
HETATM   14  C   UNL     1      44.783 -18.268   5.945  1.00  0.00     0.210 C 
BRANCH  14  15
HETATM   15  O   UNL     1      44.077 -19.067   6.895  1.00  0.00    -0.387 OA
BRANCH  15  16
HETATM   16  C   UNL     1      44.124 -18.513   8.205  1.00  0.00     0.163 C 
HETATM   17  C   UNL     1      43.350 -17.208   8.197  1.00  0.00     0.033 C 
ENDBRANCH  15  16
ENDBRANCH  14  15
ENDBRANCH   6  14
ENDBRANCH   3   5
ENDBRANCH   2   3
ENDBRANCH   1   2
BRANCH   1  18
HETATM   18  C   UNL     1      40.268 -15.159   4.450  1.00  0.00     0.249 C 
HETATM   19  N   UNL     1      39.779 -14.996   3.175  1.00  0.00    -0.277 N 
HETATM   20  C   UNL     1      39.870 -15.848   2.107  1.00  0.00     0.327 C 
HETATM   21  H   UNL     1      39.468 -14.056   2.999  1.00  0.00     0.173 HD
HETATM   22  N   UNL     1      39.767 -15.297   0.861  1.00  0.00    -0.308 N 
HETATM   23  O   UNL     1      40.084 -17.054   2.202  1.00  0.00    -0.247 OA
HETATM   24  H   UNL     1      40.275 -15.847   0.179  1.00  0.00     0.170 HD
HETATM   25  O   UNL     1      40.059 -14.270   5.283  1.00  0.00    -0.271 OA
BRANCH  22  26
HETATM   26  C   UNL     1      39.308 -14.037   0.444  1.00  0.00     0.042 A 
HETATM   27  C   UNL     1      40.134 -12.920   0.230  1.00  0.00    -0.035 A 
HETATM   28  C   UNL     1      41.616 -12.900   0.498  1.00  0.00     0.050 C 
HETATM   29  C   UNL     1      39.541 -11.708  -0.176  1.00  0.00     0.015 A 
HETATM   30  C   UNL     1      38.155 -11.581  -0.323  1.00  0.00    -0.061 A 
HETATM   31  C   UNL     1      37.536 -10.264  -0.688  1.00  0.00     0.048 C 
HETATM   32  C   UNL     1      37.345 -12.682  -0.040  1.00  0.00     0.009 A 
HETATM   33  C   UNL     1      37.917 -13.894   0.348  1.00  0.00     0.030 A 
ENDBRANCH  22  26
ENDBRANCH   1  18
TORSDOF 8
ENDMDL
MODEL 3
REMARK VINA RESULT:      -8.4      2.098      8.615
REMARK  8 active torsions:
REMARK  status: ('A' for Active; 'I' for Inactive)
REMARK    1  A    between atoms: C_2  and  O_3 
REMARK    2  A    between atoms: O_3  and  C_4 
REMARK    3  A    between atoms: C_4  and  C_5 
REMARK    4  A    between atoms: C_6  and  C_7 
REMARK    5  A    between atoms: C_7  and  O_8 
REMARK    6  A    between atoms: O_8  and  C_9 
REMARK    7  A    between atoms: C_9  and  C_10 
REMARK       I    between atoms: C_10  and  N_11 
REMARK       I    between atoms: N_11  and  C_12 
REMARK       I    between atoms: C_12  and  N_13 
REMARK    8  A    between atoms: N_13  and  C_14 
ROOT
HETATM    1  C   UNL     1      40.471 -14.015   3.192  1.00  0.00     0.282 C 
ENDROOT
BRANCH   1   2
HETATM    2  O   UNL     1      40.658 -13.162   2.057  1.00  0.00    -0.307 OA
BRANCH   2   3
HETATM    3  C   UNL     1      41.974 -12.983   1.724  1.00  0.00     0.318 C 
HETATM    4  O   UNL     1      42.908 -13.168   2.497  1.00  0.00    -0.257 OA
BRANCH   3   5
HETATM    5  C   UNL     1      42.095 -12.572   0.347  1.00  0.00     0.160 A 
HETATM    6  C   UNL     1      41.826 -13.207  -0.861  1.00  0.00     0.018 A 
HETATM    7  C   UNL     1      42.110 -12.247  -1.883  1.00  0.00     0.009 A 
HETATM    8  C   UNL     1      42.532 -11.100  -1.227  1.00  0.00     0.087 A 
HETATM    9  C   UNL     1      42.034 -12.216  -3.290  1.00  0.00     0.015 A 
HETATM   10  O   UNL     1      42.518 -11.291   0.114  1.00  0.00    -0.303 OA
HETATM   11  C   UNL     1      42.904  -9.919  -1.865  1.00  0.00     0.038 A 
HETATM   12  C   UNL     1      42.827  -9.912  -3.260  1.00  0.00     0.003 A 
HETATM   13  C   UNL     1      42.396 -11.040  -3.963  1.00  0.00     0.001 A 
BRANCH   6  14
HETATM   14  C   UNL     1      41.266 -14.572  -1.049  1.00  0.00     0.210 C 
BRANCH  14  15
HETATM   15  O   UNL     1      39.857 -14.489  -1.268  1.00  0.00    -0.387 OA
BRANCH  15  16
HETATM   16  C   UNL     1      39.507 -14.748  -2.624  1.00  0.00     0.163 C 
HETATM   17  C   UNL     1      40.412 -15.847  -3.146  1.00  0.00     0.033 C 
ENDBRANCH  15  16
ENDBRANCH  14  15
ENDBRANCH   6  14
ENDBRANCH   3   5
ENDBRANCH   2   3
ENDBRANCH   1   2
BRANCH   1  18
HETATM   18  C   UNL     1      40.466 -15.509   2.833  1.00  0.00     0.249 C 
HETATM   19  N   UNL     1      41.390 -16.358   3.395  1.00  0.00    -0.277 N 
HETATM   20  C   UNL     1      42.343 -16.085   4.339  1.00  0.00     0.327 C 
HETATM   21  H   UNL     1      41.450 -17.236   2.908  1.00  0.00     0.173 HD
HETATM   22  N   UNL     1      43.433 -16.908   4.379  1.00  0.00    -0.308 N 
HETATM   23  O   UNL     1      42.298 -15.128   5.108  1.00  0.00    -0.247 OA
HETATM   24  H   UNL     1      44.244 -16.416   4.735  1.00  0.00     0.170 HD
HETATM   25  O   UNL     1      39.671 -15.962   2.002  1.00  0.00    -0.271 OA
BRANCH  22  26
HETATM   26  C   UNL     1      43.657 -18.172   3.809  1.00  0.00     0.042 A 
HETATM   27  C   UNL     1      44.204 -19.269   4.497  1.00  0.00    -0.035 A 
HETATM   28  C   UNL     1      44.700 -19.215   5.917  1.00  0.00     0.050 C 
HETATM   29  C   UNL     1      44.389 -20.480   3.800  1.00  0.00     0.015 A 
HETATM   30  C   UNL     1      44.087 -20.597   2.438  1.00  0.00    -0.061 A 
HETATM   31  C   UNL     1      44.355 -21.874   1.697  1.00  0.00     0.048 C 
HETATM   32  C   UNL     1      43.609 -19.478   1.756  1.00  0.00     0.009 A 
HETATM   33  C   UNL     1      43.405 -18.276   2.434  1.00  0.00     0.030 A 
ENDBRANCH  22  26
ENDBRANCH   1  18
TORSDOF 8
ENDMDL
MODEL 4
REMARK VINA RESULT:      -8.4      2.536      4.520
REMARK  8 active torsions:
REMARK  status: ('A' for Active; 'I' for Inactive)
REMARK    1  A    between atoms: C_2  and  O_3 
REMARK    2  A    between atoms: O_3  and  C_4 
REMARK    3  A    between atoms: C_4  and  C_5 
REMARK    4  A    between atoms: C_6  and  C_7 
REMARK    5  A    between atoms: C_7  and  O_8 
REMARK    6  A    between atoms: O_8  and  C_9 
REMARK    7  A    between atoms: C_9  and  C_10 
REMARK       I    between atoms: C_10  and  N_11 
REMARK       I    between atoms: N_11  and  C_12 
REMARK       I    between atoms: C_12  and  N_13 
REMARK    8  A    between atoms: N_13  and  C_14 
ROOT
HETATM    1  C   UNL     1      43.578 -14.145   5.818  1.00  0.00     0.282 C 
ENDROOT
BRANCH   1   2
HETATM    2  O   UNL     1      43.897 -15.540   5.892  1.00  0.00    -0.307 OA
BRANCH   2   3
HETATM    3  C   UNL     1      42.796 -16.351   5.858  1.00  0.00     0.318 C 
HETATM    4  O   UNL     1      41.792 -16.174   6.541  1.00  0.00    -0.257 OA
BRANCH   3   5
HETATM    5  C   UNL     1      42.980 -17.413   4.900  1.00  0.00     0.160 A 
HETATM    6  C   UNL     1      42.378 -17.706   3.680  1.00  0.00     0.018 A 
HETATM    7  C   UNL     1      43.037 -18.877   3.187  1.00  0.00     0.009 A 
HETATM    8  C   UNL     1      43.987 -19.214   4.140  1.00  0.00     0.087 A 
HETATM    9  C   UNL     1      42.948 -19.675   2.029  1.00  0.00     0.015 A 
HETATM   10  O   UNL     1      43.959 -18.331   5.167  1.00  0.00    -0.303 OA
HETATM   11  C   UNL     1      44.853 -20.299   4.039  1.00  0.00     0.038 A 
HETATM   12  C   UNL     1      44.744 -21.081   2.886  1.00  0.00     0.003 A 
HETATM   13  C   UNL     1      43.809 -20.774   1.894  1.00  0.00     0.001 A 
BRANCH   6  14
HETATM   14  C   UNL     1      41.332 -16.911   2.984  1.00  0.00     0.210 C 
BRANCH  14  15
HETATM   15  O   UNL     1      41.926 -15.767   2.369  1.00  0.00    -0.387 OA
BRANCH  15  16
HETATM   16  C   UNL     1      42.515 -16.077   1.111  1.00  0.00     0.163 C 
HETATM   17  C   UNL     1      41.427 -16.599   0.192  1.00  0.00     0.033 C 
ENDBRANCH  15  16
ENDBRANCH  14  15
ENDBRANCH   6  14
ENDBRANCH   3   5
ENDBRANCH   2   3
ENDBRANCH   1   2
BRANCH   1  18
HETATM   18  C   UNL     1      43.319 -13.658   4.385  1.00  0.00     0.249 C 
HETATM   19  N   UNL     1      42.059 -13.252   4.010  1.00  0.00    -0.277 N 
HETATM   20  C   UNL     1      40.930 -13.144   4.776  1.00  0.00     0.327 C 
HETATM   21  H   UNL     1      41.955 -13.197   3.011  1.00  0.00     0.173 HD
HETATM   22  N   UNL     1      39.729 -13.210   4.128  1.00  0.00    -0.308 N 
HETATM   23  O   UNL     1      40.934 -13.039   6.000  1.00  0.00    -0.247 OA
HETATM   24  H   UNL     1      39.008 -13.574   4.739  1.00  0.00     0.170 HD
HETATM   25  O   UNL     1      44.216 -13.667   3.536  1.00  0.00    -0.271 OA
BRANCH  22  26
HETATM   26  C   UNL     1      39.408 -13.097   2.765  1.00  0.00     0.042 A 
HETATM   27  C   UNL     1      39.448 -11.897   2.035  1.00  0.00    -0.035 A 
HETATM   28  C   UNL     1      39.762 -10.552   2.634  1.00  0.00     0.050 C 
HETATM   29  C   UNL     1      39.087 -11.923   0.672  1.00  0.00     0.015 A 
HETATM   30  C   UNL     1      38.648 -13.097   0.051  1.00  0.00    -0.061 A 
HETATM   31  C   UNL     1      38.203 -13.090  -1.382  1.00  0.00     0.048 C 
HETATM   32  C   UNL     1      38.550 -14.264   0.809  1.00  0.00     0.009 A 
HETATM   33  C   UNL     1      38.919 -14.260   2.155  1.00  0.00     0.030 A 
ENDBRANCH  22  26
ENDBRANCH   1  18
TORSDOF 8
ENDMDL
MODEL 5
REMARK VINA RESULT:      -8.4      1.543      2.227
REMARK  8 active torsions:
REMARK  status: ('A' for Active; 'I' for Inactive)
REMARK    1  A    between atoms: C_2  and  O_3 
REMARK    2  A    between atoms: O_3  and  C_4 
REMARK    3  A    between atoms: C_4  and  C_5 
REMARK    4  A    between atoms: C_6  and  C_7 
REMARK    5  A    between atoms: C_7  and  O_8 
REMARK    6  A    between atoms: O_8  and  C_9 
REMARK    7  A    between atoms: C_9  and  C_10 
REMARK       I    between atoms: C_10  and  N_11 
REMARK       I    between atoms: N_11  and  C_12 
REMARK       I    between atoms: C_12  and  N_13 
REMARK    8  A    between atoms: N_13  and  C_14 
ROOT
HETATM    1  C   UNL     1      41.102 -15.029   2.411  1.00  0.00     0.282 C 
ENDROOT
BRANCH   1   2
HETATM    2  O   UNL     1      41.528 -16.237   3.051  1.00  0.00    -0.307 OA
BRANCH   2   3
HETATM    3  C   UNL     1      42.862 -16.247   3.359  1.00  0.00     0.318 C 
HETATM    4  O   UNL     1      43.526 -15.235   3.560  1.00  0.00    -0.257 OA
BRANCH   3   5
HETATM    5  C   UNL     1      43.354 -17.600   3.431  1.00  0.00     0.160 A 
HETATM    6  C   UNL     1      44.007 -18.321   4.426  1.00  0.00     0.018 A 
HETATM    7  C   UNL     1      44.188 -19.641   3.901  1.00  0.00     0.009 A 
HETATM    8  C   UNL     1      43.638 -19.627   2.628  1.00  0.00     0.087 A 
HETATM    9  C   UNL     1      44.737 -20.849   4.373  1.00  0.00     0.015 A 
HETATM   10  O   UNL     1      43.130 -18.404   2.346  1.00  0.00    -0.303 OA
HETATM   11  C   UNL     1      43.603 -20.726   1.773  1.00  0.00     0.038 A 
HETATM   12  C   UNL     1      44.160 -21.912   2.259  1.00  0.00     0.003 A 
HETATM   13  C   UNL     1      44.715 -21.976   3.539  1.00  0.00     0.001 A 
BRANCH   6  14
HETATM   14  C   UNL     1      44.357 -17.848   5.791  1.00  0.00     0.210 C 
BRANCH  14  15
HETATM   15  O   UNL     1      43.315 -18.194   6.704  1.00  0.00    -0.387 OA
BRANCH  15  16
HETATM   16  C   UNL     1      42.818 -17.061   7.408  1.00  0.00     0.163 C 
HETATM   17  C   UNL     1      43.792 -15.914   7.211  1.00  0.00     0.033 C 
ENDBRANCH  15  16
ENDBRANCH  14  15
ENDBRANCH   6  14
ENDBRANCH   3   5
ENDBRANCH   2   3
ENDBRANCH   1   2
BRANCH   1  18
HETATM   18  C   UNL     1      39.806 -15.195   1.603  1.00  0.00     0.249 C 
HETATM   19  N   UNL     1      39.836 -15.140   0.229  1.00  0.00    -0.277 N 
HETATM   20  C   UNL     1      40.917 -15.016  -0.600  1.00  0.00     0.327 C 
HETATM   21  H   UNL     1      38.921 -15.012  -0.170  1.00  0.00     0.173 HD
HETATM   22  N   UNL     1      40.692 -14.494  -1.843  1.00  0.00    -0.308 N 
HETATM   23  O   UNL     1      42.069 -15.298  -0.280  1.00  0.00    -0.247 OA
HETATM   24  H   UNL     1      41.519 -14.025  -2.194  1.00  0.00     0.170 HD
HETATM   25  O   UNL     1      38.715 -15.330   2.168  1.00  0.00    -0.271 OA
BRANCH  22  26
HETATM   26  C   UNL     1      39.500 -14.299  -2.560  1.00  0.00     0.042 A 
HETATM   27  C   UNL     1      38.680 -13.164  -2.446  1.00  0.00    -0.035 A 
HETATM   28  C   UNL     1      38.924 -12.037  -1.478  1.00  0.00     0.050 C 
HETATM   29  C   UNL     1      37.501 -13.101  -3.216  1.00  0.00     0.015 A 
HETATM   30  C   UNL     1      37.110 -14.157  -4.047  1.00  0.00    -0.061 A 
HETATM   31  C   UNL     1      35.817 -14.101  -4.806  1.00  0.00     0.048 C 
HETATM   32  C   UNL     1      37.902 -15.305  -4.096  1.00  0.00     0.009 A 
HETATM   33  C   UNL     1      39.081 -15.377  -3.352  1.00  0.00     0.030 A 
ENDBRANCH  22  26
ENDBRANCH   1  18
TORSDOF 8
ENDMDL
MODEL 6
REMARK VINA RESULT:      -8.3      4.259      7.620
REMARK  8 active torsions:
REMARK  status: ('A' for Active; 'I' for Inactive)
REMARK    1  A    between atoms: C_2  and  O_3 
REMARK    2  A    between atoms: O_3  and  C_4 
REMARK    3  A    between atoms: C_4  and  C_5 
REMARK    4  A    between atoms: C_6  and  C_7 
REMARK    5  A    between atoms: C_7  and  O_8 
REMARK    6  A    between atoms: O_8  and  C_9 
REMARK    7  A    between atoms: C_9  and  C_10 
REMARK       I    between atoms: C_10  and  N_11 
REMARK       I    between atoms: N_11  and  C_12 
REMARK       I    between atoms: C_12  and  N_13 
REMARK    8  A    between atoms: N_13  and  C_14 
ROOT
HETATM    1  C   UNL     1      41.011 -13.537   4.165  1.00  0.00     0.282 C 
ENDROOT
BRANCH   1   2
HETATM    2  O   UNL     1      41.545 -14.721   3.562  1.00  0.00    -0.307 OA
BRANCH   2   3
HETATM    3  C   UNL     1      42.910 -14.796   3.628  1.00  0.00     0.318 C 
HETATM    4  O   UNL     1      43.652 -13.820   3.590  1.00  0.00    -0.257 OA
BRANCH   3   5
HETATM    5  C   UNL     1      43.334 -16.167   3.767  1.00  0.00     0.160 A 
HETATM    6  C   UNL     1      43.599 -16.972   4.871  1.00  0.00     0.018 A 
HETATM    7  C   UNL     1      43.937 -18.260   4.347  1.00  0.00     0.009 A 
HETATM    8  C   UNL     1      43.857 -18.147   2.967  1.00  0.00     0.087 A 
HETATM    9  C   UNL     1      44.279 -19.514   4.891  1.00  0.00     0.015 A 
HETATM   10  O   UNL     1      43.489 -16.892   2.616  1.00  0.00    -0.303 OA
HETATM   11  C   UNL     1      44.108 -19.187   2.075  1.00  0.00     0.038 A 
HETATM   12  C   UNL     1      44.453 -20.420   2.636  1.00  0.00     0.003 A 
HETATM   13  C   UNL     1      44.534 -20.584   4.020  1.00  0.00     0.001 A 
BRANCH   6  14
HETATM   14  C   UNL     1      43.464 -16.598   6.304  1.00  0.00     0.210 C 
BRANCH  14  15
HETATM   15  O   UNL     1      44.607 -15.846   6.715  1.00  0.00    -0.387 OA
BRANCH  15  16
HETATM   16  C   UNL     1      44.259 -14.538   7.156  1.00  0.00     0.163 C 
HETATM   17  C   UNL     1      45.449 -13.627   6.924  1.00  0.00     0.033 C 
ENDBRANCH  15  16
ENDBRANCH  14  15
ENDBRANCH   6  14
ENDBRANCH   3   5
ENDBRANCH   2   3
ENDBRANCH   1   2
BRANCH   1  18
HETATM   18  C   UNL     1      40.792 -13.674   5.679  1.00  0.00     0.249 C 
HETATM   19  N   UNL     1      40.992 -12.594   6.508  1.00  0.00    -0.277 N 
HETATM   20  C   UNL     1      41.317 -11.307   6.175  1.00  0.00     0.327 C 
HETATM   21  H   UNL     1      41.063 -12.861   7.475  1.00  0.00     0.173 HD
HETATM   22  N   UNL     1      41.938 -10.555   7.131  1.00  0.00    -0.308 N 
HETATM   23  O   UNL     1      41.127 -10.812   5.066  1.00  0.00    -0.247 OA
HETATM   24  H   UNL     1      42.527  -9.846   6.708  1.00  0.00     0.170 HD
HETATM   25  O   UNL     1      40.484 -14.760   6.184  1.00  0.00    -0.271 OA
BRANCH  22  26
HETATM   26  C   UNL     1      42.078 -10.752   8.514  1.00  0.00     0.042 A 
HETATM   27  C   UNL     1      41.075 -10.485   9.462  1.00  0.00    -0.035 A 
HETATM   28  C   UNL     1      39.739  -9.874   9.131  1.00  0.00     0.050 C 
HETATM   29  C   UNL     1      41.353 -10.716  10.824  1.00  0.00     0.015 A 
HETATM   30  C   UNL     1      42.611 -11.155  11.253  1.00  0.00    -0.061 A 
HETATM   31  C   UNL     1      42.909 -11.329  12.713  1.00  0.00     0.048 C 
HETATM   32  C   UNL     1      43.616 -11.349  10.305  1.00  0.00     0.009 A 
HETATM   33  C   UNL     1      43.352 -11.141   8.950  1.00  0.00     0.030 A 
ENDBRANCH  22  26
ENDBRANCH   1  18
TORSDOF 8
ENDMDL
MODEL 7
REMARK VINA RESULT:      -8.3      4.640      8.770
REMARK  8 active torsions:
REMARK  status: ('A' for Active; 'I' for Inactive)
REMARK    1  A    between atoms: C_2  and  O_3 
REMARK    2  A    between atoms: O_3  and  C_4 
REMARK    3  A    between atoms: C_4  and  C_5 
REMARK    4  A    between atoms: C_6  and  C_7 
REMARK    5  A    between atoms: C_7  and  O_8 
REMARK    6  A    between atoms: O_8  and  C_9 
REMARK    7  A    between atoms: C_9  and  C_10 
REMARK       I    between atoms: C_10  and  N_11 
REMARK       I    between atoms: N_11  and  C_12 
REMARK       I    between atoms: C_12  and  N_13 
REMARK    8  A    between atoms: N_13  and  C_14 
ROOT
HETATM    1  C   UNL     1      41.473 -12.300   5.349  1.00  0.00     0.282 C 
ENDROOT
BRANCH   1   2
HETATM    2  O   UNL     1      41.735 -12.244   6.756  1.00  0.00    -0.307 OA
BRANCH   2   3
HETATM    3  C   UNL     1      41.940 -10.973   7.220  1.00  0.00     0.318 C 
HETATM    4  O   UNL     1      41.918  -9.973   6.510  1.00  0.00    -0.257 OA
BRANCH   3   5
HETATM    5  C   UNL     1      42.160 -10.985   8.644  1.00  0.00     0.160 A 
HETATM    6  C   UNL     1      43.268 -11.282   9.432  1.00  0.00     0.018 A 
HETATM    7  C   UNL     1      42.860 -11.060  10.786  1.00  0.00     0.009 A 
HETATM    8  C   UNL     1      41.538 -10.647  10.726  1.00  0.00     0.087 A 
HETATM    9  C   UNL     1      43.473 -11.141  12.052  1.00  0.00     0.015 A 
HETATM   10  O   UNL     1      41.116 -10.595   9.440  1.00  0.00    -0.303 OA
HETATM   11  C   UNL     1      40.764 -10.320  11.837  1.00  0.00     0.038 A 
HETATM   12  C   UNL     1      41.389 -10.415  13.083  1.00  0.00     0.003 A 
HETATM   13  C   UNL     1      42.723 -10.815  13.191  1.00  0.00     0.001 A 
BRANCH   6  14
HETATM   14  C   UNL     1      44.626 -11.661   8.959  1.00  0.00     0.210 C 
BRANCH  14  15
HETATM   15  O   UNL     1      44.724 -13.082   8.863  1.00  0.00    -0.387 OA
BRANCH  15  16
HETATM   16  C   UNL     1      45.086 -13.509   7.554  1.00  0.00     0.163 C 
HETATM   17  C   UNL     1      44.373 -14.817   7.266  1.00  0.00     0.033 C 
ENDBRANCH  15  16
ENDBRANCH  14  15
ENDBRANCH   6  14
ENDBRANCH   3   5
ENDBRANCH   2   3
ENDBRANCH   1   2
BRANCH   1  18
HETATM   18  C   UNL     1      42.419 -13.244   4.593  1.00  0.00     0.249 C 
HETATM   19  N   UNL     1      41.975 -14.476   4.171  1.00  0.00    -0.277 N 
HETATM   20  C   UNL     1      40.720 -15.013   4.265  1.00  0.00     0.327 C 
HETATM   21  H   UNL     1      42.731 -15.091   3.919  1.00  0.00     0.173 HD
HETATM   22  N   UNL     1      40.623 -16.376   4.247  1.00  0.00    -0.308 N 
HETATM   23  O   UNL     1      39.695 -14.351   4.410  1.00  0.00    -0.247 OA
HETATM   24  H   UNL     1      39.803 -16.687   4.756  1.00  0.00     0.170 HD
HETATM   25  O   UNL     1      43.600 -12.940   4.395  1.00  0.00    -0.271 OA
BRANCH  22  26
HETATM   26  C   UNL     1      41.550 -17.363   3.875  1.00  0.00     0.042 A 
HETATM   27  C   UNL     1      42.396 -18.037   4.772  1.00  0.00    -0.035 A 
HETATM   28  C   UNL     1      42.482 -17.736   6.244  1.00  0.00     0.050 C 
HETATM   29  C   UNL     1      43.292 -18.999   4.262  1.00  0.00     0.015 A 
HETATM   30  C   UNL     1      43.390 -19.258   2.891  1.00  0.00    -0.061 A 
HETATM   31  C   UNL     1      44.397 -20.235   2.361  1.00  0.00     0.048 C 
HETATM   32  C   UNL     1      42.590 -18.530   2.009  1.00  0.00     0.009 A 
HETATM   33  C   UNL     1      41.686 -17.586   2.498  1.00  0.00     0.030 A 
ENDBRANCH  22  26
ENDBRANCH   1  18
TORSDOF 8
ENDMDL
MODEL 8
REMARK VINA RESULT:      -8.3      2.282      7.874
REMARK  8 active torsions:
REMARK  status: ('A' for Active; 'I' for Inactive)
REMARK    1  A    between atoms: C_2  and  O_3 
REMARK    2  A    between atoms: O_3  and  C_4 
REMARK    3  A    between atoms: C_4  and  C_5 
REMARK    4  A    between atoms: C_6  and  C_7 
REMARK    5  A    between atoms: C_7  and  O_8 
REMARK    6  A    between atoms: O_8  and  C_9 
REMARK    7  A    between atoms: C_9  and  C_10 
REMARK       I    between atoms: C_10  and  N_11 
REMARK       I    between atoms: N_11  and  C_12 
REMARK       I    between atoms: C_12  and  N_13 
REMARK    8  A    between atoms: N_13  and  C_14 
ROOT
HETATM    1  C   UNL     1      40.724 -13.912   4.014  1.00  0.00     0.282 C 
ENDROOT
BRANCH   1   2
HETATM    2  O   UNL     1      40.915 -12.961   2.960  1.00  0.00    -0.307 OA
BRANCH   2   3
HETATM    3  C   UNL     1      42.091 -13.131   2.282  1.00  0.00     0.318 C 
HETATM    4  O   UNL     1      43.192 -13.186   2.822  1.00  0.00    -0.257 OA
BRANCH   3   5
HETATM    5  C   UNL     1      41.845 -13.255   0.867  1.00  0.00     0.160 A 
HETATM    6  C   UNL     1      41.907 -12.354  -0.191  1.00  0.00     0.018 A 
HETATM    7  C   UNL     1      41.593 -13.105  -1.368  1.00  0.00     0.009 A 
HETATM    8  C   UNL     1      41.360 -14.404  -0.944  1.00  0.00     0.087 A 
HETATM    9  C   UNL     1      41.503 -12.831  -2.747  1.00  0.00     0.015 A 
HETATM   10  O   UNL     1      41.517 -14.499   0.398  1.00  0.00    -0.303 OA
HETATM   11  C   UNL     1      41.026 -15.460  -1.788  1.00  0.00     0.038 A 
HETATM   12  C   UNL     1      40.935 -15.165  -3.151  1.00  0.00     0.003 A 
HETATM   13  C   UNL     1      41.173 -13.873  -3.626  1.00  0.00     0.001 A 
BRANCH   6  14
HETATM   14  C   UNL     1      42.312 -10.924  -0.126  1.00  0.00     0.210 C 
BRANCH  14  15
HETATM   15  O   UNL     1      43.670 -10.789  -0.548  1.00  0.00    -0.387 OA
BRANCH  15  16
HETATM   16  C   UNL     1      43.849  -9.693  -1.440  1.00  0.00     0.163 C 
HETATM   17  C   UNL     1      42.481  -9.216  -1.887  1.00  0.00     0.033 C 
ENDBRANCH  15  16
ENDBRANCH  14  15
ENDBRANCH   6  14
ENDBRANCH   3   5
ENDBRANCH   2   3
ENDBRANCH   1   2
BRANCH   1  18
HETATM   18  C   UNL     1      40.647 -15.363   3.515  1.00  0.00     0.249 C 
HETATM   19  N   UNL     1      41.647 -16.255   3.825  1.00  0.00    -0.277 N 
HETATM   20  C   UNL     1      42.748 -16.067   4.615  1.00  0.00     0.327 C 
HETATM   21  H   UNL     1      41.618 -17.079   3.249  1.00  0.00     0.173 HD
HETATM   22  N   UNL     1      43.824 -16.879   4.388  1.00  0.00    -0.308 N 
HETATM   23  O   UNL     1      42.842 -15.192   5.473  1.00  0.00    -0.247 OA
HETATM   24  H   UNL     1      44.687 -16.417   4.648  1.00  0.00     0.170 HD
HETATM   25  O   UNL     1      39.720 -15.739   2.790  1.00  0.00    -0.271 OA
BRANCH  22  26
HETATM   26  C   UNL     1      43.939 -18.078   3.666  1.00  0.00     0.042 A 
HETATM   27  C   UNL     1      43.919 -18.167   2.264  1.00  0.00    -0.035 A 
HETATM   28  C   UNL     1      43.690 -16.996   1.345  1.00  0.00     0.050 C 
HETATM   29  C   UNL     1      44.031 -19.438   1.665  1.00  0.00     0.015 A 
HETATM   30  C   UNL     1      44.112 -20.606   2.431  1.00  0.00    -0.061 A 
HETATM   31  C   UNL     1      44.161 -21.955   1.776  1.00  0.00     0.048 C 
HETATM   32  C   UNL     1      44.061 -20.504   3.822  1.00  0.00     0.009 A 
HETATM   33  C   UNL     1      43.967 -19.252   4.431  1.00  0.00     0.030 A 
ENDBRANCH  22  26
ENDBRANCH   1  18
TORSDOF 8
ENDMDL
MODEL 9
REMARK VINA RESULT:      -8.0      4.889      8.844
REMARK  8 active torsions:
REMARK  status: ('A' for Active; 'I' for Inactive)
REMARK    1  A    between atoms: C_2  and  O_3 
REMARK    2  A    between atoms: O_3  and  C_4 
REMARK    3  A    between atoms: C_4  and  C_5 
REMARK    4  A    between atoms: C_6  and  C_7 
REMARK    5  A    between atoms: C_7  and  O_8 
REMARK    6  A    between atoms: O_8  and  C_9 
REMARK    7  A    between atoms: C_9  and  C_10 
REMARK       I    between atoms: C_10  and  N_11 
REMARK       I    between atoms: N_11  and  C_12 
REMARK       I    between atoms: C_12  and  N_13 
REMARK    8  A    between atoms: N_13  and  C_14 
ROOT
HETATM    1  C   UNL     1      41.816 -12.516   4.415  1.00  0.00     0.282 C 
ENDROOT
BRANCH   1   2
HETATM    2  O   UNL     1      41.825 -12.477   5.847  1.00  0.00    -0.307 OA
BRANCH   2   3
HETATM    3  C   UNL     1      41.307 -11.319   6.361  1.00  0.00     0.318 C 
HETATM    4  O   UNL     1      40.425 -10.662   5.818  1.00  0.00    -0.257 OA
BRANCH   3   5
HETATM    5  C   UNL     1      41.928 -11.005   7.624  1.00  0.00     0.160 A 
HETATM    6  C   UNL     1      41.530 -10.236   8.712  1.00  0.00     0.018 A 
HETATM    7  C   UNL     1      42.574 -10.358   9.684  1.00  0.00     0.009 A 
HETATM    8  C   UNL     1      43.530 -11.188   9.118  1.00  0.00     0.087 A 
HETATM    9  C   UNL     1      42.802  -9.875  10.988  1.00  0.00     0.015 A 
HETATM   10  O   UNL     1      43.142 -11.583   7.882  1.00  0.00    -0.303 OA
HETATM   11  C   UNL     1      44.714 -11.567   9.746  1.00  0.00     0.038 A 
HETATM   12  C   UNL     1      44.924 -11.072  11.035  1.00  0.00     0.003 A 
HETATM   13  C   UNL     1      43.983 -10.242  11.650  1.00  0.00     0.001 A 
BRANCH   6  14
HETATM   14  C   UNL     1      40.241  -9.512   8.874  1.00  0.00     0.210 C 
BRANCH  14  15
HETATM   15  O   UNL     1      39.374 -10.258   9.731  1.00  0.00    -0.387 OA
BRANCH  15  16
HETATM   16  C   UNL     1      38.739  -9.434  10.702  1.00  0.00     0.163 C 
HETATM   17  C   UNL     1      39.296  -9.791  12.067  1.00  0.00     0.033 C 
ENDBRANCH  15  16
ENDBRANCH  14  15
ENDBRANCH   6  14
ENDBRANCH   3   5
ENDBRANCH   2   3
ENDBRANCH   1   2
BRANCH   1  18
HETATM   18  C   UNL     1      42.789 -13.551   3.831  1.00  0.00     0.249 C 
HETATM   19  N   UNL     1      42.357 -14.828   3.556  1.00  0.00    -0.277 N 
HETATM   20  C   UNL     1      41.096 -15.348   3.665  1.00  0.00     0.327 C 
HETATM   21  H   UNL     1      43.119 -15.470   3.420  1.00  0.00     0.173 HD
HETATM   22  N   UNL     1      40.992 -16.701   3.822  1.00  0.00    -0.308 N 
HETATM   23  O   UNL     1      40.069 -14.673   3.677  1.00  0.00    -0.247 OA
HETATM   24  H   UNL     1      40.150 -16.943   4.331  1.00  0.00     0.170 HD
HETATM   25  O   UNL     1      43.979 -13.275   3.646  1.00  0.00    -0.271 OA
BRANCH  22  26
HETATM   26  C   UNL     1      41.930 -17.728   3.623  1.00  0.00     0.042 A 
HETATM   27  C   UNL     1      42.727 -18.285   4.638  1.00  0.00    -0.035 A 
HETATM   28  C   UNL     1      42.743 -17.801   6.064  1.00  0.00     0.050 C 
HETATM   29  C   UNL     1      43.639 -19.304   4.298  1.00  0.00     0.015 A 
HETATM   30  C   UNL     1      43.801 -19.735   2.977  1.00  0.00    -0.061 A 
HETATM   31  C   UNL     1      44.827 -20.771   2.624  1.00  0.00     0.048 C 
HETATM   32  C   UNL     1      43.050 -19.122   1.972  1.00  0.00     0.009 A 
HETATM   33  C   UNL     1      42.130 -18.123   2.294  1.00  0.00     0.030 A 
ENDBRANCH  22  26
ENDBRANCH   1  18
TORSDOF 8
ENDMDL
MODEL 10
REMARK VINA RESULT:      -8.0      1.424      1.676
REMARK  8 active torsions:
REMARK  status: ('A' for Active; 'I' for Inactive)
REMARK    1  A    between atoms: C_2  and  O_3 
REMARK    2  A    between atoms: O_3  and  C_4 
REMARK    3  A    between atoms: C_4  and  C_5 
REMARK    4  A    between atoms: C_6  and  C_7 
REMARK    5  A    between atoms: C_7  and  O_8 
REMARK    6  A    between atoms: O_8  and  C_9 
REMARK    7  A    between atoms: C_9  and  C_10 
REMARK       I    between atoms: C_10  and  N_11 
REMARK       I    between atoms: N_11  and  C_12 
REMARK       I    between atoms: C_12  and  N_13 
REMARK    8  A    between atoms: N_13  and  C_14 
ROOT
HETATM    1  C   UNL     1      40.900 -15.016   3.613  1.00  0.00     0.282 C 
ENDROOT
BRANCH   1   2
HETATM    2  O   UNL     1      41.498 -16.303   3.418  1.00  0.00    -0.307 OA
BRANCH   2   3
HETATM    3  C   UNL     1      42.625 -16.497   4.170  1.00  0.00     0.318 C 
HETATM    4  O   UNL     1      43.071 -15.674   4.963  1.00  0.00    -0.257 OA
BRANCH   3   5
HETATM    5  C   UNL     1      43.187 -17.800   3.911  1.00  0.00     0.160 A 
HETATM    6  C   UNL     1      44.077 -18.606   4.612  1.00  0.00     0.018 A 
HETATM    7  C   UNL     1      44.204 -19.810   3.848  1.00  0.00     0.009 A 
HETATM    8  C   UNL     1      43.386 -19.650   2.740  1.00  0.00     0.087 A 
HETATM    9  C   UNL     1      44.902 -21.026   3.987  1.00  0.00     0.015 A 
HETATM   10  O   UNL     1      42.769 -18.445   2.778  1.00  0.00    -0.303 OA
HETATM   11  C   UNL     1      43.218 -20.605   1.740  1.00  0.00     0.038 A 
HETATM   12  C   UNL     1      43.926 -21.800   1.893  1.00  0.00     0.003 A 
HETATM   13  C   UNL     1      44.752 -22.011   3.000  1.00  0.00     0.001 A 
BRANCH   6  14
HETATM   14  C   UNL     1      44.697 -18.318   5.933  1.00  0.00     0.210 C 
BRANCH  14  15
HETATM   15  O   UNL     1      44.365 -19.355   6.857  1.00  0.00    -0.387 OA
BRANCH  15  16
HETATM   16  C   UNL     1      43.967 -18.840   8.123  1.00  0.00     0.163 C 
HETATM   17  C   UNL     1      43.592 -17.381   7.946  1.00  0.00     0.033 C 
ENDBRANCH  15  16
ENDBRANCH  14  15
ENDBRANCH   6  14
ENDBRANCH   3   5
ENDBRANCH   2   3
ENDBRANCH   1   2
BRANCH   1  18
HETATM   18  C   UNL     1      41.393 -13.961   2.611  1.00  0.00     0.249 C 
HETATM   19  N   UNL     1      40.755 -13.804   1.403  1.00  0.00    -0.277 N 
HETATM   20  C   UNL     1      39.633 -14.435   0.937  1.00  0.00     0.327 C 
HETATM   21  H   UNL     1      41.304 -13.276   0.745  1.00  0.00     0.173 HD
HETATM   22  N   UNL     1      39.474 -14.502  -0.418  1.00  0.00    -0.308 N 
HETATM   23  O   UNL     1      38.798 -14.978   1.656  1.00  0.00    -0.247 OA
HETATM   24  H   UNL     1      38.933 -15.318  -0.679  1.00  0.00     0.170 HD
HETATM   25  O   UNL     1      42.392 -13.274   2.848  1.00  0.00    -0.271 OA
BRANCH  22  26
HETATM   26  C   UNL     1      40.110 -13.805  -1.458  1.00  0.00     0.042 A 
HETATM   27  C   UNL     1      40.778 -14.415  -2.533  1.00  0.00    -0.035 A 
HETATM   28  C   UNL     1      40.972 -15.901  -2.675  1.00  0.00     0.050 C 
HETATM   29  C   UNL     1      41.386 -13.594  -3.505  1.00  0.00     0.015 A 
HETATM   30  C   UNL     1      41.382 -12.199  -3.395  1.00  0.00    -0.061 A 
HETATM   31  C   UNL     1      42.094 -11.345  -4.402  1.00  0.00     0.048 C 
HETATM   32  C   UNL     1      40.773 -11.613  -2.285  1.00  0.00     0.009 A 
HETATM   33  C   UNL     1      40.151 -12.410  -1.323  1.00  0.00     0.030 A 
ENDBRANCH  22  26
ENDBRANCH   1  18
TORSDOF 8
ENDMDL
