MODEL 1
REMARK VINA RESULT:      -7.5      0.000      0.000
REMARK  5 active torsions:
REMARK  status: ('A' for Active; 'I' for Inactive)
REMARK    1  A    between atoms: C_2  and  N_3 
REMARK       I    between atoms: N_3  and  C_4 
REMARK       I    between atoms: C_4  and  N_5 
REMARK    2  A    between atoms: N_5  and  C_6 
REMARK    3  A    between atoms: C_20  and  C_21 
REMARK    4  A    between atoms: C_21  and  O_22 
REMARK    5  A    between atoms: O_22  and  C_23 
ROOT
HETATM    1  C   UNL     1      42.303 -15.549   1.780  1.00  0.00     0.095 A 
HETATM    2  S   UNL     1      41.598 -14.288   2.672  1.00  0.00    -0.073 SA
HETATM    3  C   UNL     1      41.926 -15.029   4.163  1.00  0.00     0.027 A 
HETATM    4  C   UNL     1      42.669 -16.185   4.000  1.00  0.00    -0.021 A 
HETATM    5  C   UNL     1      43.126 -16.996   5.186  1.00  0.00     0.079 C 
HETATM    6  C   UNL     1      43.136 -16.184   6.506  1.00  0.00     0.124 C 
HETATM    7  C   UNL     1      44.355 -15.259   6.606  1.00  0.00     0.046 C 
HETATM    8  C   UNL     1      43.146 -17.146   7.707  1.00  0.00     0.046 C 
HETATM    9  N   UNL     1      41.854 -15.367   6.632  1.00  0.00    -0.054 N 
HETATM   10  H   UNL     1      41.088 -16.044   6.745  1.00  0.00     0.279 HD
HETATM   11  H   UNL     1      41.865 -14.825   7.504  1.00  0.00     0.279 HD
HETATM   12  C   UNL     1      41.449 -14.449   5.472  1.00  0.00     0.153 C 
HETATM   13  C   UNL     1      39.909 -14.386   5.524  1.00  0.00     0.052 C 
HETATM   14  C   UNL     1      42.017 -13.048   5.748  1.00  0.00     0.052 C 
HETATM   15  C   UNL     1      42.883 -16.513   2.596  1.00  0.00     0.081 A 
ENDROOT
BRANCH   1  16
HETATM   16  N   UNL     1      42.288 -15.510   0.394  1.00  0.00    -0.302 N 
HETATM   17  C   UNL     1      41.239 -15.111  -0.412  1.00  0.00     0.321 C 
HETATM   18  N   UNL     1      41.610 -15.156  -1.744  1.00  0.00    -0.343 N 
HETATM   19  O   UNL     1      40.113 -14.791  -0.053  1.00  0.00    -0.247 OA
HETATM   20  H   UNL     1      42.583 -14.958  -1.931  1.00  0.00     0.164 HD
HETATM   21  H   UNL     1      43.024 -16.021  -0.078  1.00  0.00     0.171 HD
BRANCH  18  22
HETATM   22  C   UNL     1      40.674 -14.764  -2.784  1.00  0.00     0.120 C 
HETATM   23  C   UNL     1      39.982 -15.957  -3.419  1.00  0.00     0.026 C 
ENDBRANCH  18  22
ENDBRANCH   1  16
BRANCH  15  24
HETATM   24  C   UNL     1      43.579 -17.719   2.118  1.00  0.00     0.296 C 
HETATM   25  O   UNL     1      44.562 -17.660   1.389  1.00  0.00    -0.259 OA
BRANCH  24  26
HETATM   26  O   UNL     1      43.027 -18.885   2.565  1.00  0.00    -0.318 OA
BRANCH  26  27
HETATM   27  C   UNL     1      43.949 -19.956   2.835  1.00  0.00     0.174 C 
HETATM   28  C   UNL     1      43.715 -21.101   1.869  1.00  0.00     0.034 C 
ENDBRANCH  26  27
ENDBRANCH  24  26
ENDBRANCH  15  24
TORSDOF 5
ENDMDL
MODEL 2
REMARK VINA RESULT:      -7.3      3.674      7.394
REMARK  5 active torsions:
REMARK  status: ('A' for Active; 'I' for Inactive)
REMARK    1  A    between atoms: C_2  and  N_3 
REMARK       I    between atoms: N_3  and  C_4 
REMARK       I    between atoms: C_4  and  N_5 
REMARK    2  A    between atoms: N_5  and  C_6 
REMARK    3  A    between atoms: C_20  and  C_21 
REMARK    4  A    between atoms: C_21  and  O_22 
REMARK    5  A    between atoms: O_22  and  C_23 
ROOT
HETATM    1  C   UNL     1      43.698 -15.584   6.740  1.00  0.00     0.095 A 
HETATM    2  S   UNL     1      44.514 -17.071   6.814  1.00  0.00    -0.073 SA
HETATM    3  C   UNL     1      43.783 -17.653   5.397  1.00  0.00     0.027 A 
HETATM    4  C   UNL     1      42.999 -16.684   4.798  1.00  0.00    -0.021 A 
HETATM    5  C   UNL     1      42.283 -16.948   3.498  1.00  0.00     0.079 C 
HETATM    6  C   UNL     1      42.895 -18.128   2.700  1.00  0.00     0.124 C 
HETATM    7  C   UNL     1      44.180 -17.726   1.969  1.00  0.00     0.046 C 
HETATM    8  C   UNL     1      41.876 -18.638   1.666  1.00  0.00     0.046 C 
HETATM    9  N   UNL     1      43.175 -19.304   3.631  1.00  0.00    -0.054 N 
HETATM   10  H   UNL     1      42.259 -19.647   3.949  1.00  0.00     0.279 HD
HETATM   11  H   UNL     1      43.585 -20.083   3.102  1.00  0.00     0.279 HD
HETATM   12  C   UNL     1      44.005 -19.060   4.897  1.00  0.00     0.153 C 
HETATM   13  C   UNL     1      43.502 -20.100   5.918  1.00  0.00     0.052 C 
HETATM   14  C   UNL     1      45.477 -19.353   4.569  1.00  0.00     0.052 C 
HETATM   15  C   UNL     1      42.925 -15.462   5.591  1.00  0.00     0.081 A 
ENDROOT
BRANCH   1  16
HETATM   16  N   UNL     1      43.880 -14.643   7.742  1.00  0.00    -0.302 N 
HETATM   17  C   UNL     1      44.819 -13.629   7.767  1.00  0.00     0.321 C 
HETATM   18  N   UNL     1      44.663 -12.856   8.904  1.00  0.00    -0.343 N 
HETATM   19  O   UNL     1      45.705 -13.425   6.948  1.00  0.00    -0.247 OA
HETATM   20  H   UNL     1      43.715 -12.767   9.242  1.00  0.00     0.164 HD
HETATM   21  H   UNL     1      43.436 -14.842   8.630  1.00  0.00     0.171 HD
BRANCH  18  22
HETATM   22  C   UNL     1      45.530 -11.716   9.143  1.00  0.00     0.120 C 
HETATM   23  C   UNL     1      45.281 -11.075  10.498  1.00  0.00     0.026 C 
ENDBRANCH  18  22
ENDBRANCH   1  16
BRANCH  15  24
HETATM   24  C   UNL     1      42.112 -14.287   5.238  1.00  0.00     0.296 C 
HETATM   25  O   UNL     1      40.918 -14.215   5.501  1.00  0.00    -0.259 OA
BRANCH  24  26
HETATM   26  O   UNL     1      42.815 -13.306   4.598  1.00  0.00    -0.318 OA
BRANCH  26  27
HETATM   27  C   UNL     1      42.167 -12.705   3.464  1.00  0.00     0.174 C 
HETATM   28  C   UNL     1      42.409 -13.540   2.222  1.00  0.00     0.034 C 
ENDBRANCH  26  27
ENDBRANCH  24  26
ENDBRANCH  15  24
TORSDOF 5
ENDMDL
MODEL 3
REMARK VINA RESULT:      -7.1      3.072      4.947
REMARK  5 active torsions:
REMARK  status: ('A' for Active; 'I' for Inactive)
REMARK    1  A    between atoms: C_2  and  N_3 
REMARK       I    between atoms: N_3  and  C_4 
REMARK       I    between atoms: C_4  and  N_5 
REMARK    2  A    between atoms: N_5  and  C_6 
REMARK    3  A    between atoms: C_20  and  C_21 
REMARK    4  A    between atoms: C_21  and  O_22 
REMARK    5  A    between atoms: O_22  and  C_23 
ROOT
HETATM    1  C   UNL     1      40.170 -16.043   2.499  1.00  0.00     0.095 A 
HETATM    2  S   UNL     1      41.010 -17.189   1.570  1.00  0.00    -0.073 SA
HETATM    3  C   UNL     1      42.238 -17.371   2.728  1.00  0.00     0.027 A 
HETATM    4  C   UNL     1      41.963 -16.646   3.874  1.00  0.00    -0.021 A 
HETATM    5  C   UNL     1      42.885 -16.686   5.065  1.00  0.00     0.079 C 
HETATM    6  C   UNL     1      43.808 -17.931   5.075  1.00  0.00     0.124 C 
HETATM    7  C   UNL     1      43.072 -19.192   5.539  1.00  0.00     0.046 C 
HETATM    8  C   UNL     1      45.004 -17.682   6.011  1.00  0.00     0.046 C 
HETATM    9  N   UNL     1      44.400 -18.157   3.687  1.00  0.00    -0.054 N 
HETATM   10  H   UNL     1      45.029 -17.364   3.507  1.00  0.00     0.279 HD
HETATM   11  H   UNL     1      45.007 -18.986   3.693  1.00  0.00     0.279 HD
HETATM   12  C   UNL     1      43.451 -18.236   2.485  1.00  0.00     0.153 C 
HETATM   13  C   UNL     1      44.272 -17.719   1.286  1.00  0.00     0.052 C 
HETATM   14  C   UNL     1      43.096 -19.712   2.250  1.00  0.00     0.052 C 
HETATM   15  C   UNL     1      40.754 -15.842   3.744  1.00  0.00     0.081 A 
ENDROOT
BRANCH   1  16
HETATM   16  N   UNL     1      39.016 -15.457   1.999  1.00  0.00    -0.302 N 
HETATM   17  C   UNL     1      38.936 -14.318   1.221  1.00  0.00     0.321 C 
HETATM   18  N   UNL     1      37.622 -14.068   0.869  1.00  0.00    -0.343 N 
HETATM   19  O   UNL     1      39.857 -13.581   0.894  1.00  0.00    -0.247 OA
HETATM   20  H   UNL     1      37.041 -14.885   0.749  1.00  0.00     0.164 HD
HETATM   21  H   UNL     1      38.144 -15.758   2.416  1.00  0.00     0.171 HD
BRANCH  18  22
HETATM   22  C   UNL     1      37.288 -12.927   0.033  1.00  0.00     0.120 C 
HETATM   23  C   UNL     1      36.812 -11.735   0.846  1.00  0.00     0.026 C 
ENDBRANCH  18  22
ENDBRANCH   1  16
BRANCH  15  24
HETATM   24  C   UNL     1      40.251 -14.920   4.776  1.00  0.00     0.296 C 
HETATM   25  O   UNL     1      39.960 -15.299   5.904  1.00  0.00    -0.259 OA
BRANCH  24  26
HETATM   26  O   UNL     1      40.145 -13.626   4.352  1.00  0.00    -0.318 OA
BRANCH  26  27
HETATM   27  C   UNL     1      41.385 -12.955   4.067  1.00  0.00     0.174 C 
HETATM   28  C   UNL     1      42.171 -12.748   5.347  1.00  0.00     0.034 C 
ENDBRANCH  26  27
ENDBRANCH  24  26
ENDBRANCH  15  24
TORSDOF 5
ENDMDL
MODEL 4
REMARK VINA RESULT:      -7.1      2.984      6.544
REMARK  5 active torsions:
REMARK  status: ('A' for Active; 'I' for Inactive)
REMARK    1  A    between atoms: C_2  and  N_3 
REMARK       I    between atoms: N_3  and  C_4 
REMARK       I    between atoms: C_4  and  N_5 
REMARK    2  A    between atoms: N_5  and  C_6 
REMARK    3  A    between atoms: C_20  and  C_21 
REMARK    4  A    between atoms: C_21  and  O_22 
REMARK    5  A    between atoms: O_22  and  C_23 
ROOT
HETATM    1  C   UNL     1      40.423 -14.330   5.257  1.00  0.00     0.095 A 
HETATM    2  S   UNL     1      40.004 -13.660   3.755  1.00  0.00    -0.073 SA
HETATM    3  C   UNL     1      41.090 -14.648   2.902  1.00  0.00     0.027 A 
HETATM    4  C   UNL     1      41.698 -15.568   3.737  1.00  0.00    -0.021 A 
HETATM    5  C   UNL     1      42.670 -16.588   3.203  1.00  0.00     0.079 C 
HETATM    6  C   UNL     1      42.519 -16.827   1.678  1.00  0.00     0.124 C 
HETATM    7  C   UNL     1      41.320 -17.723   1.350  1.00  0.00     0.046 C 
HETATM    8  C   UNL     1      43.795 -17.486   1.128  1.00  0.00     0.046 C 
HETATM    9  N   UNL     1      42.386 -15.494   0.948  1.00  0.00    -0.054 N 
HETATM   10  H   UNL     1      43.289 -15.014   1.051  1.00  0.00     0.279 HD
HETATM   11  H   UNL     1      42.280 -15.654  -0.061  1.00  0.00     0.279 HD
HETATM   12  C   UNL     1      41.315 -14.501   1.417  1.00  0.00     0.153 C 
HETATM   13  C   UNL     1      41.878 -13.107   1.075  1.00  0.00     0.052 C 
HETATM   14  C   UNL     1      40.042 -14.742   0.592  1.00  0.00     0.052 C 
HETATM   15  C   UNL     1      41.327 -15.378   5.135  1.00  0.00     0.081 A 
ENDROOT
BRANCH   1  16
HETATM   16  N   UNL     1      39.843 -13.843   6.419  1.00  0.00    -0.302 N 
HETATM   17  C   UNL     1      39.941 -12.559   6.919  1.00  0.00     0.321 C 
HETATM   18  N   UNL     1      39.185 -12.431   8.071  1.00  0.00    -0.343 N 
HETATM   19  O   UNL     1      40.616 -11.642   6.470  1.00  0.00    -0.247 OA
HETATM   20  H   UNL     1      38.348 -12.996   8.105  1.00  0.00     0.164 HD
HETATM   21  H   UNL     1      39.497 -14.535   7.072  1.00  0.00     0.171 HD
BRANCH  18  22
HETATM   22  C   UNL     1      39.119 -11.160   8.771  1.00  0.00     0.120 C 
HETATM   23  C   UNL     1      40.028 -11.123   9.988  1.00  0.00     0.026 C 
ENDBRANCH  18  22
ENDBRANCH   1  16
BRANCH  15  24
HETATM   24  C   UNL     1      41.869 -16.165   6.255  1.00  0.00     0.296 C 
HETATM   25  O   UNL     1      41.207 -17.016   6.836  1.00  0.00    -0.259 OA
BRANCH  24  26
HETATM   26  O   UNL     1      43.160 -15.851   6.571  1.00  0.00    -0.318 OA
BRANCH  26  27
HETATM   27  C   UNL     1      43.916 -16.884   7.228  1.00  0.00     0.174 C 
HETATM   28  C   UNL     1      44.574 -17.782   6.199  1.00  0.00     0.034 C 
ENDBRANCH  26  27
ENDBRANCH  24  26
ENDBRANCH  15  24
TORSDOF 5
ENDMDL
MODEL 5
REMARK VINA RESULT:      -6.8      2.847      5.509
REMARK  5 active torsions:
REMARK  status: ('A' for Active; 'I' for Inactive)
REMARK    1  A    between atoms: C_2  and  N_3 
REMARK       I    between atoms: N_3  and  C_4 
REMARK       I    between atoms: C_4  and  N_5 
REMARK    2  A    between atoms: N_5  and  C_6 
REMARK    3  A    between atoms: C_20  and  C_21 
REMARK    4  A    between atoms: C_21  and  O_22 
REMARK    5  A    between atoms: O_22  and  C_23 
ROOT
HETATM    1  C   UNL     1      41.141 -16.749   2.956  1.00  0.00     0.095 A 
HETATM    2  S   UNL     1      40.607 -16.006   1.526  1.00  0.00    -0.073 SA
HETATM    3  C   UNL     1      40.020 -14.637   2.340  1.00  0.00     0.027 A 
HETATM    4  C   UNL     1      40.322 -14.684   3.689  1.00  0.00    -0.021 A 
HETATM    5  C   UNL     1      39.946 -13.557   4.616  1.00  0.00     0.079 C 
HETATM    6  C   UNL     1      39.689 -12.222   3.871  1.00  0.00     0.124 C 
HETATM    7  C   UNL     1      40.993 -11.524   3.470  1.00  0.00     0.046 C 
HETATM    8  C   UNL     1      38.876 -11.274   4.770  1.00  0.00     0.046 C 
HETATM    9  N   UNL     1      38.830 -12.466   2.634  1.00  0.00    -0.054 N 
HETATM   10  H   UNL     1      37.905 -12.760   2.975  1.00  0.00     0.279 HD
HETATM   11  H   UNL     1      38.665 -11.582   2.138  1.00  0.00     0.279 HD
HETATM   12  C   UNL     1      39.276 -13.534   1.627  1.00  0.00     0.153 C 
HETATM   13  C   UNL     1      37.973 -14.062   0.992  1.00  0.00     0.052 C 
HETATM   14  C   UNL     1      40.119 -12.848   0.542  1.00  0.00     0.052 C 
HETATM   15  C   UNL     1      40.967 -15.935   4.070  1.00  0.00     0.081 A 
ENDROOT
BRANCH   1  16
HETATM   16  N   UNL     1      41.710 -18.012   2.910  1.00  0.00    -0.302 N 
HETATM   17  C   UNL     1      43.045 -18.313   2.720  1.00  0.00     0.321 C 
HETATM   18  N   UNL     1      43.245 -19.681   2.787  1.00  0.00    -0.343 N 
HETATM   19  O   UNL     1      43.952 -17.526   2.485  1.00  0.00    -0.247 OA
HETATM   20  H   UNL     1      42.629 -20.179   3.414  1.00  0.00     0.164 HD
HETATM   21  H   UNL     1      41.071 -18.788   2.787  1.00  0.00     0.171 HD
BRANCH  18  22
HETATM   22  C   UNL     1      44.577 -20.239   2.633  1.00  0.00     0.120 C 
HETATM   23  C   UNL     1      44.548 -21.675   2.138  1.00  0.00     0.026 C 
ENDBRANCH  18  22
ENDBRANCH   1  16
BRANCH  15  24
HETATM   24  C   UNL     1      41.343 -16.295   5.447  1.00  0.00     0.296 C 
HETATM   25  O   UNL     1      40.512 -16.425   6.337  1.00  0.00    -0.259 OA
BRANCH  24  26
HETATM   26  O   UNL     1      42.687 -16.463   5.623  1.00  0.00    -0.318 OA
BRANCH  26  27
HETATM   27  C   UNL     1      43.475 -15.260   5.633  1.00  0.00     0.174 C 
HETATM   28  C   UNL     1      44.188 -15.115   6.963  1.00  0.00     0.034 C 
ENDBRANCH  26  27
ENDBRANCH  24  26
ENDBRANCH  15  24
TORSDOF 5
ENDMDL
MODEL 6
REMARK VINA RESULT:      -6.8      2.475      4.415
REMARK  5 active torsions:
REMARK  status: ('A' for Active; 'I' for Inactive)
REMARK    1  A    between atoms: C_2  and  N_3 
REMARK       I    between atoms: N_3  and  C_4 
REMARK       I    between atoms: C_4  and  N_5 
REMARK    2  A    between atoms: N_5  and  C_6 
REMARK    3  A    between atoms: C_20  and  C_21 
REMARK    4  A    between atoms: C_21  and  O_22 
REMARK    5  A    between atoms: O_22  and  C_23 
ROOT
HETATM    1  C   UNL     1      40.595 -15.091   1.122  1.00  0.00     0.095 A 
HETATM    2  S   UNL     1      40.684 -16.614   1.867  1.00  0.00    -0.073 SA
HETATM    3  C   UNL     1      41.790 -16.084   3.040  1.00  0.00     0.027 A 
HETATM    4  C   UNL     1      42.017 -14.723   2.942  1.00  0.00    -0.021 A 
HETATM    5  C   UNL     1      42.928 -14.009   3.908  1.00  0.00     0.079 C 
HETATM    6  C   UNL     1      43.140 -14.791   5.229  1.00  0.00     0.124 C 
HETATM    7  C   UNL     1      41.945 -14.656   6.179  1.00  0.00     0.046 C 
HETATM    8  C   UNL     1      44.401 -14.271   5.942  1.00  0.00     0.046 C 
HETATM    9  N   UNL     1      43.403 -16.264   4.933  1.00  0.00    -0.054 N 
HETATM   10  H   UNL     1      44.311 -16.307   4.452  1.00  0.00     0.279 HD
HETATM   11  H   UNL     1      43.538 -16.783   5.809  1.00  0.00     0.279 HD
HETATM   12  C   UNL     1      42.410 -17.025   4.045  1.00  0.00     0.153 C 
HETATM   13  C   UNL     1      43.246 -18.115   3.343  1.00  0.00     0.052 C 
HETATM   14  C   UNL     1      41.371 -17.699   4.954  1.00  0.00     0.052 C 
HETATM   15  C   UNL     1      41.331 -14.127   1.801  1.00  0.00     0.081 A 
ENDROOT
BRANCH   1  16
HETATM   16  N   UNL     1      39.815 -14.918  -0.011  1.00  0.00    -0.302 N 
HETATM   17  C   UNL     1      40.247 -14.931  -1.324  1.00  0.00     0.321 C 
HETATM   18  N   UNL     1      39.175 -14.778  -2.185  1.00  0.00    -0.343 N 
HETATM   19  O   UNL     1      41.402 -15.023  -1.719  1.00  0.00    -0.247 OA
HETATM   20  H   UNL     1      38.302 -15.173  -1.866  1.00  0.00     0.164 HD
HETATM   21  H   UNL     1      38.890 -14.534   0.135  1.00  0.00     0.171 HD
BRANCH  18  22
HETATM   22  C   UNL     1      39.381 -14.777  -3.623  1.00  0.00     0.120 C 
HETATM   23  C   UNL     1      39.020 -16.109  -4.260  1.00  0.00     0.026 C 
ENDBRANCH  18  22
ENDBRANCH   1  16
BRANCH  15  24
HETATM   24  C   UNL     1      41.441 -12.713   1.408  1.00  0.00     0.296 C 
HETATM   25  O   UNL     1      42.467 -12.246   0.930  1.00  0.00    -0.259 OA
BRANCH  24  26
HETATM   26  O   UNL     1      40.302 -11.992   1.629  1.00  0.00    -0.318 OA
BRANCH  26  27
HETATM   27  C   UNL     1      40.204 -11.349   2.912  1.00  0.00     0.174 C 
HETATM   28  C   UNL     1      39.033 -11.916   3.691  1.00  0.00     0.034 C 
ENDBRANCH  26  27
ENDBRANCH  24  26
ENDBRANCH  15  24
TORSDOF 5
ENDMDL
MODEL 7
REMARK VINA RESULT:      -6.6      2.818      6.060
REMARK  5 active torsions:
REMARK  status: ('A' for Active; 'I' for Inactive)
REMARK    1  A    between atoms: C_2  and  N_3 
REMARK       I    between atoms: N_3  and  C_4 
REMARK       I    between atoms: C_4  and  N_5 
REMARK    2  A    between atoms: N_5  and  C_6 
REMARK    3  A    between atoms: C_20  and  C_21 
REMARK    4  A    between atoms: C_21  and  O_22 
REMARK    5  A    between atoms: O_22  and  C_23 
ROOT
HETATM    1  C   UNL     1      41.976 -16.001   2.154  1.00  0.00     0.095 A 
HETATM    2  S   UNL     1      40.934 -15.982   0.813  1.00  0.00    -0.073 SA
HETATM    3  C   UNL     1      40.834 -14.288   0.791  1.00  0.00     0.027 A 
HETATM    4  C   UNL     1      41.676 -13.720   1.732  1.00  0.00    -0.021 A 
HETATM    5  C   UNL     1      41.799 -12.225   1.871  1.00  0.00     0.079 C 
HETATM    6  C   UNL     1      41.335 -11.459   0.605  1.00  0.00     0.124 C 
HETATM    7  C   UNL     1      42.388 -11.492  -0.508  1.00  0.00     0.046 C 
HETATM    8  C   UNL     1      41.041  -9.992   0.965  1.00  0.00     0.046 C 
HETATM    9  N   UNL     1      40.020 -12.038   0.092  1.00  0.00    -0.054 N 
HETATM   10  H   UNL     1      39.310 -11.823   0.805  1.00  0.00     0.279 HD
HETATM   11  H   UNL     1      39.717 -11.534  -0.750  1.00  0.00     0.279 HD
HETATM   12  C   UNL     1      39.930 -13.547  -0.163  1.00  0.00     0.153 C 
HETATM   13  C   UNL     1      38.451 -13.911   0.077  1.00  0.00     0.052 C 
HETATM   14  C   UNL     1      40.276 -13.806  -1.638  1.00  0.00     0.052 C 
HETATM   15  C   UNL     1      42.342 -14.722   2.556  1.00  0.00     0.081 A 
ENDROOT
BRANCH   1  16
HETATM   16  N   UNL     1      42.391 -17.210   2.692  1.00  0.00    -0.302 N 
HETATM   17  C   UNL     1      43.361 -18.052   2.185  1.00  0.00     0.321 C 
HETATM   18  N   UNL     1      43.541 -19.139   3.022  1.00  0.00    -0.343 N 
HETATM   19  O   UNL     1      43.975 -17.923   1.134  1.00  0.00    -0.247 OA
HETATM   20  H   UNL     1      43.397 -18.959   4.005  1.00  0.00     0.164 HD
HETATM   21  H   UNL     1      41.787 -17.620   3.394  1.00  0.00     0.171 HD
BRANCH  18  22
HETATM   22  C   UNL     1      44.525 -20.159   2.704  1.00  0.00     0.120 C 
HETATM   23  C   UNL     1      43.917 -21.339   1.964  1.00  0.00     0.026 C 
ENDBRANCH  18  22
ENDBRANCH   1  16
BRANCH  15  24
HETATM   24  C   UNL     1      43.241 -14.412   3.680  1.00  0.00     0.296 C 
HETATM   25  O   UNL     1      44.229 -13.699   3.548  1.00  0.00    -0.259 OA
BRANCH  24  26
HETATM   26  O   UNL     1      42.867 -14.992   4.858  1.00  0.00    -0.318 OA
BRANCH  26  27
HETATM   27  C   UNL     1      41.718 -14.417   5.505  1.00  0.00     0.174 C 
HETATM   28  C   UNL     1      40.729 -15.504   5.876  1.00  0.00     0.034 C 
ENDBRANCH  26  27
ENDBRANCH  24  26
ENDBRANCH  15  24
TORSDOF 5
ENDMDL
MODEL 8
REMARK VINA RESULT:      -6.5      2.689      4.639
REMARK  5 active torsions:
REMARK  status: ('A' for Active; 'I' for Inactive)
REMARK    1  A    between atoms: C_2  and  N_3 
REMARK       I    between atoms: N_3  and  C_4 
REMARK       I    between atoms: C_4  and  N_5 
REMARK    2  A    between atoms: N_5  and  C_6 
REMARK    3  A    between atoms: C_20  and  C_21 
REMARK    4  A    between atoms: C_21  and  O_22 
REMARK    5  A    between atoms: O_22  and  C_23 
ROOT
HETATM    1  C   UNL     1      41.142 -15.081   0.483  1.00  0.00     0.095 A 
HETATM    2  S   UNL     1      41.331 -16.615   1.186  1.00  0.00    -0.073 SA
HETATM    3  C   UNL     1      42.146 -16.000   2.542  1.00  0.00     0.027 A 
HETATM    4  C   UNL     1      42.185 -14.617   2.524  1.00  0.00    -0.021 A 
HETATM    5  C   UNL     1      42.815 -13.836   3.648  1.00  0.00     0.079 C 
HETATM    6  C   UNL     1      42.925 -14.650   4.963  1.00  0.00     0.124 C 
HETATM    7  C   UNL     1      41.587 -14.734   5.704  1.00  0.00     0.046 C 
HETATM    8  C   UNL     1      43.966 -13.999   5.891  1.00  0.00     0.046 C 
HETATM    9  N   UNL     1      43.444 -16.055   4.670  1.00  0.00    -0.054 N 
HETATM   10  H   UNL     1      44.414 -15.945   4.346  1.00  0.00     0.279 HD
HETATM   11  H   UNL     1      43.511 -16.595   5.541  1.00  0.00     0.279 HD
HETATM   12  C   UNL     1      42.728 -16.898   3.607  1.00  0.00     0.153 C 
HETATM   13  C   UNL     1      43.816 -17.821   3.022  1.00  0.00     0.052 C 
HETATM   14  C   UNL     1      41.666 -17.757   4.310  1.00  0.00     0.052 C 
HETATM   15  C   UNL     1      41.612 -14.062   1.303  1.00  0.00     0.081 A 
ENDROOT
BRANCH   1  16
HETATM   16  N   UNL     1      40.537 -14.958  -0.759  1.00  0.00    -0.302 N 
HETATM   17  C   UNL     1      39.282 -14.444  -1.022  1.00  0.00     0.321 C 
HETATM   18  N   UNL     1      39.042 -14.433  -2.385  1.00  0.00    -0.343 N 
HETATM   19  O   UNL     1      38.450 -14.073  -0.204  1.00  0.00    -0.247 OA
HETATM   20  H   UNL     1      39.853 -14.287  -2.967  1.00  0.00     0.164 HD
HETATM   21  H   UNL     1      40.954 -15.486  -1.516  1.00  0.00     0.171 HD
BRANCH  18  22
HETATM   22  C   UNL     1      37.788 -13.918  -2.907  1.00  0.00     0.120 C 
HETATM   23  C   UNL     1      37.110 -14.897  -3.850  1.00  0.00     0.026 C 
ENDBRANCH  18  22
ENDBRANCH   1  16
BRANCH  15  24
HETATM   24  C   UNL     1      41.575 -12.627   0.976  1.00  0.00     0.296 C 
HETATM   25  O   UNL     1      40.615 -11.919   1.252  1.00  0.00    -0.259 OA
BRANCH  24  26
HETATM   26  O   UNL     1      42.701 -12.180   0.346  1.00  0.00    -0.318 OA
BRANCH  26  27
HETATM   27  C   UNL     1      42.558 -11.864  -1.049  1.00  0.00     0.174 C 
HETATM   28  C   UNL     1      43.318 -10.593  -1.377  1.00  0.00     0.034 C 
ENDBRANCH  26  27
ENDBRANCH  24  26
ENDBRANCH  15  24
TORSDOF 5
ENDMDL
MODEL 9
REMARK VINA RESULT:      -6.5      3.157      6.903
REMARK  5 active torsions:
REMARK  status: ('A' for Active; 'I' for Inactive)
REMARK    1  A    between atoms: C_2  and  N_3 
REMARK       I    between atoms: N_3  and  C_4 
REMARK       I    between atoms: C_4  and  N_5 
REMARK    2  A    between atoms: N_5  and  C_6 
REMARK    3  A    between atoms: C_20  and  C_21 
REMARK    4  A    between atoms: C_21  and  O_22 
REMARK    5  A    between atoms: O_22  and  C_23 
ROOT
HETATM    1  C   UNL     1      41.283 -13.840   5.446  1.00  0.00     0.095 A 
HETATM    2  S   UNL     1      40.229 -13.940   4.120  1.00  0.00    -0.073 SA
HETATM    3  C   UNL     1      41.310 -14.878   3.207  1.00  0.00     0.027 A 
HETATM    4  C   UNL     1      42.432 -15.214   3.942  1.00  0.00    -0.021 A 
HETATM    5  C   UNL     1      43.517 -16.085   3.362  1.00  0.00     0.079 C 
HETATM    6  C   UNL     1      43.034 -16.930   2.156  1.00  0.00     0.124 C 
HETATM    7  C   UNL     1      42.220 -18.152   2.597  1.00  0.00     0.046 C 
HETATM    8  C   UNL     1      44.247 -17.412   1.341  1.00  0.00     0.046 C 
HETATM    9  N   UNL     1      42.205 -16.070   1.208  1.00  0.00    -0.054 N 
HETATM   10  H   UNL     1      42.850 -15.379   0.804  1.00  0.00     0.279 HD
HETATM   11  H   UNL     1      41.880 -16.632   0.413  1.00  0.00     0.279 HD
HETATM   12  C   UNL     1      41.024 -15.273   1.778  1.00  0.00     0.153 C 
HETATM   13  C   UNL     1      40.898 -14.032   0.872  1.00  0.00     0.052 C 
HETATM   14  C   UNL     1      39.755 -16.128   1.636  1.00  0.00     0.052 C 
HETATM   15  C   UNL     1      42.438 -14.591   5.261  1.00  0.00     0.081 A 
ENDROOT
BRANCH   1  16
HETATM   16  N   UNL     1      40.925 -13.099   6.562  1.00  0.00    -0.302 N 
HETATM   17  C   UNL     1      41.061 -11.734   6.729  1.00  0.00     0.321 C 
HETATM   18  N   UNL     1      40.545 -11.344   7.952  1.00  0.00    -0.343 N 
HETATM   19  O   UNL     1      41.589 -10.946   5.956  1.00  0.00    -0.247 OA
HETATM   20  H   UNL     1      39.760 -11.886   8.284  1.00  0.00     0.164 HD
HETATM   21  H   UNL     1      40.749 -13.622   7.411  1.00  0.00     0.171 HD
BRANCH  18  22
HETATM   22  C   UNL     1      40.561  -9.946   8.346  1.00  0.00     0.120 C 
HETATM   23  C   UNL     1      41.708  -9.625   9.290  1.00  0.00     0.026 C 
ENDBRANCH  18  22
ENDBRANCH   1  16
BRANCH  15  24
HETATM   24  C   UNL     1      43.534 -14.713   6.236  1.00  0.00     0.296 C 
HETATM   25  O   UNL     1      43.853 -15.788   6.728  1.00  0.00    -0.259 OA
BRANCH  24  26
HETATM   26  O   UNL     1      44.144 -13.527   6.526  1.00  0.00    -0.318 OA
BRANCH  26  27
HETATM   27  C   UNL     1      44.945 -13.507   7.721  1.00  0.00     0.174 C 
HETATM   28  C   UNL     1      44.482 -12.394   8.641  1.00  0.00     0.034 C 
ENDBRANCH  26  27
ENDBRANCH  24  26
ENDBRANCH  15  24
TORSDOF 5
ENDMDL
MODEL 10
REMARK VINA RESULT:      -6.5      2.823      4.570
REMARK  5 active torsions:
REMARK  status: ('A' for Active; 'I' for Inactive)
REMARK    1  A    between atoms: C_2  and  N_3 
REMARK       I    between atoms: N_3  and  C_4 
REMARK       I    between atoms: C_4  and  N_5 
REMARK    2  A    between atoms: N_5  and  C_6 
REMARK    3  A    between atoms: C_20  and  C_21 
REMARK    4  A    between atoms: C_21  and  O_22 
REMARK    5  A    between atoms: O_22  and  C_23 
ROOT
HETATM    1  C   UNL     1      41.998 -14.595   1.634  1.00  0.00     0.095 A 
HETATM    2  S   UNL     1      42.105 -15.728   2.894  1.00  0.00    -0.073 SA
HETATM    3  C   UNL     1      42.027 -14.539   4.102  1.00  0.00     0.027 A 
HETATM    4  C   UNL     1      41.809 -13.284   3.561  1.00  0.00    -0.021 A 
HETATM    5  C   UNL     1      41.655 -12.069   4.439  1.00  0.00     0.079 C 
HETATM    6  C   UNL     1      41.262 -12.422   5.897  1.00  0.00     0.124 C 
HETATM    7  C   UNL     1      39.775 -12.767   6.027  1.00  0.00     0.046 C 
HETATM    8  C   UNL     1      41.577 -11.233   6.821  1.00  0.00     0.046 C 
HETATM    9  N   UNL     1      42.110 -13.585   6.403  1.00  0.00    -0.054 N 
HETATM   10  H   UNL     1      43.075 -13.234   6.468  1.00  0.00     0.279 HD
HETATM   11  H   UNL     1      41.845 -13.822   7.367  1.00  0.00     0.279 HD
HETATM   12  C   UNL     1      42.174 -14.869   5.567  1.00  0.00     0.153 C 
HETATM   13  C   UNL     1      43.559 -15.477   5.864  1.00  0.00     0.052 C 
HETATM   14  C   UNL     1      41.087 -15.828   6.076  1.00  0.00     0.052 C 
HETATM   15  C   UNL     1      41.809 -13.300   2.103  1.00  0.00     0.081 A 
ENDROOT
BRANCH   1  16
HETATM   16  N   UNL     1      42.063 -15.017   0.315  1.00  0.00    -0.302 N 
HETATM   17  C   UNL     1      41.035 -15.010  -0.609  1.00  0.00     0.321 C 
HETATM   18  N   UNL     1      41.488 -15.455  -1.838  1.00  0.00    -0.343 N 
HETATM   19  O   UNL     1      39.867 -14.701  -0.410  1.00  0.00    -0.247 OA
HETATM   20  H   UNL     1      42.450 -15.236  -2.051  1.00  0.00     0.164 HD
HETATM   21  H   UNL     1      42.865 -15.581   0.062  1.00  0.00     0.171 HD
BRANCH  18  22
HETATM   22  C   UNL     1      40.587 -15.520  -2.975  1.00  0.00     0.120 C 
HETATM   23  C   UNL     1      40.383 -14.164  -3.629  1.00  0.00     0.026 C 
ENDBRANCH  18  22
ENDBRANCH   1  16
BRANCH  15  24
HETATM   24  C   UNL     1      41.669 -12.105   1.256  1.00  0.00     0.296 C 
HETATM   25  O   UNL     1      40.636 -11.448   1.219  1.00  0.00    -0.259 OA
BRANCH  24  26
HETATM   26  O   UNL     1      42.788 -11.813   0.530  1.00  0.00    -0.318 OA
BRANCH  26  27
HETATM   27  C   UNL     1      42.570 -11.117  -0.710  1.00  0.00     0.174 C 
HETATM   28  C   UNL     1      42.854 -12.036  -1.881  1.00  0.00     0.034 C 
ENDBRANCH  26  27
ENDBRANCH  24  26
ENDBRANCH  15  24
TORSDOF 5
ENDMDL
