MODEL 1
REMARK VINA RESULT:      -9.1      0.000      0.000
REMARK  3 active torsions:
REMARK  status: ('A' for Active; 'I' for Inactive)
REMARK    1  A    between atoms: C_4  and  C_5 
REMARK    2  A    between atoms: C_9  and  C_10 
REMARK    3  A    between atoms: C_23  and  N_24 
ROOT
HETATM    1  C   UNL     1      43.745 -18.593   4.075  1.00  0.00     0.070 A 
HETATM    2  N   UNL     1      44.218 -18.006   5.195  1.00  0.00    -0.228 NA
HETATM    3  C   UNL     1      43.915 -16.746   5.494  1.00  0.00     0.165 A 
HETATM    4  C   UNL     1      43.081 -15.969   4.685  1.00  0.00     0.063 A 
HETATM    5  C   UNL     1      42.588 -16.568   3.478  1.00  0.00    -0.006 A 
HETATM    6  C   UNL     1      42.935 -17.896   3.196  1.00  0.00     0.046 A 
HETATM    7  N   UNL     1      44.451 -16.301   6.619  1.00  0.00    -0.222 NA
HETATM    8  C   UNL     1      44.174 -15.054   6.985  1.00  0.00     0.237 A 
HETATM    9  N   UNL     1      43.378 -14.211   6.334  1.00  0.00    -0.229 NA
HETATM   10  C   UNL     1      42.832 -14.678   5.205  1.00  0.00     0.117 A 
ENDROOT
BRANCH   5  11
HETATM   11  C   UNL     1      41.720 -15.875   2.508  1.00  0.00    -0.022 A 
HETATM   12  C   UNL     1      42.270 -15.193   1.407  1.00  0.00     0.052 A 
HETATM   13  C   UNL     1      41.412 -14.546   0.539  1.00  0.00     0.105 A 
HETATM   14  C   UNL     1      40.050 -14.576   0.710  1.00  0.00     0.105 A 
HETATM   15  O   UNL     1      41.782 -13.819  -0.548  1.00  0.00    -0.323 OA
HETATM   16  O   UNL     1      39.390 -13.871  -0.247  1.00  0.00    -0.323 OA
HETATM   17  C   UNL     1      39.466 -15.254   1.756  1.00  0.00     0.040 A 
HETATM   18  C   UNL     1      40.497 -13.362  -1.021  1.00  0.00     0.352 A 
HETATM   19  C   UNL     1      40.311 -15.906   2.661  1.00  0.00     0.015 A 
ENDBRANCH   5  11
BRANCH  10  20
HETATM   20  N   UNL     1      42.011 -13.743   4.578  1.00  0.00    -0.286 NA
HETATM   21  H   UNL     1      41.095 -13.791   5.017  1.00  0.00     0.125 HD
HETATM   22  H   UNL     1      41.958 -13.879   3.575  1.00  0.00     0.125 HD
ENDBRANCH  10  20
BRANCH   1  23
HETATM   23  C   UNL     1      44.121 -20.012   3.888  1.00  0.00    -0.007 A 
HETATM   24  C   UNL     1      44.604 -20.770   4.973  1.00  0.00     0.014 A 
HETATM   25  C   UNL     1      44.948 -22.119   4.833  1.00  0.00     0.001 A 
HETATM   26  C   UNL     1      44.820 -22.743   3.598  1.00  0.00     0.000 A 
HETATM   27  C   UNL     1      44.358 -22.018   2.504  1.00  0.00     0.001 A 
HETATM   28  C   UNL     1      44.015 -20.668   2.647  1.00  0.00     0.014 A 
ENDBRANCH   1  23
TORSDOF 3
ENDMDL
MODEL 2
REMARK VINA RESULT:      -9.1      0.908      1.556
REMARK  3 active torsions:
REMARK  status: ('A' for Active; 'I' for Inactive)
REMARK    1  A    between atoms: C_4  and  C_5 
REMARK    2  A    between atoms: C_9  and  C_10 
REMARK    3  A    between atoms: C_23  and  N_24 
ROOT
HETATM    1  C   UNL     1      43.460 -18.260   3.580  1.00  0.00     0.070 A 
HETATM    2  N   UNL     1      43.938 -17.778   4.748  1.00  0.00    -0.228 NA
HETATM    3  C   UNL     1      43.643 -16.549   5.158  1.00  0.00     0.165 A 
HETATM    4  C   UNL     1      42.815 -15.696   4.423  1.00  0.00     0.063 A 
HETATM    5  C   UNL     1      42.317 -16.181   3.169  1.00  0.00    -0.006 A 
HETATM    6  C   UNL     1      42.655 -17.481   2.768  1.00  0.00     0.046 A 
HETATM    7  N   UNL     1      44.183 -16.210   6.318  1.00  0.00    -0.222 NA
HETATM    8  C   UNL     1      43.914 -14.999   6.795  1.00  0.00     0.237 A 
HETATM    9  N   UNL     1      43.124 -14.096   6.223  1.00  0.00    -0.229 NA
HETATM   10  C   UNL     1      42.575 -14.456   5.057  1.00  0.00     0.117 A 
ENDROOT
BRANCH   5  11
HETATM   11  C   UNL     1      41.453 -15.399   2.265  1.00  0.00    -0.022 A 
HETATM   12  C   UNL     1      40.052 -15.496   2.342  1.00  0.00     0.052 A 
HETATM   13  C   UNL     1      39.292 -14.754   1.460  1.00  0.00     0.105 A 
HETATM   14  C   UNL     1      39.866 -13.913   0.538  1.00  0.00     0.105 A 
HETATM   15  O   UNL     1      37.934 -14.760   1.382  1.00  0.00    -0.323 OA
HETATM   16  O   UNL     1      38.943 -13.284  -0.238  1.00  0.00    -0.323 OA
HETATM   17  C   UNL     1      41.231 -13.764   0.445  1.00  0.00     0.040 A 
HETATM   18  C   UNL     1      37.721 -13.854   0.278  1.00  0.00     0.352 A 
HETATM   19  C   UNL     1      42.027 -14.516   1.316  1.00  0.00     0.015 A 
ENDBRANCH   5  11
BRANCH  10  20
HETATM   20  N   UNL     1      41.760 -13.463   4.518  1.00  0.00    -0.286 NA
HETATM   21  H   UNL     1      41.555 -12.794   5.256  1.00  0.00     0.125 HD
HETATM   22  H   UNL     1      40.916 -13.835   4.099  1.00  0.00     0.125 HD
ENDBRANCH  10  20
BRANCH   1  23
HETATM   23  C   UNL     1      43.826 -19.659   3.266  1.00  0.00    -0.007 A 
HETATM   24  C   UNL     1      44.496 -20.452   4.219  1.00  0.00     0.014 A 
HETATM   25  C   UNL     1      44.837 -21.783   3.961  1.00  0.00     0.001 A 
HETATM   26  C   UNL     1      44.518 -22.355   2.735  1.00  0.00     0.000 A 
HETATM   27  C   UNL     1      43.868 -21.595   1.767  1.00  0.00     0.001 A 
HETATM   28  C   UNL     1      43.529 -20.262   2.029  1.00  0.00     0.014 A 
ENDBRANCH   1  23
TORSDOF 3
ENDMDL
MODEL 3
REMARK VINA RESULT:      -8.4      2.014      2.634
REMARK  3 active torsions:
REMARK  status: ('A' for Active; 'I' for Inactive)
REMARK    1  A    between atoms: C_4  and  C_5 
REMARK    2  A    between atoms: C_9  and  C_10 
REMARK    3  A    between atoms: C_23  and  N_24 
ROOT
HETATM    1  C   UNL     1      42.610 -17.962   2.917  1.00  0.00     0.070 A 
HETATM    2  N   UNL     1      42.089 -17.602   4.110  1.00  0.00    -0.228 NA
HETATM    3  C   UNL     1      41.392 -16.479   4.248  1.00  0.00     0.165 A 
HETATM    4  C   UNL     1      41.143 -15.620   3.174  1.00  0.00     0.063 A 
HETATM    5  C   UNL     1      41.708 -15.973   1.903  1.00  0.00    -0.006 A 
HETATM    6  C   UNL     1      42.441 -17.163   1.800  1.00  0.00     0.046 A 
HETATM    7  N   UNL     1      40.946 -16.253   5.474  1.00  0.00    -0.222 NA
HETATM    8  C   UNL     1      40.226 -15.154   5.677  1.00  0.00     0.237 A 
HETATM    9  N   UNL     1      39.887 -14.265   4.749  1.00  0.00    -0.229 NA
HETATM   10  C   UNL     1      40.334 -14.511   3.512  1.00  0.00     0.117 A 
ENDROOT
BRANCH   5  11
HETATM   11  C   UNL     1      41.558 -15.163   0.680  1.00  0.00    -0.022 A 
HETATM   12  C   UNL     1      40.830 -15.647  -0.421  1.00  0.00     0.052 A 
HETATM   13  C   UNL     1      40.737 -14.855  -1.548  1.00  0.00     0.105 A 
HETATM   14  C   UNL     1      41.310 -13.608  -1.607  1.00  0.00     0.105 A 
HETATM   15  O   UNL     1      40.101 -15.188  -2.703  1.00  0.00    -0.323 OA
HETATM   16  O   UNL     1      41.108 -12.999  -2.805  1.00  0.00    -0.323 OA
HETATM   17  C   UNL     1      42.007 -13.081  -0.544  1.00  0.00     0.040 A 
HETATM   18  C   UNL     1      40.372 -14.022  -3.510  1.00  0.00     0.352 A 
HETATM   19  C   UNL     1      42.132 -13.869   0.606  1.00  0.00     0.015 A 
ENDBRANCH   5  11
BRANCH  10  20
HETATM   20  N   UNL     1      39.939 -13.541   2.594  1.00  0.00    -0.286 NA
HETATM   21  H   UNL     1      40.742 -13.323   2.008  1.00  0.00     0.125 HD
HETATM   22  H   UNL     1      39.559 -12.713   3.038  1.00  0.00     0.125 HD
ENDBRANCH  10  20
BRANCH   1  23
HETATM   23  C   UNL     1      43.322 -19.259   2.894  1.00  0.00    -0.007 A 
HETATM   24  C   UNL     1      44.202 -19.609   3.937  1.00  0.00     0.014 A 
HETATM   25  C   UNL     1      44.873 -20.835   3.954  1.00  0.00     0.001 A 
HETATM   26  C   UNL     1      44.682 -21.744   2.920  1.00  0.00     0.000 A 
HETATM   27  C   UNL     1      43.830 -21.423   1.868  1.00  0.00     0.001 A 
HETATM   28  C   UNL     1      43.160 -20.194   1.854  1.00  0.00     0.014 A 
ENDBRANCH   1  23
TORSDOF 3
ENDMDL
MODEL 4
REMARK VINA RESULT:      -8.3      3.185      4.966
REMARK  3 active torsions:
REMARK  status: ('A' for Active; 'I' for Inactive)
REMARK    1  A    between atoms: C_4  and  C_5 
REMARK    2  A    between atoms: C_9  and  C_10 
REMARK    3  A    between atoms: C_23  and  N_24 
ROOT
HETATM    1  C   UNL     1      42.646 -17.586   2.361  1.00  0.00     0.070 A 
HETATM    2  N   UNL     1      42.296 -17.389   1.071  1.00  0.00    -0.228 NA
HETATM    3  C   UNL     1      41.728 -16.254   0.676  1.00  0.00     0.165 A 
HETATM    4  C   UNL     1      41.479 -15.200   1.559  1.00  0.00     0.063 A 
HETATM    5  C   UNL     1      41.822 -15.398   2.937  1.00  0.00    -0.006 A 
HETATM    6  C   UNL     1      42.414 -16.612   3.315  1.00  0.00     0.046 A 
HETATM    7  N   UNL     1      41.436 -16.203  -0.614  1.00  0.00    -0.222 NA
HETATM    8  C   UNL     1      40.882 -15.088  -1.078  1.00  0.00     0.237 A 
HETATM    9  N   UNL     1      40.614 -13.998  -0.366  1.00  0.00    -0.229 NA
HETATM   10  C   UNL     1      40.926 -14.058   0.934  1.00  0.00     0.117 A 
ENDROOT
BRANCH   5  11
HETATM   11  C   UNL     1      41.601 -14.396   3.996  1.00  0.00    -0.022 A 
HETATM   12  C   UNL     1      40.350 -14.277   4.627  1.00  0.00     0.052 A 
HETATM   13  C   UNL     1      40.193 -13.310   5.600  1.00  0.00     0.105 A 
HETATM   14  C   UNL     1      41.226 -12.488   5.978  1.00  0.00     0.105 A 
HETATM   15  O   UNL     1      39.045 -13.045   6.279  1.00  0.00    -0.323 OA
HETATM   16  O   UNL     1      40.860 -11.602   6.942  1.00  0.00    -0.323 OA
HETATM   17  C   UNL     1      42.476 -12.586   5.408  1.00  0.00     0.040 A 
HETATM   18  C   UNL     1      39.465 -11.936   7.102  1.00  0.00     0.352 A 
HETATM   19  C   UNL     1      42.659 -13.548   4.408  1.00  0.00     0.015 A 
ENDBRANCH   5  11
BRANCH  10  20
HETATM   20  N   UNL     1      40.619 -12.883   1.617  1.00  0.00    -0.286 NA
HETATM   21  H   UNL     1      40.712 -13.069   2.612  1.00  0.00     0.125 HD
HETATM   22  H   UNL     1      39.702 -12.522   1.383  1.00  0.00     0.125 HD
ENDBRANCH  10  20
BRANCH   1  23
HETATM   23  C   UNL     1      43.312 -18.875   2.654  1.00  0.00    -0.007 A 
HETATM   24  C   UNL     1      43.197 -19.957   1.759  1.00  0.00     0.014 A 
HETATM   25  C   UNL     1      43.832 -21.180   1.998  1.00  0.00     0.001 A 
HETATM   26  C   UNL     1      44.597 -21.352   3.146  1.00  0.00     0.000 A 
HETATM   27  C   UNL     1      44.719 -20.306   4.056  1.00  0.00     0.001 A 
HETATM   28  C   UNL     1      44.083 -19.083   3.814  1.00  0.00     0.014 A 
ENDBRANCH   1  23
TORSDOF 3
ENDMDL
MODEL 5
REMARK VINA RESULT:      -8.3      1.946      2.905
REMARK  3 active torsions:
REMARK  status: ('A' for Active; 'I' for Inactive)
REMARK    1  A    between atoms: C_4  and  C_5 
REMARK    2  A    between atoms: C_9  and  C_10 
REMARK    3  A    between atoms: C_23  and  N_24 
ROOT
HETATM    1  C   UNL     1      42.453 -17.440   3.041  1.00  0.00     0.070 A 
HETATM    2  N   UNL     1      41.963 -17.098   4.252  1.00  0.00    -0.228 NA
HETATM    3  C   UNL     1      41.253 -15.986   4.419  1.00  0.00     0.165 A 
HETATM    4  C   UNL     1      40.958 -15.124   3.360  1.00  0.00     0.063 A 
HETATM    5  C   UNL     1      41.489 -15.459   2.070  1.00  0.00    -0.006 A 
HETATM    6  C   UNL     1      42.238 -16.636   1.936  1.00  0.00     0.046 A 
HETATM    7  N   UNL     1      40.842 -15.775   5.660  1.00  0.00    -0.222 NA
HETATM    8  C   UNL     1      40.112 -14.690   5.893  1.00  0.00     0.237 A 
HETATM    9  N   UNL     1      39.730 -13.799   4.983  1.00  0.00    -0.229 NA
HETATM   10  C   UNL     1      40.143 -14.031   3.731  1.00  0.00     0.117 A 
ENDROOT
BRANCH   5  11
HETATM   11  C   UNL     1      41.290 -14.643   0.858  1.00  0.00    -0.022 A 
HETATM   12  C   UNL     1      40.280 -14.961  -0.068  1.00  0.00     0.052 A 
HETATM   13  C   UNL     1      40.149 -14.174  -1.194  1.00  0.00     0.105 A 
HETATM   14  C   UNL     1      40.956 -13.085  -1.416  1.00  0.00     0.105 A 
HETATM   15  O   UNL     1      39.250 -14.365  -2.197  1.00  0.00    -0.323 OA
HETATM   16  O   UNL     1      40.668 -12.453  -2.584  1.00  0.00    -0.323 OA
HETATM   17  C   UNL     1      41.938 -12.718  -0.524  1.00  0.00     0.040 A 
HETATM   18  C   UNL     1      39.609 -13.292  -3.093  1.00  0.00     0.352 A 
HETATM   19  C   UNL     1      42.104 -13.508   0.620  1.00  0.00     0.015 A 
ENDBRANCH   5  11
BRANCH  10  20
HETATM   20  N   UNL     1      39.705 -13.060   2.832  1.00  0.00    -0.286 NA
HETATM   21  H   UNL     1      40.245 -12.215   3.001  1.00  0.00     0.125 HD
HETATM   22  H   UNL     1      38.708 -12.890   2.894  1.00  0.00     0.125 HD
ENDBRANCH  10  20
BRANCH   1  23
HETATM   23  C   UNL     1      43.183 -18.726   2.986  1.00  0.00    -0.007 A 
HETATM   24  C   UNL     1      42.981 -19.617   1.914  1.00  0.00     0.014 A 
HETATM   25  C   UNL     1      43.672 -20.829   1.823  1.00  0.00     0.001 A 
HETATM   26  C   UNL     1      44.584 -21.183   2.810  1.00  0.00     0.000 A 
HETATM   27  C   UNL     1      44.797 -20.331   3.890  1.00  0.00     0.001 A 
HETATM   28  C   UNL     1      44.104 -19.118   3.977  1.00  0.00     0.014 A 
ENDBRANCH   1  23
TORSDOF 3
ENDMDL
MODEL 6
REMARK VINA RESULT:      -7.8      2.989      6.939
REMARK  3 active torsions:
REMARK  status: ('A' for Active; 'I' for Inactive)
REMARK    1  A    between atoms: C_4  and  C_5 
REMARK    2  A    between atoms: C_9  and  C_10 
REMARK    3  A    between atoms: C_23  and  N_24 
ROOT
HETATM    1  C   UNL     1      41.377 -15.284   0.553  1.00  0.00     0.070 A 
HETATM    2  N   UNL     1      40.654 -14.586   1.456  1.00  0.00    -0.228 NA
HETATM    3  C   UNL     1      40.624 -14.940   2.737  1.00  0.00     0.165 A 
HETATM    4  C   UNL     1      41.345 -16.033   3.225  1.00  0.00     0.063 A 
HETATM    5  C   UNL     1      42.100 -16.801   2.278  1.00  0.00    -0.006 A 
HETATM    6  C   UNL     1      42.102 -16.399   0.935  1.00  0.00     0.046 A 
HETATM    7  N   UNL     1      39.872 -14.168   3.506  1.00  0.00    -0.222 NA
HETATM    8  C   UNL     1      39.812 -14.457   4.802  1.00  0.00     0.237 A 
HETATM    9  N   UNL     1      40.463 -15.443   5.409  1.00  0.00    -0.229 NA
HETATM   10  C   UNL     1      41.229 -16.208   4.623  1.00  0.00     0.117 A 
ENDROOT
BRANCH   5  11
HETATM   11  C   UNL     1      42.893 -17.994   2.626  1.00  0.00    -0.022 A 
HETATM   12  C   UNL     1      42.695 -19.214   1.955  1.00  0.00     0.052 A 
HETATM   13  C   UNL     1      43.452 -20.304   2.333  1.00  0.00     0.105 A 
HETATM   14  C   UNL     1      44.402 -20.219   3.322  1.00  0.00     0.105 A 
HETATM   15  O   UNL     1      43.361 -21.556   1.810  1.00  0.00    -0.323 OA
HETATM   16  O   UNL     1      45.027 -21.405   3.547  1.00  0.00    -0.323 OA
HETATM   17  C   UNL     1      44.650 -19.040   3.988  1.00  0.00     0.040 A 
HETATM   18  C   UNL     1      44.336 -22.258   2.609  1.00  0.00     0.352 A 
HETATM   19  C   UNL     1      43.886 -17.922   3.635  1.00  0.00     0.015 A 
ENDBRANCH   5  11
BRANCH  10  20
HETATM   20  N   UNL     1      41.881 -17.219   5.326  1.00  0.00    -0.286 NA
HETATM   21  H   UNL     1      41.171 -17.802   5.762  1.00  0.00     0.125 HD
HETATM   22  H   UNL     1      42.544 -16.860   6.004  1.00  0.00     0.125 HD
ENDBRANCH  10  20
BRANCH   1  23
HETATM   23  C   UNL     1      41.360 -14.753  -0.828  1.00  0.00    -0.007 A 
HETATM   24  C   UNL     1      41.729 -13.417  -1.083  1.00  0.00     0.014 A 
HETATM   25  C   UNL     1      41.743 -12.893  -2.379  1.00  0.00     0.001 A 
HETATM   26  C   UNL     1      41.384 -13.695  -3.456  1.00  0.00     0.000 A 
HETATM   27  C   UNL     1      41.003 -15.015  -3.236  1.00  0.00     0.001 A 
HETATM   28  C   UNL     1      40.989 -15.537  -1.937  1.00  0.00     0.014 A 
ENDBRANCH   1  23
TORSDOF 3
ENDMDL
MODEL 7
REMARK VINA RESULT:      -7.5      3.746      7.136
REMARK  3 active torsions:
REMARK  status: ('A' for Active; 'I' for Inactive)
REMARK    1  A    between atoms: C_4  and  C_5 
REMARK    2  A    between atoms: C_9  and  C_10 
REMARK    3  A    between atoms: C_23  and  N_24 
ROOT
HETATM    1  C   UNL     1      41.280 -13.446   1.371  1.00  0.00     0.070 A 
HETATM    2  N   UNL     1      40.415 -12.550   1.893  1.00  0.00    -0.228 NA
HETATM    3  C   UNL     1      40.006 -12.642   3.154  1.00  0.00     0.165 A 
HETATM    4  C   UNL     1      40.455 -13.649   4.012  1.00  0.00     0.063 A 
HETATM    5  C   UNL     1      41.357 -14.624   3.470  1.00  0.00    -0.006 A 
HETATM    6  C   UNL     1      41.760 -14.496   2.133  1.00  0.00     0.046 A 
HETATM    7  N   UNL     1      39.156 -11.698   3.528  1.00  0.00    -0.222 NA
HETATM    8  C   UNL     1      38.720 -11.721   4.784  1.00  0.00     0.237 A 
HETATM    9  N   UNL     1      39.081 -12.597   5.716  1.00  0.00    -0.229 NA
HETATM   10  C   UNL     1      39.950 -13.538   5.328  1.00  0.00     0.117 A 
ENDROOT
BRANCH   5  11
HETATM   11  C   UNL     1      41.902 -15.760   4.235  1.00  0.00    -0.022 A 
HETATM   12  C   UNL     1      43.067 -15.615   5.010  1.00  0.00     0.052 A 
HETATM   13  C   UNL     1      43.544 -16.716   5.693  1.00  0.00     0.105 A 
HETATM   14  C   UNL     1      42.900 -17.929   5.653  1.00  0.00     0.105 A 
HETATM   15  O   UNL     1      44.668 -16.752   6.456  1.00  0.00    -0.323 OA
HETATM   16  O   UNL     1      43.538 -18.881   6.385  1.00  0.00    -0.323 OA
HETATM   17  C   UNL     1      41.743 -18.111   4.930  1.00  0.00     0.040 A 
HETATM   18  C   UNL     1      44.679 -18.137   6.862  1.00  0.00     0.352 A 
HETATM   19  C   UNL     1      41.244 -17.016   4.215  1.00  0.00     0.015 A 
ENDBRANCH   5  11
BRANCH  10  20
HETATM   20  N   UNL     1      40.284 -14.418   6.355  1.00  0.00    -0.286 NA
HETATM   21  H   UNL     1      40.881 -15.142   5.962  1.00  0.00     0.125 HD
HETATM   22  H   UNL     1      39.470 -14.808   6.817  1.00  0.00     0.125 HD
ENDBRANCH  10  20
BRANCH   1  23
HETATM   23  C   UNL     1      41.690 -13.200  -0.030  1.00  0.00    -0.007 A 
HETATM   24  C   UNL     1      42.372 -12.017  -0.376  1.00  0.00     0.014 A 
HETATM   25  C   UNL     1      42.791 -11.765  -1.686  1.00  0.00     0.001 A 
HETATM   26  C   UNL     1      42.531 -12.693  -2.687  1.00  0.00     0.000 A 
HETATM   27  C   UNL     1      41.848 -13.866  -2.381  1.00  0.00     0.001 A 
HETATM   28  C   UNL     1      41.430 -14.115  -1.068  1.00  0.00     0.014 A 
ENDBRANCH   1  23
TORSDOF 3
ENDMDL
MODEL 8
REMARK VINA RESULT:      -7.3      2.037      3.649
REMARK  3 active torsions:
REMARK  status: ('A' for Active; 'I' for Inactive)
REMARK    1  A    between atoms: C_4  and  C_5 
REMARK    2  A    between atoms: C_9  and  C_10 
REMARK    3  A    between atoms: C_23  and  N_24 
ROOT
HETATM    1  C   UNL     1      42.456 -15.984   4.164  1.00  0.00     0.070 A 
HETATM    2  N   UNL     1      41.716 -15.383   5.120  1.00  0.00    -0.228 NA
HETATM    3  C   UNL     1      40.890 -14.384   4.827  1.00  0.00     0.165 A 
HETATM    4  C   UNL     1      40.723 -13.914   3.521  1.00  0.00     0.063 A 
HETATM    5  C   UNL     1      41.517 -14.525   2.494  1.00  0.00    -0.006 A 
HETATM    6  C   UNL     1      42.381 -15.571   2.845  1.00  0.00     0.046 A 
HETATM    7  N   UNL     1      40.234 -13.888   5.864  1.00  0.00    -0.222 NA
HETATM    8  C   UNL     1      39.377 -12.898   5.637  1.00  0.00     0.237 A 
HETATM    9  N   UNL     1      39.095 -12.370   4.449  1.00  0.00    -0.229 NA
HETATM   10  C   UNL     1      39.756 -12.889   3.408  1.00  0.00     0.117 A 
ENDROOT
BRANCH   5  11
HETATM   11  C   UNL     1      41.477 -14.129   1.075  1.00  0.00    -0.022 A 
HETATM   12  C   UNL     1      40.809 -14.921   0.123  1.00  0.00     0.052 A 
HETATM   13  C   UNL     1      40.818 -14.512  -1.196  1.00  0.00     0.105 A 
HETATM   14  C   UNL     1      41.434 -13.350  -1.590  1.00  0.00     0.105 A 
HETATM   15  O   UNL     1      40.250 -15.177  -2.237  1.00  0.00    -0.323 OA
HETATM   16  O   UNL     1      41.334 -13.136  -2.929  1.00  0.00    -0.323 OA
HETATM   17  C   UNL     1      42.076 -12.529  -0.690  1.00  0.00     0.040 A 
HETATM   18  C   UNL     1      40.614 -14.318  -3.339  1.00  0.00     0.352 A 
HETATM   19  C   UNL     1      42.096 -12.926   0.651  1.00  0.00     0.015 A 
ENDBRANCH   5  11
BRANCH  10  20
HETATM   20  N   UNL     1      39.410 -12.291   2.199  1.00  0.00    -0.286 NA
HETATM   21  H   UNL     1      40.048 -11.515   2.042  1.00  0.00     0.125 HD
HETATM   22  H   UNL     1      38.441 -11.995   2.171  1.00  0.00     0.125 HD
ENDBRANCH  10  20
BRANCH   1  23
HETATM   23  C   UNL     1      43.298 -17.112   4.620  1.00  0.00    -0.007 A 
HETATM   24  C   UNL     1      43.468 -18.250   3.806  1.00  0.00     0.014 A 
HETATM   25  C   UNL     1      44.274 -19.323   4.200  1.00  0.00     0.001 A 
HETATM   26  C   UNL     1      44.929 -19.285   5.425  1.00  0.00     0.000 A 
HETATM   27  C   UNL     1      44.771 -18.181   6.258  1.00  0.00     0.001 A 
HETATM   28  C   UNL     1      43.964 -17.109   5.860  1.00  0.00     0.014 A 
ENDBRANCH   1  23
TORSDOF 3
ENDMDL
MODEL 9
REMARK VINA RESULT:      -7.2      3.282      6.759
REMARK  3 active torsions:
REMARK  status: ('A' for Active; 'I' for Inactive)
REMARK    1  A    between atoms: C_4  and  C_5 
REMARK    2  A    between atoms: C_9  and  C_10 
REMARK    3  A    between atoms: C_23  and  N_24 
ROOT
HETATM    1  C   UNL     1      41.576 -14.039   0.921  1.00  0.00     0.070 A 
HETATM    2  N   UNL     1      41.366 -12.817   1.457  1.00  0.00    -0.228 NA
HETATM    3  C   UNL     1      41.420 -12.622   2.770  1.00  0.00     0.165 A 
HETATM    4  C   UNL     1      41.712 -13.654   3.666  1.00  0.00     0.063 A 
HETATM    5  C   UNL     1      41.915 -14.964   3.119  1.00  0.00    -0.006 A 
HETATM    6  C   UNL     1      41.845 -15.131   1.729  1.00  0.00     0.046 A 
HETATM    7  N   UNL     1      41.189 -11.376   3.153  1.00  0.00    -0.222 NA
HETATM    8  C   UNL     1      41.245 -11.108   4.453  1.00  0.00     0.237 A 
HETATM    9  N   UNL     1      41.539 -11.978   5.414  1.00  0.00    -0.229 NA
HETATM   10  C   UNL     1      41.781 -13.231   5.013  1.00  0.00     0.117 A 
ENDROOT
BRANCH   5  11
HETATM   11  C   UNL     1      42.207 -16.161   3.929  1.00  0.00    -0.022 A 
HETATM   12  C   UNL     1      43.533 -16.564   4.169  1.00  0.00     0.052 A 
HETATM   13  C   UNL     1      43.749 -17.703   4.919  1.00  0.00     0.105 A 
HETATM   14  C   UNL     1      42.711 -18.428   5.452  1.00  0.00     0.105 A 
HETATM   15  O   UNL     1      44.962 -18.242   5.214  1.00  0.00    -0.323 OA
HETATM   16  O   UNL     1      43.139 -19.514   6.148  1.00  0.00    -0.323 OA
HETATM   17  C   UNL     1      41.399 -18.056   5.267  1.00  0.00     0.040 A 
HETATM   18  C   UNL     1      44.567 -19.411   5.962  1.00  0.00     0.352 A 
HETATM   19  C   UNL     1      41.149 -16.914   4.497  1.00  0.00     0.015 A 
ENDBRANCH   5  11
BRANCH  10  20
HETATM   20  N   UNL     1      42.083 -14.086   6.071  1.00  0.00    -0.286 NA
HETATM   21  H   UNL     1      42.973 -14.533   5.866  1.00  0.00     0.125 HD
HETATM   22  H   UNL     1      41.350 -14.764   6.248  1.00  0.00     0.125 HD
ENDBRANCH  10  20
BRANCH   1  23
HETATM   23  C   UNL     1      41.535 -14.107  -0.556  1.00  0.00    -0.007 A 
HETATM   24  C   UNL     1      42.010 -13.032  -1.333  1.00  0.00     0.014 A 
HETATM   25  C   UNL     1      42.003 -13.075  -2.731  1.00  0.00     0.001 A 
HETATM   26  C   UNL     1      41.514 -14.198  -3.388  1.00  0.00     0.000 A 
HETATM   27  C   UNL     1      41.025 -15.271  -2.650  1.00  0.00     0.001 A 
HETATM   28  C   UNL     1      41.033 -15.225  -1.251  1.00  0.00     0.014 A 
ENDBRANCH   1  23
TORSDOF 3
ENDMDL
MODEL 10
REMARK VINA RESULT:      -7.0      4.449      7.887
REMARK  3 active torsions:
REMARK  status: ('A' for Active; 'I' for Inactive)
REMARK    1  A    between atoms: C_4  and  C_5 
REMARK    2  A    between atoms: C_9  and  C_10 
REMARK    3  A    between atoms: C_23  and  N_24 
ROOT
HETATM    1  C   UNL     1      41.699 -12.851  -0.393  1.00  0.00     0.070 A 
HETATM    2  N   UNL     1      41.782 -14.188  -0.570  1.00  0.00    -0.228 NA
HETATM    3  C   UNL     1      41.443 -15.034   0.397  1.00  0.00     0.165 A 
HETATM    4  C   UNL     1      40.967 -14.597   1.636  1.00  0.00     0.063 A 
HETATM    5  C   UNL     1      40.893 -13.180   1.852  1.00  0.00    -0.006 A 
HETATM    6  C   UNL     1      41.265 -12.321   0.809  1.00  0.00     0.046 A 
HETATM    7  N   UNL     1      41.579 -16.313   0.085  1.00  0.00    -0.222 NA
HETATM    8  C   UNL     1      41.240 -17.213   1.002  1.00  0.00     0.237 A 
HETATM    9  N   UNL     1      40.748 -16.946   2.208  1.00  0.00    -0.229 NA
HETATM   10  C   UNL     1      40.603 -15.650   2.506  1.00  0.00     0.117 A 
ENDROOT
BRANCH   5  11
HETATM   11  C   UNL     1      40.436 -12.559   3.109  1.00  0.00    -0.022 A 
HETATM   12  C   UNL     1      41.319 -12.385   4.190  1.00  0.00     0.052 A 
HETATM   13  C   UNL     1      40.834 -11.814   5.349  1.00  0.00     0.105 A 
HETATM   14  C   UNL     1      39.531 -11.393   5.461  1.00  0.00     0.105 A 
HETATM   15  O   UNL     1      41.545 -11.606   6.490  1.00  0.00    -0.323 OA
HETATM   16  O   UNL     1      39.256 -10.869   6.684  1.00  0.00    -0.323 OA
HETATM   17  C   UNL     1      38.639 -11.518   4.420  1.00  0.00     0.040 A 
HETATM   18  C   UNL     1      40.528 -11.041   7.345  1.00  0.00     0.352 A 
HETATM   19  C   UNL     1      39.099 -12.108   3.237  1.00  0.00     0.015 A 
ENDBRANCH   5  11
BRANCH  10  20
HETATM   20  N   UNL     1      40.082 -15.446   3.782  1.00  0.00    -0.286 NA
HETATM   21  H   UNL     1      40.791 -15.727   4.456  1.00  0.00     0.125 HD
HETATM   22  H   UNL     1      39.206 -15.934   3.929  1.00  0.00     0.125 HD
ENDBRANCH  10  20
BRANCH   1  23
HETATM   23  C   UNL     1      42.062 -12.026  -1.567  1.00  0.00    -0.007 A 
HETATM   24  C   UNL     1      41.850 -12.510  -2.873  1.00  0.00     0.014 A 
HETATM   25  C   UNL     1      42.163 -11.746  -4.001  1.00  0.00     0.001 A 
HETATM   26  C   UNL     1      42.703 -10.474  -3.849  1.00  0.00     0.000 A 
HETATM   27  C   UNL     1      42.938  -9.973  -2.573  1.00  0.00     0.001 A 
HETATM   28  C   UNL     1      42.623 -10.740  -1.445  1.00  0.00     0.014 A 
ENDBRANCH   1  23
TORSDOF 3
ENDMDL
