MODEL 1
REMARK VINA RESULT:      -9.6      0.000      0.000
REMARK  3 active torsions:
REMARK  status: ('A' for Active; 'I' for Inactive)
REMARK    1  A    between atoms: C_6  and  C_7 
REMARK    2  A    between atoms: C_11  and  C_12 
REMARK       I    between atoms: C_12  and  N_13 
REMARK    3  A    between atoms: N_13  and  N_14 
ROOT
HETATM    1  C   UNL     1      41.061 -14.869  -1.066  1.00  0.00     0.289 C 
HETATM    2  N   UNL     1      42.190 -14.258  -1.585  1.00  0.00    -0.241 N 
HETATM    3  O   UNL     1      39.918 -14.648  -1.460  1.00  0.00    -0.264 OA
HETATM    4  H   UNL     1      43.116 -14.480  -1.224  1.00  0.00     0.192 HD
ENDROOT
BRANCH   1   5
HETATM    5  C   UNL     1      41.311 -15.812  -0.006  1.00  0.00     0.121 A 
HETATM    6  N   UNL     1      40.336 -16.124   0.897  1.00  0.00    -0.272 N 
HETATM    7  N   UNL     1      40.707 -17.014   1.826  1.00  0.00    -0.174 NA
HETATM    8  H   UNL     1      39.391 -15.751   0.920  1.00  0.00     0.189 HD
HETATM    9  C   UNL     1      41.984 -17.308   1.530  1.00  0.00     0.089 A 
HETATM   10  C   UNL     1      42.400 -16.569   0.382  1.00  0.00     0.071 A 
BRANCH   9  11
HETATM   11  C   UNL     1      42.753 -18.269   2.335  1.00  0.00    -0.005 A 
HETATM   12  C   UNL     1      43.186 -19.494   1.807  1.00  0.00     0.021 A 
HETATM   13  C   UNL     1      43.921 -20.415   2.581  1.00  0.00    -0.055 A 
HETATM   14  C   UNL     1      44.209 -20.113   3.926  1.00  0.00    -0.056 A 
HETATM   15  C   UNL     1      44.356 -21.710   1.952  1.00  0.00     0.049 C 
HETATM   16  C   UNL     1      44.994 -21.030   4.822  1.00  0.00     0.049 C 
HETATM   17  C   UNL     1      43.791 -18.881   4.449  1.00  0.00     0.008 A 
HETATM   18  C   UNL     1      43.073 -17.975   3.667  1.00  0.00     0.014 A 
ENDBRANCH   9  11
ENDBRANCH   1   5
BRANCH   2  19
HETATM   19  N   UNL     1      42.075 -13.342  -2.596  1.00  0.00    -0.165 NA
HETATM   20  C   UNL     1      42.276 -12.102  -2.287  1.00  0.00     0.157 A 
HETATM   21  C   UNL     1      42.631 -11.506  -0.921  1.00  0.00     0.277 A 
HETATM   22  C   UNL     1      42.202 -10.975  -3.207  1.00  0.00     0.027 A 
HETATM   23  O   UNL     1      42.776 -12.150   0.096  1.00  0.00    -0.266 OA
HETATM   24  N   UNL     1      42.734 -10.148  -1.126  1.00  0.00    -0.321 N 
HETATM   25  C   UNL     1      42.484  -9.832  -2.461  1.00  0.00     0.048 A 
HETATM   26  H   UNL     1      42.961  -9.489  -0.396  1.00  0.00     0.169 HD
HETATM   27  C   UNL     1      42.495  -8.583  -3.044  1.00  0.00     0.030 A 
HETATM   28  C   UNL     1      42.211  -8.512  -4.414  1.00  0.00     0.002 A 
HETATM   29  C   UNL     1      41.926  -9.674  -5.164  1.00  0.00     0.001 A 
HETATM   30  C   UNL     1      41.920 -10.932  -4.557  1.00  0.00     0.016 A 
ENDBRANCH   2  19
TORSDOF 3
ENDMDL
MODEL 2
REMARK VINA RESULT:      -9.6      7.123      9.224
REMARK  3 active torsions:
REMARK  status: ('A' for Active; 'I' for Inactive)
REMARK    1  A    between atoms: C_6  and  C_7 
REMARK    2  A    between atoms: C_11  and  C_12 
REMARK       I    between atoms: C_12  and  N_13 
REMARK    3  A    between atoms: N_13  and  N_14 
ROOT
HETATM    1  C   UNL     1      42.035 -12.866   5.973  1.00  0.00     0.289 C 
HETATM    2  N   UNL     1      42.894 -12.464   6.982  1.00  0.00    -0.241 N 
HETATM    3  O   UNL     1      40.918 -12.387   5.792  1.00  0.00    -0.264 OA
HETATM    4  H   UNL     1      43.813 -12.893   7.087  1.00  0.00     0.192 HD
ENDROOT
BRANCH   1   5
HETATM    5  C   UNL     1      42.542 -13.910   5.119  1.00  0.00     0.121 A 
HETATM    6  N   UNL     1      43.213 -13.608   3.969  1.00  0.00    -0.272 N 
HETATM    7  N   UNL     1      43.628 -14.675   3.276  1.00  0.00    -0.174 NA
HETATM    8  H   UNL     1      43.413 -12.678   3.613  1.00  0.00     0.189 HD
HETATM    9  C   UNL     1      43.217 -15.734   3.994  1.00  0.00     0.089 A 
HETATM   10  C   UNL     1      42.528 -15.291   5.163  1.00  0.00     0.071 A 
BRANCH   9  11
HETATM   11  C   UNL     1      43.491 -17.109   3.553  1.00  0.00    -0.005 A 
HETATM   12  C   UNL     1      43.917 -18.101   4.449  1.00  0.00     0.021 A 
HETATM   13  C   UNL     1      44.182 -19.419   4.023  1.00  0.00    -0.055 A 
HETATM   14  C   UNL     1      44.041 -19.747   2.661  1.00  0.00    -0.056 A 
HETATM   15  C   UNL     1      44.634 -20.434   5.037  1.00  0.00     0.049 C 
HETATM   16  C   UNL     1      44.291 -21.127   2.119  1.00  0.00     0.049 C 
HETATM   17  C   UNL     1      43.598 -18.760   1.768  1.00  0.00     0.008 A 
HETATM   18  C   UNL     1      43.330 -17.462   2.207  1.00  0.00     0.014 A 
ENDBRANCH   9  11
ENDBRANCH   1   5
BRANCH   2  19
HETATM   19  N   UNL     1      42.520 -11.480   7.857  1.00  0.00    -0.165 NA
HETATM   20  C   UNL     1      43.152 -11.430   8.985  1.00  0.00     0.157 A 
HETATM   21  C   UNL     1      44.282 -12.334   9.484  1.00  0.00     0.277 A 
HETATM   22  C   UNL     1      42.909 -10.467  10.051  1.00  0.00     0.027 A 
HETATM   23  O   UNL     1      44.753 -13.260   8.859  1.00  0.00    -0.266 OA
HETATM   24  N   UNL     1      44.605 -11.864  10.739  1.00  0.00    -0.321 N 
HETATM   25  C   UNL     1      43.805 -10.772  11.075  1.00  0.00     0.048 A 
HETATM   26  H   UNL     1      45.325 -12.268  11.319  1.00  0.00     0.169 HD
HETATM   27  C   UNL     1      43.833 -10.039  12.241  1.00  0.00     0.030 A 
HETATM   28  C   UNL     1      42.926  -8.977  12.354  1.00  0.00     0.002 A 
HETATM   29  C   UNL     1      42.022  -8.673  11.313  1.00  0.00     0.001 A 
HETATM   30  C   UNL     1      42.007  -9.427  10.136  1.00  0.00     0.016 A 
ENDBRANCH   2  19
TORSDOF 3
ENDMDL
MODEL 3
REMARK VINA RESULT:      -9.3      3.499      3.942
REMARK  3 active torsions:
REMARK  status: ('A' for Active; 'I' for Inactive)
REMARK    1  A    between atoms: C_6  and  C_7 
REMARK    2  A    between atoms: C_11  and  C_12 
REMARK       I    between atoms: C_12  and  N_13 
REMARK    3  A    between atoms: N_13  and  N_14 
ROOT
HETATM    1  C   UNL     1      39.814 -15.189   0.973  1.00  0.00     0.289 C 
HETATM    2  N   UNL     1      39.951 -14.443  -0.186  1.00  0.00    -0.241 N 
HETATM    3  O   UNL     1      38.858 -15.097   1.739  1.00  0.00    -0.264 OA
HETATM    4  H   UNL     1      40.765 -14.561  -0.789  1.00  0.00     0.192 HD
ENDROOT
BRANCH   1   5
HETATM    5  C   UNL     1      40.891 -16.109   1.237  1.00  0.00     0.121 A 
HETATM    6  N   UNL     1      41.992 -16.147   0.431  1.00  0.00    -0.272 N 
HETATM    7  N   UNL     1      42.912 -17.048   0.796  1.00  0.00    -0.174 NA
HETATM    8  H   UNL     1      42.163 -15.570  -0.387  1.00  0.00     0.189 HD
HETATM    9  C   UNL     1      42.402 -17.637   1.891  1.00  0.00     0.089 A 
HETATM   10  C   UNL     1      41.129 -17.072   2.199  1.00  0.00     0.071 A 
BRANCH   9  11
HETATM   11  C   UNL     1      43.134 -18.699   2.598  1.00  0.00    -0.005 A 
HETATM   12  C   UNL     1      43.502 -19.892   1.959  1.00  0.00     0.021 A 
HETATM   13  C   UNL     1      44.202 -20.911   2.639  1.00  0.00    -0.055 A 
HETATM   14  C   UNL     1      44.519 -20.741   4.000  1.00  0.00    -0.056 A 
HETATM   15  C   UNL     1      44.567 -22.165   1.893  1.00  0.00     0.049 C 
HETATM   16  C   UNL     1      45.271 -21.768   4.801  1.00  0.00     0.049 C 
HETATM   17  C   UNL     1      44.167 -19.541   4.634  1.00  0.00     0.008 A 
HETATM   18  C   UNL     1      43.483 -18.538   3.945  1.00  0.00     0.014 A 
ENDBRANCH   9  11
ENDBRANCH   1   5
BRANCH   2  19
HETATM   19  N   UNL     1      38.991 -13.534  -0.540  1.00  0.00    -0.165 NA
HETATM   20  C   UNL     1      38.558 -13.587  -1.758  1.00  0.00     0.157 A 
HETATM   21  C   UNL     1      38.977 -14.544  -2.878  1.00  0.00     0.277 A 
HETATM   22  C   UNL     1      37.544 -12.714  -2.336  1.00  0.00     0.027 A 
HETATM   23  O   UNL     1      39.810 -15.417  -2.764  1.00  0.00    -0.266 OA
HETATM   24  N   UNL     1      38.221 -14.185  -3.973  1.00  0.00    -0.321 N 
HETATM   25  C   UNL     1      37.382 -13.115  -3.661  1.00  0.00     0.048 A 
HETATM   26  H   UNL     1      38.282 -14.645  -4.869  1.00  0.00     0.169 HD
HETATM   27  C   UNL     1      36.484 -12.483  -4.494  1.00  0.00     0.030 A 
HETATM   28  C   UNL     1      35.744 -11.424  -3.954  1.00  0.00     0.002 A 
HETATM   29  C   UNL     1      35.913 -11.023  -2.611  1.00  0.00     0.001 A 
HETATM   30  C   UNL     1      36.827 -11.676  -1.780  1.00  0.00     0.016 A 
ENDBRANCH   2  19
TORSDOF 3
ENDMDL
MODEL 4
REMARK VINA RESULT:      -9.2      8.314     12.301
REMARK  3 active torsions:
REMARK  status: ('A' for Active; 'I' for Inactive)
REMARK    1  A    between atoms: C_6  and  C_7 
REMARK    2  A    between atoms: C_11  and  C_12 
REMARK       I    between atoms: C_12  and  N_13 
REMARK    3  A    between atoms: N_13  and  N_14 
ROOT
HETATM    1  C   UNL     1      44.887 -14.047   6.939  1.00  0.00     0.289 C 
HETATM    2  N   UNL     1      44.576 -15.345   7.308  1.00  0.00    -0.241 N 
HETATM    3  O   UNL     1      45.311 -13.732   5.829  1.00  0.00    -0.264 OA
HETATM    4  H   UNL     1      44.225 -15.551   8.243  1.00  0.00     0.192 HD
ENDROOT
BRANCH   1   5
HETATM    5  C   UNL     1      44.677 -13.054   7.962  1.00  0.00     0.121 A 
HETATM    6  N   UNL     1      45.722 -12.580   8.700  1.00  0.00    -0.272 N 
HETATM    7  N   UNL     1      45.382 -11.661   9.613  1.00  0.00    -0.174 NA
HETATM    8  H   UNL     1      46.696 -12.855   8.617  1.00  0.00     0.189 HD
HETATM    9  C   UNL     1      44.052 -11.517   9.477  1.00  0.00     0.089 A 
HETATM   10  C   UNL     1      43.573 -12.380   8.446  1.00  0.00     0.071 A 
BRANCH   9  11
HETATM   11  C   UNL     1      43.296 -10.577  10.317  1.00  0.00    -0.005 A 
HETATM   12  C   UNL     1      43.651 -10.329  11.651  1.00  0.00     0.021 A 
HETATM   13  C   UNL     1      42.923  -9.429  12.456  1.00  0.00    -0.055 A 
HETATM   14  C   UNL     1      41.796  -8.778  11.919  1.00  0.00    -0.056 A 
HETATM   15  C   UNL     1      43.359  -9.209  13.879  1.00  0.00     0.049 C 
HETATM   16  C   UNL     1      40.968  -7.795  12.700  1.00  0.00     0.049 C 
HETATM   17  C   UNL     1      41.452  -9.011  10.580  1.00  0.00     0.008 A 
HETATM   18  C   UNL     1      42.188  -9.898   9.793  1.00  0.00     0.014 A 
ENDBRANCH   9  11
ENDBRANCH   1   5
BRANCH   2  19
HETATM   19  N   UNL     1      44.737 -16.373   6.419  1.00  0.00    -0.165 NA
HETATM   20  C   UNL     1      44.390 -17.552   6.822  1.00  0.00     0.157 A 
HETATM   21  C   UNL     1      43.813 -17.964   8.179  1.00  0.00     0.277 A 
HETATM   22  C   UNL     1      44.480 -18.777   6.037  1.00  0.00     0.027 A 
HETATM   23  O   UNL     1      43.597 -17.202   9.098  1.00  0.00    -0.266 OA
HETATM   24  N   UNL     1      43.616 -19.326   8.100  1.00  0.00    -0.321 N 
HETATM   25  C   UNL     1      44.005 -19.806   6.849  1.00  0.00     0.048 A 
HETATM   26  H   UNL     1      43.241 -19.881   8.854  1.00  0.00     0.169 HD
HETATM   27  C   UNL     1      43.958 -21.108   6.399  1.00  0.00     0.030 A 
HETATM   28  C   UNL     1      44.407 -21.352   5.094  1.00  0.00     0.002 A 
HETATM   29  C   UNL     1      44.886 -20.305   4.277  1.00  0.00     0.001 A 
HETATM   30  C   UNL     1      44.927 -18.991   4.750  1.00  0.00     0.016 A 
ENDBRANCH   2  19
TORSDOF 3
ENDMDL
MODEL 5
REMARK VINA RESULT:      -9.2      8.395     11.737
REMARK  3 active torsions:
REMARK  status: ('A' for Active; 'I' for Inactive)
REMARK    1  A    between atoms: C_6  and  C_7 
REMARK    2  A    between atoms: C_11  and  C_12 
REMARK       I    between atoms: C_12  and  N_13 
REMARK    3  A    between atoms: N_13  and  N_14 
ROOT
HETATM    1  C   UNL     1      44.642 -13.798   7.641  1.00  0.00     0.289 C 
HETATM    2  N   UNL     1      43.915 -14.973   7.725  1.00  0.00    -0.241 N 
HETATM    3  O   UNL     1      45.688 -13.682   7.007  1.00  0.00    -0.264 OA
HETATM    4  H   UNL     1      43.050 -15.015   8.264  1.00  0.00     0.192 HD
ENDROOT
BRANCH   1   5
HETATM    5  C   UNL     1      44.084 -12.682   8.362  1.00  0.00     0.121 A 
HETATM    6  N   UNL     1      43.274 -11.780   7.735  1.00  0.00    -0.272 N 
HETATM    7  N   UNL     1      42.826 -10.797   8.526  1.00  0.00    -0.174 NA
HETATM    8  H   UNL     1      42.996 -11.793   6.759  1.00  0.00     0.189 HD
HETATM    9  C   UNL     1      43.361 -11.055   9.732  1.00  0.00     0.089 A 
HETATM   10  C   UNL     1      44.160 -12.235   9.667  1.00  0.00     0.071 A 
BRANCH   9  11
HETATM   11  C   UNL     1      43.095 -10.185  10.887  1.00  0.00    -0.005 A 
HETATM   12  C   UNL     1      42.123  -9.175  10.842  1.00  0.00     0.021 A 
HETATM   13  C   UNL     1      41.871  -8.340  11.950  1.00  0.00    -0.055 A 
HETATM   14  C   UNL     1      42.628  -8.504  13.126  1.00  0.00    -0.056 A 
HETATM   15  C   UNL     1      40.814  -7.276  11.834  1.00  0.00     0.049 C 
HETATM   16  C   UNL     1      42.422  -7.667  14.358  1.00  0.00     0.049 C 
HETATM   17  C   UNL     1      43.587  -9.526  13.178  1.00  0.00     0.008 A 
HETATM   18  C   UNL     1      43.818 -10.350  12.076  1.00  0.00     0.014 A 
ENDBRANCH   9  11
ENDBRANCH   1   5
BRANCH   2  19
HETATM   19  N   UNL     1      44.349 -16.101   7.082  1.00  0.00    -0.165 NA
HETATM   20  C   UNL     1      43.664 -16.487   6.054  1.00  0.00     0.157 A 
HETATM   21  C   UNL     1      42.414 -15.845   5.446  1.00  0.00     0.277 A 
HETATM   22  C   UNL     1      43.952 -17.656   5.234  1.00  0.00     0.027 A 
HETATM   23  O   UNL     1      41.876 -14.844   5.870  1.00  0.00    -0.266 OA
HETATM   24  N   UNL     1      42.075 -16.638   4.372  1.00  0.00    -0.321 N 
HETATM   25  C   UNL     1      42.972 -17.699   4.243  1.00  0.00     0.048 A 
HETATM   26  H   UNL     1      41.284 -16.459   3.772  1.00  0.00     0.169 HD
HETATM   27  C   UNL     1      42.960 -18.697   3.293  1.00  0.00     0.030 A 
HETATM   28  C   UNL     1      43.972 -19.663   3.364  1.00  0.00     0.002 A 
HETATM   29  C   UNL     1      44.961 -19.613   4.370  1.00  0.00     0.001 A 
HETATM   30  C   UNL     1      44.959 -18.594   5.325  1.00  0.00     0.016 A 
ENDBRANCH   2  19
TORSDOF 3
ENDMDL
MODEL 6
REMARK VINA RESULT:      -9.1      4.136      4.636
REMARK  3 active torsions:
REMARK  status: ('A' for Active; 'I' for Inactive)
REMARK    1  A    between atoms: C_6  and  C_7 
REMARK    2  A    between atoms: C_11  and  C_12 
REMARK       I    between atoms: C_12  and  N_13 
REMARK    3  A    between atoms: N_13  and  N_14 
ROOT
HETATM    1  C   UNL     1      40.645 -15.659   0.410  1.00  0.00     0.289 C 
HETATM    2  N   UNL     1      39.642 -15.344   1.311  1.00  0.00    -0.241 N 
HETATM    3  O   UNL     1      40.722 -15.189  -0.723  1.00  0.00    -0.264 OA
HETATM    4  H   UNL     1      39.626 -15.762   2.241  1.00  0.00     0.192 HD
ENDROOT
BRANCH   1   5
HETATM    5  C   UNL     1      41.625 -16.598   0.891  1.00  0.00     0.121 A 
HETATM    6  N   UNL     1      42.848 -16.701   0.293  1.00  0.00    -0.272 N 
HETATM    7  N   UNL     1      43.658 -17.612   0.846  1.00  0.00    -0.174 NA
HETATM    8  H   UNL     1      43.179 -16.164  -0.502  1.00  0.00     0.189 HD
HETATM    9  C   UNL     1      42.945 -18.140   1.855  1.00  0.00     0.089 A 
HETATM   10  C   UNL     1      41.658 -17.527   1.914  1.00  0.00     0.071 A 
BRANCH   9  11
HETATM   11  C   UNL     1      43.504 -19.192   2.717  1.00  0.00    -0.005 A 
HETATM   12  C   UNL     1      43.642 -19.016   4.102  1.00  0.00     0.021 A 
HETATM   13  C   UNL     1      44.181 -20.026   4.926  1.00  0.00    -0.055 A 
HETATM   14  C   UNL     1      44.616 -21.232   4.347  1.00  0.00    -0.056 A 
HETATM   15  C   UNL     1      44.299 -19.771   6.404  1.00  0.00     0.049 C 
HETATM   16  C   UNL     1      45.193 -22.366   5.148  1.00  0.00     0.049 C 
HETATM   17  C   UNL     1      44.462 -21.416   2.965  1.00  0.00     0.008 A 
HETATM   18  C   UNL     1      43.918 -20.411   2.163  1.00  0.00     0.014 A 
ENDBRANCH   9  11
ENDBRANCH   1   5
BRANCH   2  19
HETATM   19  N   UNL     1      38.653 -14.463   0.964  1.00  0.00    -0.165 NA
HETATM   20  C   UNL     1      38.619 -13.341   1.607  1.00  0.00     0.157 A 
HETATM   21  C   UNL     1      39.548 -12.853   2.722  1.00  0.00     0.277 A 
HETATM   22  C   UNL     1      37.652 -12.272   1.395  1.00  0.00     0.027 A 
HETATM   23  O   UNL     1      40.481 -13.486   3.170  1.00  0.00    -0.266 OA
HETATM   24  N   UNL     1      39.087 -11.601   3.067  1.00  0.00    -0.321 N 
HETATM   25  C   UNL     1      37.978 -11.256   2.293  1.00  0.00     0.048 A 
HETATM   26  H   UNL     1      39.508 -11.028   3.783  1.00  0.00     0.169 HD
HETATM   27  C   UNL     1      37.247 -10.090   2.349  1.00  0.00     0.030 A 
HETATM   28  C   UNL     1      36.166  -9.967   1.466  1.00  0.00     0.002 A 
HETATM   29  C   UNL     1      35.842 -10.999   0.559  1.00  0.00     0.001 A 
HETATM   30  C   UNL     1      36.594 -12.176   0.516  1.00  0.00     0.016 A 
ENDBRANCH   2  19
TORSDOF 3
ENDMDL
MODEL 7
REMARK VINA RESULT:      -8.9      3.328      3.825
REMARK  3 active torsions:
REMARK  status: ('A' for Active; 'I' for Inactive)
REMARK    1  A    between atoms: C_6  and  C_7 
REMARK    2  A    between atoms: C_11  and  C_12 
REMARK       I    between atoms: C_12  and  N_13 
REMARK    3  A    between atoms: N_13  and  N_14 
ROOT
HETATM    1  C   UNL     1      41.361 -14.677  -0.133  1.00  0.00     0.289 C 
HETATM    2  N   UNL     1      39.985 -14.821  -0.203  1.00  0.00    -0.241 N 
HETATM    3  O   UNL     1      42.008 -13.908  -0.840  1.00  0.00    -0.264 OA
HETATM    4  H   UNL     1      39.496 -15.473   0.409  1.00  0.00     0.192 HD
ENDROOT
BRANCH   1   5
HETATM    5  C   UNL     1      42.011 -15.506   0.850  1.00  0.00     0.121 A 
HETATM    6  N   UNL     1      42.454 -14.977   2.028  1.00  0.00    -0.272 N 
HETATM    7  N   UNL     1      43.036 -15.862   2.846  1.00  0.00    -0.174 NA
HETATM    8  H   UNL     1      42.379 -14.008   2.321  1.00  0.00     0.189 HD
HETATM    9  C   UNL     1      42.980 -17.031   2.185  1.00  0.00     0.089 A 
HETATM   10  C   UNL     1      42.341 -16.846   0.923  1.00  0.00     0.071 A 
BRANCH   9  11
HETATM   11  C   UNL     1      43.525 -18.266   2.770  1.00  0.00    -0.005 A 
HETATM   12  C   UNL     1      43.596 -19.460   2.037  1.00  0.00     0.021 A 
HETATM   13  C   UNL     1      44.117 -20.643   2.600  1.00  0.00    -0.055 A 
HETATM   14  C   UNL     1      44.555 -20.637   3.938  1.00  0.00    -0.056 A 
HETATM   15  C   UNL     1      44.165 -21.889   1.759  1.00  0.00     0.049 C 
HETATM   16  C   UNL     1      45.133 -21.848   4.617  1.00  0.00     0.049 C 
HETATM   17  C   UNL     1      44.501 -19.439   4.665  1.00  0.00     0.008 A 
HETATM   18  C   UNL     1      43.992 -18.273   4.090  1.00  0.00     0.014 A 
ENDBRANCH   9  11
ENDBRANCH   1   5
BRANCH   2  19
HETATM   19  N   UNL     1      39.260 -14.086  -1.102  1.00  0.00    -0.165 NA
HETATM   20  C   UNL     1      38.367 -13.285  -0.615  1.00  0.00     0.157 A 
HETATM   21  C   UNL     1      38.005 -13.040   0.853  1.00  0.00     0.277 A 
HETATM   22  C   UNL     1      37.491 -12.419  -1.393  1.00  0.00     0.027 A 
HETATM   23  O   UNL     1      38.532 -13.593   1.795  1.00  0.00    -0.266 OA
HETATM   24  N   UNL     1      36.998 -12.100   0.834  1.00  0.00    -0.321 N 
HETATM   25  C   UNL     1      36.693 -11.733  -0.477  1.00  0.00     0.048 A 
HETATM   26  H   UNL     1      36.555 -11.740   1.665  1.00  0.00     0.169 HD
HETATM   27  C   UNL     1      35.746 -10.825  -0.895  1.00  0.00     0.030 A 
HETATM   28  C   UNL     1      35.618 -10.619  -2.275  1.00  0.00     0.002 A 
HETATM   29  C   UNL     1      36.429 -11.316  -3.196  1.00  0.00     0.001 A 
HETATM   30  C   UNL     1      37.386 -12.234  -2.755  1.00  0.00     0.016 A 
ENDBRANCH   2  19
TORSDOF 3
ENDMDL
MODEL 8
REMARK VINA RESULT:      -8.9      2.109      9.901
REMARK  3 active torsions:
REMARK  status: ('A' for Active; 'I' for Inactive)
REMARK    1  A    between atoms: C_6  and  C_7 
REMARK    2  A    between atoms: C_11  and  C_12 
REMARK       I    between atoms: C_12  and  N_13 
REMARK    3  A    between atoms: N_13  and  N_14 
ROOT
HETATM    1  C   UNL     1      41.412 -16.133   1.718  1.00  0.00     0.289 C 
HETATM    2  N   UNL     1      42.649 -16.262   2.327  1.00  0.00    -0.241 N 
HETATM    3  O   UNL     1      40.378 -16.635   2.152  1.00  0.00    -0.264 OA
HETATM    4  H   UNL     1      43.477 -15.823   1.925  1.00  0.00     0.192 HD
ENDROOT
BRANCH   1   5
HETATM    5  C   UNL     1      41.406 -15.351   0.508  1.00  0.00     0.121 A 
HETATM    6  N   UNL     1      40.817 -15.825  -0.628  1.00  0.00    -0.272 N 
HETATM    7  N   UNL     1      40.885 -14.992  -1.674  1.00  0.00    -0.174 NA
HETATM    8  H   UNL     1      40.351 -16.720  -0.739  1.00  0.00     0.189 HD
HETATM    9  C   UNL     1      41.548 -13.917  -1.216  1.00  0.00     0.089 A 
HETATM   10  C   UNL     1      41.894 -14.107   0.156  1.00  0.00     0.071 A 
BRANCH   9  11
HETATM   11  C   UNL     1      41.824 -12.762  -2.084  1.00  0.00    -0.005 A 
HETATM   12  C   UNL     1      42.489 -11.623  -1.607  1.00  0.00     0.021 A 
HETATM   13  C   UNL     1      42.750 -10.516  -2.441  1.00  0.00    -0.055 A 
HETATM   14  C   UNL     1      42.314 -10.540  -3.779  1.00  0.00    -0.056 A 
HETATM   15  C   UNL     1      43.469  -9.326  -1.865  1.00  0.00     0.049 C 
HETATM   16  C   UNL     1      42.557  -9.411  -4.741  1.00  0.00     0.049 C 
HETATM   17  C   UNL     1      41.666 -11.686  -4.261  1.00  0.00     0.008 A 
HETATM   18  C   UNL     1      41.423 -12.778  -3.426  1.00  0.00     0.014 A 
ENDBRANCH   9  11
ENDBRANCH   1   5
BRANCH   2  19
HETATM   19  N   UNL     1      42.778 -16.985   3.482  1.00  0.00    -0.165 NA
HETATM   20  C   UNL     1      43.400 -18.116   3.396  1.00  0.00     0.157 A 
HETATM   21  C   UNL     1      44.025 -18.769   2.160  1.00  0.00     0.277 A 
HETATM   22  C   UNL     1      43.643 -19.036   4.500  1.00  0.00     0.027 A 
HETATM   23  O   UNL     1      44.016 -18.289   1.047  1.00  0.00    -0.266 OA
HETATM   24  N   UNL     1      44.560 -19.960   2.601  1.00  0.00    -0.321 N 
HETATM   25  C   UNL     1      44.340 -20.120   3.969  1.00  0.00     0.048 A 
HETATM   26  H   UNL     1      45.042 -20.612   2.001  1.00  0.00     0.169 HD
HETATM   27  C   UNL     1      44.726 -21.179   4.762  1.00  0.00     0.030 A 
HETATM   28  C   UNL     1      44.391 -21.119   6.121  1.00  0.00     0.002 A 
HETATM   29  C   UNL     1      43.685 -20.017   6.652  1.00  0.00     0.001 A 
HETATM   30  C   UNL     1      43.301 -18.952   5.834  1.00  0.00     0.016 A 
ENDBRANCH   2  19
TORSDOF 3
ENDMDL
MODEL 9
REMARK VINA RESULT:      -8.6      8.028     10.025
REMARK  3 active torsions:
REMARK  status: ('A' for Active; 'I' for Inactive)
REMARK    1  A    between atoms: C_6  and  C_7 
REMARK    2  A    between atoms: C_11  and  C_12 
REMARK       I    between atoms: C_12  and  N_13 
REMARK    3  A    between atoms: N_13  and  N_14 
ROOT
HETATM    1  C   UNL     1      41.280 -11.607   6.769  1.00  0.00     0.289 C 
HETATM    2  N   UNL     1      42.232 -11.322   7.733  1.00  0.00    -0.241 N 
HETATM    3  O   UNL     1      40.161 -11.100   6.737  1.00  0.00    -0.264 OA
HETATM    4  H   UNL     1      43.147 -11.770   7.712  1.00  0.00     0.192 HD
ENDROOT
BRANCH   1   5
HETATM    5  C   UNL     1      41.690 -12.563   5.771  1.00  0.00     0.121 A 
HETATM    6  N   UNL     1      42.262 -12.151   4.602  1.00  0.00    -0.272 N 
HETATM    7  N   UNL     1      42.594 -13.146   3.770  1.00  0.00    -0.174 NA
HETATM    8  H   UNL     1      42.448 -11.192   4.325  1.00  0.00     0.189 HD
HETATM    9  C   UNL     1      42.227 -14.269   4.411  1.00  0.00     0.089 A 
HETATM   10  C   UNL     1      41.652 -13.941   5.675  1.00  0.00     0.071 A 
BRANCH   9  11
HETATM   11  C   UNL     1      42.435 -15.594   3.809  1.00  0.00    -0.005 A 
HETATM   12  C   UNL     1      41.693 -16.025   2.700  1.00  0.00     0.021 A 
HETATM   13  C   UNL     1      41.892 -17.298   2.126  1.00  0.00    -0.055 A 
HETATM   14  C   UNL     1      42.840 -18.171   2.692  1.00  0.00    -0.056 A 
HETATM   15  C   UNL     1      41.063 -17.697   0.936  1.00  0.00     0.049 C 
HETATM   16  C   UNL     1      43.126 -19.540   2.141  1.00  0.00     0.049 C 
HETATM   17  C   UNL     1      43.595 -17.733   3.790  1.00  0.00     0.008 A 
HETATM   18  C   UNL     1      43.393 -16.467   4.341  1.00  0.00     0.014 A 
ENDBRANCH   9  11
ENDBRANCH   1   5
BRANCH   2  19
HETATM   19  N   UNL     1      41.955 -10.430   8.734  1.00  0.00    -0.165 NA
HETATM   20  C   UNL     1      42.661 -10.525   9.813  1.00  0.00     0.157 A 
HETATM   21  C   UNL     1      43.785 -11.515  10.132  1.00  0.00     0.277 A 
HETATM   22  C   UNL     1      42.527  -9.679  10.992  1.00  0.00     0.027 A 
HETATM   23  O   UNL     1      44.177 -12.381   9.379  1.00  0.00    -0.266 OA
HETATM   24  N   UNL     1      44.208 -11.198  11.405  1.00  0.00    -0.321 N 
HETATM   25  C   UNL     1      43.476 -10.124  11.912  1.00  0.00     0.048 A 
HETATM   26  H   UNL     1      44.948 -11.686  11.886  1.00  0.00     0.169 HD
HETATM   27  C   UNL     1      43.609  -9.526  13.146  1.00  0.00     0.030 A 
HETATM   28  C   UNL     1      42.755  -8.455  13.436  1.00  0.00     0.002 A 
HETATM   29  C   UNL     1      41.797  -8.009  12.500  1.00  0.00     0.001 A 
HETATM   30  C   UNL     1      41.675  -8.626  11.252  1.00  0.00     0.016 A 
ENDBRANCH   2  19
TORSDOF 3
ENDMDL
MODEL 10
REMARK VINA RESULT:      -8.6      4.288      4.861
REMARK  3 active torsions:
REMARK  status: ('A' for Active; 'I' for Inactive)
REMARK    1  A    between atoms: C_6  and  C_7 
REMARK    2  A    between atoms: C_11  and  C_12 
REMARK       I    between atoms: C_12  and  N_13 
REMARK    3  A    between atoms: N_13  and  N_14 
ROOT
HETATM    1  C   UNL     1      42.064 -14.110   2.840  1.00  0.00     0.289 C 
HETATM    2  N   UNL     1      40.743 -13.881   3.187  1.00  0.00    -0.241 N 
HETATM    3  O   UNL     1      42.735 -13.346   2.150  1.00  0.00    -0.264 OA
HETATM    4  H   UNL     1      40.232 -14.548   3.765  1.00  0.00     0.192 HD
ENDROOT
BRANCH   1   5
HETATM    5  C   UNL     1      42.627 -15.333   3.353  1.00  0.00     0.121 A 
HETATM    6  N   UNL     1      43.155 -15.387   4.611  1.00  0.00    -0.272 N 
HETATM    7  N   UNL     1      43.639 -16.586   4.956  1.00  0.00    -0.174 NA
HETATM    8  H   UNL     1      43.207 -14.623   5.278  1.00  0.00     0.189 HD
HETATM    9  C   UNL     1      43.426 -17.366   3.882  1.00  0.00     0.089 A 
HETATM   10  C   UNL     1      42.790 -16.611   2.852  1.00  0.00     0.071 A 
BRANCH   9  11
HETATM   11  C   UNL     1      43.826 -18.781   3.874  1.00  0.00    -0.005 A 
HETATM   12  C   UNL     1      43.708 -19.574   2.724  1.00  0.00     0.021 A 
HETATM   13  C   UNL     1      44.089 -20.932   2.719  1.00  0.00    -0.055 A 
HETATM   14  C   UNL     1      44.578 -21.517   3.902  1.00  0.00    -0.056 A 
HETATM   15  C   UNL     1      43.937 -21.725   1.450  1.00  0.00     0.049 C 
HETATM   16  C   UNL     1      45.018 -22.952   3.987  1.00  0.00     0.049 C 
HETATM   17  C   UNL     1      44.713 -20.719   5.048  1.00  0.00     0.008 A 
HETATM   18  C   UNL     1      44.340 -19.374   5.034  1.00  0.00     0.014 A 
ENDBRANCH   9  11
ENDBRANCH   1   5
BRANCH   2  19
HETATM   19  N   UNL     1      40.102 -12.752   2.756  1.00  0.00    -0.165 NA
HETATM   20  C   UNL     1      39.037 -12.922   2.041  1.00  0.00     0.157 A 
HETATM   21  C   UNL     1      38.382 -14.235   1.604  1.00  0.00     0.277 A 
HETATM   22  C   UNL     1      38.211 -11.858   1.484  1.00  0.00     0.027 A 
HETATM   23  O   UNL     1      38.797 -15.340   1.884  1.00  0.00    -0.266 OA
HETATM   24  N   UNL     1      37.279 -13.870   0.863  1.00  0.00    -0.321 N 
HETATM   25  C   UNL     1      37.175 -12.481   0.790  1.00  0.00     0.048 A 
HETATM   26  H   UNL     1      36.647 -14.532   0.440  1.00  0.00     0.169 HD
HETATM   27  C   UNL     1      36.208 -11.746   0.138  1.00  0.00     0.030 A 
HETATM   28  C   UNL     1      36.311 -10.350   0.203  1.00  0.00     0.002 A 
HETATM   29  C   UNL     1      37.362  -9.726   0.909  1.00  0.00     0.001 A 
HETATM   30  C   UNL     1      38.334 -10.487   1.564  1.00  0.00     0.016 A 
ENDBRANCH   2  19
TORSDOF 3
ENDMDL
