MODEL 1
REMARK VINA RESULT:      -7.8      0.000      0.000
REMARK  6 active torsions:
REMARK  status: ('A' for Active; 'I' for Inactive)
REMARK    1  A    between atoms: O_2  and  C_3 
REMARK    2  A    between atoms: C_6  and  S_7 
REMARK    3  A    between atoms: S_7  and  C_8 
REMARK    4  A    between atoms: C_11  and  N_12 
REMARK       I    between atoms: N_12  and  C_13 
REMARK    5  A    between atoms: C_13  and  C_14 
REMARK    6  A    between atoms: C_14  and  C_15 
ROOT
HETATM    1  C   UNL     1      42.893 -15.661   4.888  1.00  0.00     0.005 A 
HETATM    2  C   UNL     1      43.554 -14.457   4.641  1.00  0.00     0.021 A 
HETATM    3  C   UNL     1      44.199 -13.769   5.676  1.00  0.00     0.031 A 
HETATM    4  C   UNL     1      44.176 -14.268   6.979  1.00  0.00     0.034 A 
HETATM    5  C   UNL     1      43.519 -15.481   7.224  1.00  0.00     0.031 A 
HETATM    6  C   UNL     1      42.883 -16.175   6.187  1.00  0.00     0.021 A 
ENDROOT
BRANCH   4   7
HETATM    7  N   UNL     1      44.733 -13.597   8.088  1.00  0.00    -0.327 N 
HETATM    8  C   UNL     1      44.335 -12.383   8.623  1.00  0.00     0.227 C 
HETATM    9  O   UNL     1      43.529 -11.599   8.122  1.00  0.00    -0.273 OA
HETATM   10  H   UNL     1      45.522 -14.052   8.530  1.00  0.00     0.169 HD
BRANCH   8  11
HETATM   11  C   UNL     1      45.008 -12.059   9.955  1.00  0.00     0.159 C 
BRANCH  11  12
HETATM   12  C   UNL     1      44.062 -11.410  10.913  1.00  0.00     0.017 A 
HETATM   13  N   UNL     1      42.775 -11.867  11.097  1.00  0.00    -0.369 N 
HETATM   14  H   UNL     1      42.359 -12.642  10.589  1.00  0.00     0.165 HD
HETATM   15  C   UNL     1      42.149 -11.105  12.047  1.00  0.00     0.088 A 
HETATM   16  C   UNL     1      43.043 -10.160  12.494  1.00  0.00     0.019 A 
HETATM   17  C   UNL     1      44.251 -10.351  11.781  1.00  0.00     0.027 A 
ENDBRANCH  11  12
ENDBRANCH   8  11
ENDBRANCH   4   7
BRANCH   1  18
HETATM   18  S   UNL     1      41.989 -16.463   3.584  1.00  0.00    -0.091 SA
BRANCH  18  19
HETATM   19  C   UNL     1      42.809 -18.034   3.383  1.00  0.00     0.005 A 
HETATM   20  C   UNL     1      42.599 -18.733   2.191  1.00  0.00     0.021 A 
HETATM   21  C   UNL     1      43.269 -19.935   1.941  1.00  0.00     0.038 A 
HETATM   22  C   UNL     1      44.171 -20.450   2.872  1.00  0.00     0.068 A 
HETATM   23  C   UNL     1      44.376 -19.766   4.069  1.00  0.00     0.038 A 
HETATM   24  C   UNL     1      43.703 -18.562   4.320  1.00  0.00     0.021 A 
BRANCH  22  25
HETATM   25  O   UNL     1      44.777 -21.616   2.498  1.00  0.00    -0.356 OA
HETATM   26  C   UNL     1      44.694 -22.702   3.413  1.00  0.00     0.210 C 
ENDBRANCH  22  25
ENDBRANCH  18  19
ENDBRANCH   1  18
TORSDOF 6
ENDMDL
MODEL 2
REMARK VINA RESULT:      -7.8      1.407      1.985
REMARK  6 active torsions:
REMARK  status: ('A' for Active; 'I' for Inactive)
REMARK    1  A    between atoms: O_2  and  C_3 
REMARK    2  A    between atoms: C_6  and  S_7 
REMARK    3  A    between atoms: S_7  and  C_8 
REMARK    4  A    between atoms: C_11  and  N_12 
REMARK       I    between atoms: N_12  and  C_13 
REMARK    5  A    between atoms: C_13  and  C_14 
REMARK    6  A    between atoms: C_14  and  C_15 
ROOT
HETATM    1  C   UNL     1      42.090 -15.667   3.746  1.00  0.00     0.005 A 
HETATM    2  C   UNL     1      41.377 -15.550   4.940  1.00  0.00     0.021 A 
HETATM    3  C   UNL     1      41.796 -14.664   5.940  1.00  0.00     0.031 A 
HETATM    4  C   UNL     1      42.946 -13.894   5.765  1.00  0.00     0.034 A 
HETATM    5  C   UNL     1      43.656 -14.006   4.563  1.00  0.00     0.031 A 
HETATM    6  C   UNL     1      43.231 -14.885   3.559  1.00  0.00     0.021 A 
ENDROOT
BRANCH   4   7
HETATM    7  N   UNL     1      43.477 -13.038   6.754  1.00  0.00    -0.327 N 
HETATM    8  C   UNL     1      44.317 -13.380   7.800  1.00  0.00     0.227 C 
HETATM    9  O   UNL     1      44.616 -14.523   8.146  1.00  0.00    -0.273 OA
HETATM   10  H   UNL     1      43.195 -12.067   6.695  1.00  0.00     0.169 HD
BRANCH   8  11
HETATM   11  C   UNL     1      44.877 -12.171   8.547  1.00  0.00     0.159 C 
BRANCH  11  12
HETATM   12  C   UNL     1      44.130 -11.907   9.815  1.00  0.00     0.017 A 
HETATM   13  N   UNL     1      42.885 -11.316   9.824  1.00  0.00    -0.369 N 
HETATM   14  H   UNL     1      42.394 -10.990   8.997  1.00  0.00     0.165 HD
HETATM   15  C   UNL     1      42.431 -11.224  11.113  1.00  0.00     0.088 A 
HETATM   16  C   UNL     1      43.382 -11.775  11.942  1.00  0.00     0.019 A 
HETATM   17  C   UNL     1      44.454 -12.207  11.125  1.00  0.00     0.027 A 
ENDBRANCH  11  12
ENDBRANCH   8  11
ENDBRANCH   4   7
BRANCH   1  18
HETATM   18  S   UNL     1      41.605 -16.876   2.536  1.00  0.00    -0.091 SA
BRANCH  18  19
HETATM   19  C   UNL     1      42.703 -18.251   2.826  1.00  0.00     0.005 A 
HETATM   20  C   UNL     1      43.252 -18.391   4.105  1.00  0.00     0.021 A 
HETATM   21  C   UNL     1      44.061 -19.488   4.418  1.00  0.00     0.038 A 
HETATM   22  C   UNL     1      44.324 -20.470   3.462  1.00  0.00     0.068 A 
HETATM   23  C   UNL     1      43.792 -20.332   2.182  1.00  0.00     0.038 A 
HETATM   24  C   UNL     1      42.981 -19.231   1.868  1.00  0.00     0.021 A 
BRANCH  22  25
HETATM   25  O   UNL     1      45.107 -21.500   3.901  1.00  0.00    -0.356 OA
HETATM   26  C   UNL     1      44.863 -21.972   5.220  1.00  0.00     0.210 C 
ENDBRANCH  22  25
ENDBRANCH  18  19
ENDBRANCH   1  18
TORSDOF 6
ENDMDL
MODEL 3
REMARK VINA RESULT:      -7.4      6.262      9.364
REMARK  6 active torsions:
REMARK  status: ('A' for Active; 'I' for Inactive)
REMARK    1  A    between atoms: O_2  and  C_3 
REMARK    2  A    between atoms: C_6  and  S_7 
REMARK    3  A    between atoms: S_7  and  C_8 
REMARK    4  A    between atoms: C_11  and  N_12 
REMARK       I    between atoms: N_12  and  C_13 
REMARK    5  A    between atoms: C_13  and  C_14 
REMARK    6  A    between atoms: C_14  and  C_15 
ROOT
HETATM    1  C   UNL     1      42.366 -16.545   3.238  1.00  0.00     0.005 A 
HETATM    2  C   UNL     1      41.019 -16.786   2.961  1.00  0.00     0.021 A 
HETATM    3  C   UNL     1      40.534 -16.715   1.650  1.00  0.00     0.031 A 
HETATM    4  C   UNL     1      41.388 -16.385   0.596  1.00  0.00     0.034 A 
HETATM    5  C   UNL     1      42.741 -16.152   0.874  1.00  0.00     0.031 A 
HETATM    6  C   UNL     1      43.228 -16.232   2.185  1.00  0.00     0.021 A 
ENDROOT
BRANCH   4   7
HETATM    7  N   UNL     1      40.961 -16.217  -0.738  1.00  0.00    -0.327 N 
HETATM    8  C   UNL     1      40.765 -15.025  -1.414  1.00  0.00     0.227 C 
HETATM    9  O   UNL     1      40.771 -13.899  -0.917  1.00  0.00    -0.273 OA
HETATM   10  H   UNL     1      40.764 -17.069  -1.249  1.00  0.00     0.169 HD
BRANCH   8  11
HETATM   11  C   UNL     1      40.519 -15.212  -2.911  1.00  0.00     0.159 C 
BRANCH  11  12
HETATM   12  C   UNL     1      39.129 -14.821  -3.298  1.00  0.00     0.017 A 
HETATM   13  N   UNL     1      38.659 -13.534  -3.148  1.00  0.00    -0.369 N 
HETATM   14  H   UNL     1      39.191 -12.768  -2.743  1.00  0.00     0.165 HD
HETATM   15  C   UNL     1      37.371 -13.459  -3.607  1.00  0.00     0.088 A 
HETATM   16  C   UNL     1      37.011 -14.703  -4.074  1.00  0.00     0.019 A 
HETATM   17  C   UNL     1      38.119 -15.563  -3.880  1.00  0.00     0.027 A 
ENDBRANCH  11  12
ENDBRANCH   8  11
ENDBRANCH   4   7
BRANCH   1  18
HETATM   18  S   UNL     1      42.939 -16.532   4.920  1.00  0.00    -0.091 SA
BRANCH  18  19
HETATM   19  C   UNL     1      43.433 -18.218   5.229  1.00  0.00     0.005 A 
HETATM   20  C   UNL     1      44.045 -18.921   4.186  1.00  0.00     0.021 A 
HETATM   21  C   UNL     1      44.521 -20.220   4.385  1.00  0.00     0.038 A 
HETATM   22  C   UNL     1      44.406 -20.834   5.632  1.00  0.00     0.068 A 
HETATM   23  C   UNL     1      43.786 -20.145   6.674  1.00  0.00     0.038 A 
HETATM   24  C   UNL     1      43.308 -18.843   6.473  1.00  0.00     0.021 A 
BRANCH  22  25
HETATM   25  O   UNL     1      44.932 -22.094   5.702  1.00  0.00    -0.356 OA
HETATM   26  C   UNL     1      44.902 -22.865   4.508  1.00  0.00     0.210 C 
ENDBRANCH  22  25
ENDBRANCH  18  19
ENDBRANCH   1  18
TORSDOF 6
ENDMDL
MODEL 4
REMARK VINA RESULT:      -7.4      6.117      9.028
REMARK  6 active torsions:
REMARK  status: ('A' for Active; 'I' for Inactive)
REMARK    1  A    between atoms: O_2  and  C_3 
REMARK    2  A    between atoms: C_6  and  S_7 
REMARK    3  A    between atoms: S_7  and  C_8 
REMARK    4  A    between atoms: C_11  and  N_12 
REMARK       I    between atoms: N_12  and  C_13 
REMARK    5  A    between atoms: C_13  and  C_14 
REMARK    6  A    between atoms: C_14  and  C_15 
ROOT
HETATM    1  C   UNL     1      42.027 -15.431   3.226  1.00  0.00     0.005 A 
HETATM    2  C   UNL     1      42.402 -14.632   2.145  1.00  0.00     0.021 A 
HETATM    3  C   UNL     1      41.484 -14.315   1.136  1.00  0.00     0.031 A 
HETATM    4  C   UNL     1      40.179 -14.808   1.187  1.00  0.00     0.034 A 
HETATM    5  C   UNL     1      39.802 -15.602   2.277  1.00  0.00     0.031 A 
HETATM    6  C   UNL     1      40.717 -15.911   3.291  1.00  0.00     0.021 A 
ENDROOT
BRANCH   4   7
HETATM    7  N   UNL     1      39.220 -14.599   0.173  1.00  0.00    -0.327 N 
HETATM    8  C   UNL     1      38.738 -13.387  -0.291  1.00  0.00     0.227 C 
HETATM    9  O   UNL     1      38.943 -12.283   0.213  1.00  0.00    -0.273 OA
HETATM   10  H   UNL     1      38.833 -15.435  -0.247  1.00  0.00     0.169 HD
BRANCH   8  11
HETATM   11  C   UNL     1      37.876 -13.520  -1.546  1.00  0.00     0.159 C 
BRANCH  11  12
HETATM   12  C   UNL     1      38.478 -14.466  -2.536  1.00  0.00     0.017 A 
HETATM   13  N   UNL     1      37.755 -15.493  -3.103  1.00  0.00    -0.369 N 
HETATM   14  H   UNL     1      36.788 -15.711  -2.880  1.00  0.00     0.165 HD
HETATM   15  C   UNL     1      38.546 -16.176  -3.988  1.00  0.00     0.088 A 
HETATM   16  C   UNL     1      39.784 -15.575  -4.006  1.00  0.00     0.019 A 
HETATM   17  C   UNL     1      39.743 -14.495  -3.092  1.00  0.00     0.027 A 
ENDBRANCH  11  12
ENDBRANCH   8  11
ENDBRANCH   4   7
BRANCH   1  18
HETATM   18  S   UNL     1      43.235 -15.912   4.438  1.00  0.00    -0.091 SA
BRANCH  18  19
HETATM   19  C   UNL     1      43.623 -17.603   4.022  1.00  0.00     0.005 A 
HETATM   20  C   UNL     1      43.585 -17.970   2.673  1.00  0.00     0.021 A 
HETATM   21  C   UNL     1      43.949 -19.259   2.274  1.00  0.00     0.038 A 
HETATM   22  C   UNL     1      44.371 -20.200   3.214  1.00  0.00     0.068 A 
HETATM   23  C   UNL     1      44.399 -19.846   4.562  1.00  0.00     0.038 A 
HETATM   24  C   UNL     1      44.033 -18.553   4.962  1.00  0.00     0.021 A 
BRANCH  22  25
HETATM   25  O   UNL     1      44.722 -21.413   2.693  1.00  0.00    -0.356 OA
HETATM   26  C   UNL     1      43.985 -21.859   1.561  1.00  0.00     0.210 C 
ENDBRANCH  22  25
ENDBRANCH  18  19
ENDBRANCH   1  18
TORSDOF 6
ENDMDL
MODEL 5
REMARK VINA RESULT:      -7.4      4.937      7.523
REMARK  6 active torsions:
REMARK  status: ('A' for Active; 'I' for Inactive)
REMARK    1  A    between atoms: O_2  and  C_3 
REMARK    2  A    between atoms: C_6  and  S_7 
REMARK    3  A    between atoms: S_7  and  C_8 
REMARK    4  A    between atoms: C_11  and  N_12 
REMARK       I    between atoms: N_12  and  C_13 
REMARK    5  A    between atoms: C_13  and  C_14 
REMARK    6  A    between atoms: C_14  and  C_15 
ROOT
HETATM    1  C   UNL     1      42.648 -16.466   6.371  1.00  0.00     0.005 A 
HETATM    2  C   UNL     1      43.257 -15.662   5.406  1.00  0.00     0.021 A 
HETATM    3  C   UNL     1      42.491 -15.008   4.432  1.00  0.00     0.031 A 
HETATM    4  C   UNL     1      41.105 -15.165   4.400  1.00  0.00     0.034 A 
HETATM    5  C   UNL     1      40.495 -15.965   5.374  1.00  0.00     0.031 A 
HETATM    6  C   UNL     1      41.260 -16.611   6.354  1.00  0.00     0.021 A 
ENDROOT
BRANCH   4   7
HETATM    7  N   UNL     1      40.273 -14.605   3.407  1.00  0.00    -0.327 N 
HETATM    8  C   UNL     1      39.674 -15.260   2.345  1.00  0.00     0.227 C 
HETATM    9  O   UNL     1      39.896 -16.417   1.987  1.00  0.00    -0.273 OA
HETATM   10  H   UNL     1      40.113 -13.607   3.477  1.00  0.00     0.169 HD
BRANCH   8  11
HETATM   11  C   UNL     1      38.662 -14.396   1.595  1.00  0.00     0.159 C 
BRANCH  11  12
HETATM   12  C   UNL     1      39.123 -14.076   0.209  1.00  0.00     0.017 A 
HETATM   13  N   UNL     1      39.986 -14.896  -0.485  1.00  0.00    -0.369 N 
HETATM   14  H   UNL     1      40.397 -15.748  -0.115  1.00  0.00     0.165 HD
HETATM   15  C   UNL     1      40.212 -14.374  -1.731  1.00  0.00     0.088 A 
HETATM   16  C   UNL     1      39.476 -13.217  -1.850  1.00  0.00     0.019 A 
HETATM   17  C   UNL     1      38.788 -13.028  -0.628  1.00  0.00     0.027 A 
ENDBRANCH  11  12
ENDBRANCH   8  11
ENDBRANCH   4   7
BRANCH   1  18
HETATM   18  S   UNL     1      43.646 -17.374   7.529  1.00  0.00    -0.091 SA
BRANCH  18  19
HETATM   19  C   UNL     1      43.942 -18.936   6.722  1.00  0.00     0.005 A 
HETATM   20  C   UNL     1      44.607 -18.922   5.492  1.00  0.00     0.021 A 
HETATM   21  C   UNL     1      44.934 -20.117   4.843  1.00  0.00     0.038 A 
HETATM   22  C   UNL     1      44.614 -21.346   5.419  1.00  0.00     0.068 A 
HETATM   23  C   UNL     1      43.940 -21.370   6.639  1.00  0.00     0.038 A 
HETATM   24  C   UNL     1      43.611 -20.171   7.288  1.00  0.00     0.021 A 
BRANCH  22  25
HETATM   25  O   UNL     1      45.010 -22.437   4.698  1.00  0.00    -0.356 OA
HETATM   26  C   UNL     1      44.552 -22.514   3.353  1.00  0.00     0.210 C 
ENDBRANCH  22  25
ENDBRANCH  18  19
ENDBRANCH   1  18
TORSDOF 6
ENDMDL
MODEL 6
REMARK VINA RESULT:      -7.3      2.524      2.883
REMARK  6 active torsions:
REMARK  status: ('A' for Active; 'I' for Inactive)
REMARK    1  A    between atoms: O_2  and  C_3 
REMARK    2  A    between atoms: C_6  and  S_7 
REMARK    3  A    between atoms: S_7  and  C_8 
REMARK    4  A    between atoms: C_11  and  N_12 
REMARK       I    between atoms: N_12  and  C_13 
REMARK    5  A    between atoms: C_13  and  C_14 
REMARK    6  A    between atoms: C_14  and  C_15 
ROOT
HETATM    1  C   UNL     1      42.588 -15.469   3.721  1.00  0.00     0.005 A 
HETATM    2  C   UNL     1      43.356 -14.491   4.356  1.00  0.00     0.021 A 
HETATM    3  C   UNL     1      42.788 -13.651   5.321  1.00  0.00     0.031 A 
HETATM    4  C   UNL     1      41.437 -13.766   5.653  1.00  0.00     0.034 A 
HETATM    5  C   UNL     1      40.671 -14.753   5.020  1.00  0.00     0.031 A 
HETATM    6  C   UNL     1      41.241 -15.600   4.062  1.00  0.00     0.021 A 
ENDROOT
BRANCH   4   7
HETATM    7  N   UNL     1      40.773 -12.908   6.555  1.00  0.00    -0.327 N 
HETATM    8  C   UNL     1      40.472 -11.569   6.375  1.00  0.00     0.227 C 
HETATM    9  O   UNL     1      40.877 -10.850   5.461  1.00  0.00    -0.273 OA
HETATM   10  H   UNL     1      40.502 -13.321   7.439  1.00  0.00     0.169 HD
BRANCH   8  11
HETATM   11  C   UNL     1      39.552 -11.005   7.456  1.00  0.00     0.159 C 
BRANCH  11  12
HETATM   12  C   UNL     1      40.249 -10.888   8.774  1.00  0.00     0.017 A 
HETATM   13  N   UNL     1      39.718 -11.409   9.934  1.00  0.00    -0.369 N 
HETATM   14  H   UNL     1      38.818 -11.877   9.998  1.00  0.00     0.165 HD
HETATM   15  C   UNL     1      40.579 -11.182  10.974  1.00  0.00     0.088 A 
HETATM   16  C   UNL     1      41.681 -10.524  10.481  1.00  0.00     0.019 A 
HETATM   17  C   UNL     1      41.476 -10.339   9.093  1.00  0.00     0.027 A 
ENDBRANCH  11  12
ENDBRANCH   8  11
ENDBRANCH   4   7
BRANCH   1  18
HETATM   18  S   UNL     1      43.300 -16.451   2.421  1.00  0.00    -0.091 SA
BRANCH  18  19
HETATM   19  C   UNL     1      43.793 -17.961   3.232  1.00  0.00     0.005 A 
HETATM   20  C   UNL     1      44.005 -19.092   2.437  1.00  0.00     0.021 A 
HETATM   21  C   UNL     1      44.463 -20.286   3.002  1.00  0.00     0.038 A 
HETATM   22  C   UNL     1      44.730 -20.366   4.369  1.00  0.00     0.068 A 
HETATM   23  C   UNL     1      44.510 -19.248   5.171  1.00  0.00     0.038 A 
HETATM   24  C   UNL     1      44.049 -18.051   4.604  1.00  0.00     0.021 A 
BRANCH  22  25
HETATM   25  O   UNL     1      45.196 -21.580   4.791  1.00  0.00    -0.356 OA
HETATM   26  C   UNL     1      44.685 -22.727   4.124  1.00  0.00     0.210 C 
ENDBRANCH  22  25
ENDBRANCH  18  19
ENDBRANCH   1  18
TORSDOF 6
ENDMDL
MODEL 7
REMARK VINA RESULT:      -7.2      5.500      8.948
REMARK  6 active torsions:
REMARK  status: ('A' for Active; 'I' for Inactive)
REMARK    1  A    between atoms: O_2  and  C_3 
REMARK    2  A    between atoms: C_6  and  S_7 
REMARK    3  A    between atoms: S_7  and  C_8 
REMARK    4  A    between atoms: C_11  and  N_12 
REMARK       I    between atoms: N_12  and  C_13 
REMARK    5  A    between atoms: C_13  and  C_14 
REMARK    6  A    between atoms: C_14  and  C_15 
ROOT
HETATM    1  C   UNL     1      40.359 -14.739   2.555  1.00  0.00     0.005 A 
HETATM    2  C   UNL     1      40.220 -16.114   2.358  1.00  0.00     0.021 A 
HETATM    3  C   UNL     1      41.220 -17.001   2.776  1.00  0.00     0.031 A 
HETATM    4  C   UNL     1      42.382 -16.523   3.383  1.00  0.00     0.034 A 
HETATM    5  C   UNL     1      42.515 -15.143   3.588  1.00  0.00     0.031 A 
HETATM    6  C   UNL     1      41.511 -14.257   3.179  1.00  0.00     0.021 A 
ENDROOT
BRANCH   4   7
HETATM    7  N   UNL     1      43.467 -17.343   3.761  1.00  0.00    -0.327 N 
HETATM    8  C   UNL     1      43.470 -18.347   4.713  1.00  0.00     0.227 C 
HETATM    9  O   UNL     1      42.567 -18.591   5.514  1.00  0.00    -0.273 OA
HETATM   10  H   UNL     1      44.343 -17.160   3.287  1.00  0.00     0.169 HD
BRANCH   8  11
HETATM   11  C   UNL     1      44.750 -19.181   4.709  1.00  0.00     0.159 C 
BRANCH  11  12
HETATM   12  C   UNL     1      44.614 -20.402   3.856  1.00  0.00     0.017 A 
HETATM   13  N   UNL     1      44.775 -21.673   4.364  1.00  0.00    -0.369 N 
HETATM   14  H   UNL     1      45.022 -21.884   5.326  1.00  0.00     0.165 HD
HETATM   15  C   UNL     1      44.567 -22.593   3.370  1.00  0.00     0.088 A 
HETATM   16  C   UNL     1      44.254 -21.912   2.216  1.00  0.00     0.019 A 
HETATM   17  C   UNL     1      44.282 -20.530   2.521  1.00  0.00     0.027 A 
ENDBRANCH  11  12
ENDBRANCH   8  11
ENDBRANCH   4   7
BRANCH   1  18
HETATM   18  S   UNL     1      39.131 -13.622   1.919  1.00  0.00    -0.091 SA
BRANCH  18  19
HETATM   19  C   UNL     1      39.157 -13.899   0.158  1.00  0.00     0.005 A 
HETATM   20  C   UNL     1      40.360 -14.314  -0.421  1.00  0.00     0.021 A 
HETATM   21  C   UNL     1      40.429 -14.618  -1.784  1.00  0.00     0.038 A 
HETATM   22  C   UNL     1      39.293 -14.527  -2.589  1.00  0.00     0.068 A 
HETATM   23  C   UNL     1      38.092 -14.102  -2.022  1.00  0.00     0.038 A 
HETATM   24  C   UNL     1      38.024 -13.796  -0.656  1.00  0.00     0.021 A 
BRANCH  22  25
HETATM   25  O   UNL     1      39.487 -14.875  -3.896  1.00  0.00    -0.356 OA
HETATM   26  C   UNL     1      39.025 -16.161  -4.290  1.00  0.00     0.210 C 
ENDBRANCH  22  25
ENDBRANCH  18  19
ENDBRANCH   1  18
TORSDOF 6
ENDMDL
MODEL 8
REMARK VINA RESULT:      -7.2      5.514      9.933
REMARK  6 active torsions:
REMARK  status: ('A' for Active; 'I' for Inactive)
REMARK    1  A    between atoms: O_2  and  C_3 
REMARK    2  A    between atoms: C_6  and  S_7 
REMARK    3  A    between atoms: S_7  and  C_8 
REMARK    4  A    between atoms: C_11  and  N_12 
REMARK       I    between atoms: N_12  and  C_13 
REMARK    5  A    between atoms: C_13  and  C_14 
REMARK    6  A    between atoms: C_14  and  C_15 
ROOT
HETATM    1  C   UNL     1      41.852 -17.521   3.263  1.00  0.00     0.005 A 
HETATM    2  C   UNL     1      40.659 -16.840   3.019  1.00  0.00     0.021 A 
HETATM    3  C   UNL     1      40.327 -16.417   1.726  1.00  0.00     0.031 A 
HETATM    4  C   UNL     1      41.195 -16.656   0.659  1.00  0.00     0.034 A 
HETATM    5  C   UNL     1      42.388 -17.348   0.904  1.00  0.00     0.031 A 
HETATM    6  C   UNL     1      42.715 -17.779   2.196  1.00  0.00     0.021 A 
ENDROOT
BRANCH   4   7
HETATM    7  N   UNL     1      40.971 -16.195  -0.656  1.00  0.00    -0.327 N 
HETATM    8  C   UNL     1      41.330 -14.969  -1.189  1.00  0.00     0.227 C 
HETATM    9  O   UNL     1      41.763 -14.003  -0.561  1.00  0.00    -0.273 OA
HETATM   10  H   UNL     1      40.478 -16.832  -1.269  1.00  0.00     0.169 HD
BRANCH   8  11
HETATM   11  C   UNL     1      41.135 -14.888  -2.702  1.00  0.00     0.159 C 
BRANCH  11  12
HETATM   12  C   UNL     1      39.696 -14.712  -3.068  1.00  0.00     0.017 A 
HETATM   13  N   UNL     1      38.897 -15.773  -3.435  1.00  0.00    -0.369 N 
HETATM   14  H   UNL     1      39.214 -16.734  -3.517  1.00  0.00     0.165 HD
HETATM   15  C   UNL     1      37.627 -15.325  -3.686  1.00  0.00     0.088 A 
HETATM   16  C   UNL     1      37.601 -13.968  -3.464  1.00  0.00     0.019 A 
HETATM   17  C   UNL     1      38.905 -13.579  -3.073  1.00  0.00     0.027 A 
ENDBRANCH  11  12
ENDBRANCH   8  11
ENDBRANCH   4   7
BRANCH   1  18
HETATM   18  S   UNL     1      42.306 -17.952   4.927  1.00  0.00    -0.091 SA
BRANCH  18  19
HETATM   19  C   UNL     1      43.094 -16.483   5.560  1.00  0.00     0.005 A 
HETATM   20  C   UNL     1      43.656 -16.541   6.839  1.00  0.00     0.021 A 
HETATM   21  C   UNL     1      44.352 -15.448   7.364  1.00  0.00     0.038 A 
HETATM   22  C   UNL     1      44.511 -14.283   6.614  1.00  0.00     0.068 A 
HETATM   23  C   UNL     1      43.944 -14.211   5.342  1.00  0.00     0.038 A 
HETATM   24  C   UNL     1      43.245 -15.307   4.817  1.00  0.00     0.021 A 
BRANCH  22  25
HETATM   25  O   UNL     1      45.232 -13.299   7.230  1.00  0.00    -0.356 OA
HETATM   26  C   UNL     1      44.724 -12.815   8.467  1.00  0.00     0.210 C 
ENDBRANCH  22  25
ENDBRANCH  18  19
ENDBRANCH   1  18
TORSDOF 6
ENDMDL
MODEL 9
REMARK VINA RESULT:      -7.2      2.136      2.733
REMARK  6 active torsions:
REMARK  status: ('A' for Active; 'I' for Inactive)
REMARK    1  A    between atoms: O_2  and  C_3 
REMARK    2  A    between atoms: C_6  and  S_7 
REMARK    3  A    between atoms: S_7  and  C_8 
REMARK    4  A    between atoms: C_11  and  N_12 
REMARK       I    between atoms: N_12  and  C_13 
REMARK    5  A    between atoms: C_13  and  C_14 
REMARK    6  A    between atoms: C_14  and  C_15 
ROOT
HETATM    1  C   UNL     1      41.315 -13.925   3.914  1.00  0.00     0.005 A 
HETATM    2  C   UNL     1      40.251 -13.331   4.596  1.00  0.00     0.021 A 
HETATM    3  C   UNL     1      40.472 -12.605   5.773  1.00  0.00     0.031 A 
HETATM    4  C   UNL     1      41.761 -12.476   6.293  1.00  0.00     0.034 A 
HETATM    5  C   UNL     1      42.828 -13.065   5.603  1.00  0.00     0.031 A 
HETATM    6  C   UNL     1      42.608 -13.784   4.421  1.00  0.00     0.021 A 
ENDROOT
BRANCH   4   7
HETATM    7  N   UNL     1      42.056 -11.828   7.512  1.00  0.00    -0.327 N 
HETATM    8  C   UNL     1      42.040 -10.468   7.766  1.00  0.00     0.227 C 
HETATM    9  O   UNL     1      41.924  -9.574   6.928  1.00  0.00    -0.273 OA
HETATM   10  H   UNL     1      42.323 -12.433   8.279  1.00  0.00     0.169 HD
BRANCH   8  11
HETATM   11  C   UNL     1      42.191 -10.128   9.248  1.00  0.00     0.159 C 
BRANCH  11  12
HETATM   12  C   UNL     1      43.319 -10.879   9.878  1.00  0.00     0.017 A 
HETATM   13  N   UNL     1      43.108 -11.902  10.778  1.00  0.00    -0.369 N 
HETATM   14  H   UNL     1      42.195 -12.204  11.105  1.00  0.00     0.165 HD
HETATM   15  C   UNL     1      44.312 -12.425  11.168  1.00  0.00     0.088 A 
HETATM   16  C   UNL     1      45.308 -11.747  10.503  1.00  0.00     0.019 A 
HETATM   17  C   UNL     1      44.684 -10.773   9.688  1.00  0.00     0.027 A 
ENDBRANCH  11  12
ENDBRANCH   8  11
ENDBRANCH   4   7
BRANCH   1  18
HETATM   18  S   UNL     1      41.000 -14.935   2.485  1.00  0.00    -0.091 SA
BRANCH  18  19
HETATM   19  C   UNL     1      42.097 -16.328   2.683  1.00  0.00     0.005 A 
HETATM   20  C   UNL     1      41.848 -17.211   3.738  1.00  0.00     0.021 A 
HETATM   21  C   UNL     1      42.625 -18.361   3.905  1.00  0.00     0.038 A 
HETATM   22  C   UNL     1      43.655 -18.655   3.011  1.00  0.00     0.068 A 
HETATM   23  C   UNL     1      43.918 -17.774   1.963  1.00  0.00     0.038 A 
HETATM   24  C   UNL     1      43.139 -16.620   1.798  1.00  0.00     0.021 A 
BRANCH  22  25
HETATM   25  O   UNL     1      44.322 -19.820   3.269  1.00  0.00    -0.356 OA
HETATM   26  C   UNL     1      44.137 -20.881   2.341  1.00  0.00     0.210 C 
ENDBRANCH  22  25
ENDBRANCH  18  19
ENDBRANCH   1  18
TORSDOF 6
ENDMDL
MODEL 10
REMARK VINA RESULT:      -7.0      3.489      4.587
REMARK  6 active torsions:
REMARK  status: ('A' for Active; 'I' for Inactive)
REMARK    1  A    between atoms: O_2  and  C_3 
REMARK    2  A    between atoms: C_6  and  S_7 
REMARK    3  A    between atoms: S_7  and  C_8 
REMARK    4  A    between atoms: C_11  and  N_12 
REMARK       I    between atoms: N_12  and  C_13 
REMARK    5  A    between atoms: C_13  and  C_14 
REMARK    6  A    between atoms: C_14  and  C_15 
ROOT
HETATM    1  C   UNL     1      42.586 -16.210   4.260  1.00  0.00     0.005 A 
HETATM    2  C   UNL     1      42.706 -16.709   5.558  1.00  0.00     0.021 A 
HETATM    3  C   UNL     1      43.389 -15.986   6.543  1.00  0.00     0.031 A 
HETATM    4  C   UNL     1      43.978 -14.758   6.238  1.00  0.00     0.034 A 
HETATM    5  C   UNL     1      43.850 -14.254   4.938  1.00  0.00     0.031 A 
HETATM    6  C   UNL     1      43.158 -14.973   3.955  1.00  0.00     0.021 A 
ENDROOT
BRANCH   4   7
HETATM    7  N   UNL     1      44.749 -14.008   7.152  1.00  0.00    -0.327 N 
HETATM    8  C   UNL     1      44.353 -12.889   7.865  1.00  0.00     0.227 C 
HETATM    9  O   UNL     1      43.310 -12.256   7.702  1.00  0.00    -0.273 OA
HETATM   10  H   UNL     1      45.703 -14.319   7.285  1.00  0.00     0.169 HD
BRANCH   8  11
HETATM   11  C   UNL     1      45.363 -12.461   8.928  1.00  0.00     0.159 C 
BRANCH  11  12
HETATM   12  C   UNL     1      44.698 -11.803  10.094  1.00  0.00     0.017 A 
HETATM   13  N   UNL     1      43.740 -12.444  10.850  1.00  0.00    -0.369 N 
HETATM   14  H   UNL     1      43.391 -13.380  10.667  1.00  0.00     0.165 HD
HETATM   15  C   UNL     1      43.328 -11.619  11.862  1.00  0.00     0.088 A 
HETATM   16  C   UNL     1      44.036 -10.443  11.770  1.00  0.00     0.019 A 
HETATM   17  C   UNL     1      44.901 -10.558  10.656  1.00  0.00     0.027 A 
ENDBRANCH  11  12
ENDBRANCH   8  11
ENDBRANCH   4   7
BRANCH   1  18
HETATM   18  S   UNL     1      41.811 -17.192   2.997  1.00  0.00    -0.091 SA
BRANCH  18  19
HETATM   19  C   UNL     1      40.976 -16.001   1.965  1.00  0.00     0.005 A 
HETATM   20  C   UNL     1      41.549 -15.694   0.727  1.00  0.00     0.021 A 
HETATM   21  C   UNL     1      40.907 -14.824  -0.160  1.00  0.00     0.038 A 
HETATM   22  C   UNL     1      39.676 -14.256   0.171  1.00  0.00     0.068 A 
HETATM   23  C   UNL     1      39.105 -14.547   1.409  1.00  0.00     0.038 A 
HETATM   24  C   UNL     1      39.749 -15.418   2.297  1.00  0.00     0.021 A 
BRANCH  22  25
HETATM   25  O   UNL     1      39.143 -13.444  -0.791  1.00  0.00    -0.356 OA
HETATM   26  C   UNL     1      38.667 -14.079  -1.971  1.00  0.00     0.210 C 
ENDBRANCH  22  25
ENDBRANCH  18  19
ENDBRANCH   1  18
TORSDOF 6
ENDMDL
