MODEL 1
REMARK VINA RESULT:      -8.1      0.000      0.000
REMARK  7 active torsions:
REMARK  status: ('A' for Active; 'I' for Inactive)
REMARK    1  A    between atoms: C_4  and  C_5 
REMARK    2  A    between atoms: C_5  and  O_6 
REMARK    3  A    between atoms: C_5  and  C_7 
REMARK    4  A    between atoms: C_7  and  N_8 
REMARK       I    between atoms: N_8  and  C_9 
REMARK    5  A    between atoms: N_8  and  C_20 
REMARK    6  A    between atoms: C_9  and  C_10 
REMARK    7  A    between atoms: C_14  and  C_15 
ROOT
HETATM    1  N   UNL     1      41.731 -16.135   3.410  1.00  0.00    -0.339 N 
HETATM    2  C   UNL     1      41.402 -14.894   2.815  1.00  0.00     0.274 C 
HETATM    3  O   UNL     1      41.606 -13.835   3.415  1.00  0.00    -0.266 OA
ENDROOT
BRANCH   1   4
HETATM    4  C   UNL     1      41.669 -17.436   2.704  1.00  0.00     0.163 C 
BRANCH   4   5
HETATM    5  C   UNL     1      42.968 -17.830   1.959  1.00  0.00     0.169 C 
BRANCH   5   6
HETATM    6  C   UNL     1      43.557 -19.106   2.530  1.00  0.00    -0.028 A 
HETATM    7  C   UNL     1      43.492 -20.317   1.824  1.00  0.00     0.010 A 
HETATM    8  C   UNL     1      44.064 -21.477   2.348  1.00  0.00     0.001 A 
HETATM    9  C   UNL     1      44.714 -21.441   3.580  1.00  0.00     0.000 A 
HETATM   10  C   UNL     1      44.791 -20.245   4.289  1.00  0.00     0.001 A 
HETATM   11  C   UNL     1      44.218 -19.083   3.767  1.00  0.00     0.010 A 
ENDBRANCH   5   6
BRANCH   5  12
HETATM   12  O   UNL     1      43.960 -16.804   1.975  1.00  0.00    -0.389 OA
HETATM   13  H   UNL     1      44.551 -16.989   2.736  1.00  0.00     0.210 HD
ENDBRANCH   5  12
ENDBRANCH   4   5
ENDBRANCH   1   4
BRANCH   1  14
HETATM   14  C   UNL     1      42.122 -16.092   4.839  1.00  0.00     0.087 C 
HETATM   15  C   UNL     1      43.602 -15.763   5.106  1.00  0.00     0.025 C 
HETATM   16  C   UNL     1      43.887 -15.662   6.604  1.00  0.00     0.002 C 
HETATM   17  C   UNL     1      43.479 -16.938   7.335  1.00  0.00     0.000 C 
HETATM   18  C   UNL     1      42.019 -17.294   7.074  1.00  0.00     0.002 C 
HETATM   19  C   UNL     1      41.709 -17.378   5.579  1.00  0.00     0.025 C 
ENDBRANCH   1  14
BRANCH   2  20
HETATM   20  C   UNL     1      40.836 -14.838   1.449  1.00  0.00     0.146 A 
HETATM   21  N   UNL     1      39.519 -14.755   1.164  1.00  0.00    -0.169 NA
HETATM   22  N   UNL     1      39.472 -14.687  -0.181  1.00  0.00    -0.281 N 
HETATM   23  H   UNL     1      38.567 -14.623  -0.634  1.00  0.00     0.189 HD
HETATM   24  C   UNL     1      40.698 -14.707  -0.770  1.00  0.00     0.034 A 
HETATM   25  C   UNL     1      41.609 -14.776   0.252  1.00  0.00     0.066 A 
BRANCH  24  26
HETATM   26  C   UNL     1      41.024 -14.659  -2.246  1.00  0.00     0.037 A 
HETATM   27  C   UNL     1      40.642 -15.841  -3.111  1.00  0.00     0.011 A 
HETATM   28  C   UNL     1      39.891 -14.560  -3.244  1.00  0.00     0.011 A 
ENDBRANCH  24  26
ENDBRANCH   2  20
TORSDOF 7
ENDMDL
MODEL 2
REMARK VINA RESULT:      -7.8      1.898      6.213
REMARK  7 active torsions:
REMARK  status: ('A' for Active; 'I' for Inactive)
REMARK    1  A    between atoms: C_4  and  C_5 
REMARK    2  A    between atoms: C_5  and  O_6 
REMARK    3  A    between atoms: C_5  and  C_7 
REMARK    4  A    between atoms: C_7  and  N_8 
REMARK       I    between atoms: N_8  and  C_9 
REMARK    5  A    between atoms: N_8  and  C_20 
REMARK    6  A    between atoms: C_9  and  C_10 
REMARK    7  A    between atoms: C_14  and  C_15 
ROOT
HETATM    1  N   UNL     1      40.844 -14.931   2.757  1.00  0.00    -0.339 N 
HETATM    2  C   UNL     1      40.731 -14.614   4.132  1.00  0.00     0.274 C 
HETATM    3  O   UNL     1      39.799 -13.916   4.542  1.00  0.00    -0.266 OA
ENDROOT
BRANCH   1   4
HETATM    4  C   UNL     1      41.833 -15.886   2.206  1.00  0.00     0.163 C 
BRANCH   4   5
HETATM    5  C   UNL     1      41.345 -17.354   2.134  1.00  0.00     0.169 C 
BRANCH   5   6
HETATM    6  C   UNL     1      42.470 -18.319   2.452  1.00  0.00    -0.028 A 
HETATM    7  C   UNL     1      43.296 -18.133   3.571  1.00  0.00     0.010 A 
HETATM    8  C   UNL     1      44.309 -19.045   3.868  1.00  0.00     0.001 A 
HETATM    9  C   UNL     1      44.506 -20.159   3.055  1.00  0.00     0.000 A 
HETATM   10  C   UNL     1      43.691 -20.361   1.943  1.00  0.00     0.001 A 
HETATM   11  C   UNL     1      42.678 -19.448   1.644  1.00  0.00     0.010 A 
ENDBRANCH   5   6
BRANCH   5  12
HETATM   12  O   UNL     1      40.772 -17.696   0.872  1.00  0.00    -0.389 OA
HETATM   13  H   UNL     1      41.490 -18.087   0.328  1.00  0.00     0.210 HD
ENDBRANCH   5  12
ENDBRANCH   4   5
ENDBRANCH   1   4
BRANCH   1  14
HETATM   14  C   UNL     1      39.923 -14.216   1.843  1.00  0.00     0.087 C 
HETATM   15  C   UNL     1      38.554 -14.887   1.632  1.00  0.00     0.025 C 
HETATM   16  C   UNL     1      37.650 -14.036   0.742  1.00  0.00     0.002 C 
HETATM   17  C   UNL     1      38.313 -13.735  -0.599  1.00  0.00     0.000 C 
HETATM   18  C   UNL     1      39.680 -13.082  -0.416  1.00  0.00     0.002 C 
HETATM   19  C   UNL     1      40.592 -13.908   0.490  1.00  0.00     0.025 C 
ENDBRANCH   1  14
BRANCH   2  20
HETATM   20  C   UNL     1      41.709 -15.136   5.111  1.00  0.00     0.146 A 
HETATM   21  N   UNL     1      42.909 -14.575   5.376  1.00  0.00    -0.169 NA
HETATM   22  N   UNL     1      43.433 -15.350   6.345  1.00  0.00    -0.281 N 
HETATM   23  H   UNL     1      44.352 -15.121   6.708  1.00  0.00     0.189 HD
HETATM   24  C   UNL     1      42.620 -16.373   6.725  1.00  0.00     0.034 A 
HETATM   25  C   UNL     1      41.482 -16.252   5.969  1.00  0.00     0.066 A 
BRANCH  24  26
HETATM   26  C   UNL     1      42.883 -17.436   7.767  1.00  0.00     0.037 A 
HETATM   27  C   UNL     1      43.336 -18.805   7.306  1.00  0.00     0.011 A 
HETATM   28  C   UNL     1      44.304 -17.905   7.993  1.00  0.00     0.011 A 
ENDBRANCH  24  26
ENDBRANCH   2  20
TORSDOF 7
ENDMDL
MODEL 3
REMARK VINA RESULT:      -7.6      2.230      6.374
REMARK  7 active torsions:
REMARK  status: ('A' for Active; 'I' for Inactive)
REMARK    1  A    between atoms: C_4  and  C_5 
REMARK    2  A    between atoms: C_5  and  O_6 
REMARK    3  A    between atoms: C_5  and  C_7 
REMARK    4  A    between atoms: C_7  and  N_8 
REMARK       I    between atoms: N_8  and  C_9 
REMARK    5  A    between atoms: N_8  and  C_20 
REMARK    6  A    between atoms: C_9  and  C_10 
REMARK    7  A    between atoms: C_14  and  C_15 
ROOT
HETATM    1  N   UNL     1      41.073 -16.058   2.454  1.00  0.00    -0.339 N 
HETATM    2  C   UNL     1      42.159 -16.680   1.795  1.00  0.00     0.274 C 
HETATM    3  O   UNL     1      42.611 -16.212   0.746  1.00  0.00    -0.266 OA
ENDROOT
BRANCH   1   4
HETATM    4  C   UNL     1      40.574 -16.459   3.790  1.00  0.00     0.163 C 
BRANCH   4   5
HETATM    5  C   UNL     1      40.814 -15.416   4.909  1.00  0.00     0.169 C 
BRANCH   5   6
HETATM    6  C   UNL     1      41.902 -15.876   5.860  1.00  0.00    -0.028 A 
HETATM    7  C   UNL     1      43.101 -15.160   5.997  1.00  0.00     0.010 A 
HETATM    8  C   UNL     1      44.082 -15.579   6.896  1.00  0.00     0.001 A 
HETATM    9  C   UNL     1      43.875 -16.716   7.676  1.00  0.00     0.000 A 
HETATM   10  C   UNL     1      42.687 -17.434   7.556  1.00  0.00     0.001 A 
HETATM   11  C   UNL     1      41.706 -17.016   6.655  1.00  0.00     0.010 A 
ENDBRANCH   5   6
BRANCH   5  12
HETATM   12  O   UNL     1      39.636 -15.107   5.654  1.00  0.00    -0.389 OA
HETATM   13  H   UNL     1      39.927 -14.851   6.556  1.00  0.00     0.210 HD
ENDBRANCH   5  12
ENDBRANCH   4   5
ENDBRANCH   1   4
BRANCH   1  14
HETATM   14  C   UNL     1      40.396 -14.967   1.713  1.00  0.00     0.087 C 
HETATM   15  C   UNL     1      40.876 -13.545   2.053  1.00  0.00     0.025 C 
HETATM   16  C   UNL     1      40.179 -12.501   1.183  1.00  0.00     0.002 C 
HETATM   17  C   UNL     1      38.661 -12.599   1.304  1.00  0.00     0.000 C 
HETATM   18  C   UNL     1      38.161 -14.005   0.986  1.00  0.00     0.002 C 
HETATM   19  C   UNL     1      38.863 -15.067   1.832  1.00  0.00     0.025 C 
ENDBRANCH   1  14
BRANCH   2  20
HETATM   20  C   UNL     1      42.797 -17.888   2.364  1.00  0.00     0.146 A 
HETATM   21  N   UNL     1      42.752 -19.118   1.808  1.00  0.00    -0.169 NA
HETATM   22  N   UNL     1      43.492 -19.884   2.633  1.00  0.00    -0.281 N 
HETATM   23  H   UNL     1      43.599 -20.869   2.416  1.00  0.00     0.189 HD
HETATM   24  C   UNL     1      44.021 -19.201   3.684  1.00  0.00     0.034 A 
HETATM   25  C   UNL     1      43.617 -17.899   3.530  1.00  0.00     0.066 A 
BRANCH  24  26
HETATM   26  C   UNL     1      44.885 -19.734   4.804  1.00  0.00     0.037 A 
HETATM   27  C   UNL     1      44.210 -20.398   5.986  1.00  0.00     0.011 A 
HETATM   28  C   UNL     1      44.972 -21.230   5.013  1.00  0.00     0.011 A 
ENDBRANCH  24  26
ENDBRANCH   2  20
TORSDOF 7
ENDMDL
MODEL 4
REMARK VINA RESULT:      -7.5      1.826      2.396
REMARK  7 active torsions:
REMARK  status: ('A' for Active; 'I' for Inactive)
REMARK    1  A    between atoms: C_4  and  C_5 
REMARK    2  A    between atoms: C_5  and  O_6 
REMARK    3  A    between atoms: C_5  and  C_7 
REMARK    4  A    between atoms: C_7  and  N_8 
REMARK       I    between atoms: N_8  and  C_9 
REMARK    5  A    between atoms: N_8  and  C_20 
REMARK    6  A    between atoms: C_9  and  C_10 
REMARK    7  A    between atoms: C_14  and  C_15 
ROOT
HETATM    1  N   UNL     1      41.399 -14.404   1.849  1.00  0.00    -0.339 N 
HETATM    2  C   UNL     1      40.430 -13.518   1.321  1.00  0.00     0.274 C 
HETATM    3  O   UNL     1      40.233 -12.417   1.842  1.00  0.00    -0.266 OA
ENDROOT
BRANCH   1   4
HETATM    4  C   UNL     1      41.809 -15.669   1.197  1.00  0.00     0.163 C 
BRANCH   4   5
HETATM    5  C   UNL     1      41.156 -16.943   1.789  1.00  0.00     0.169 C 
BRANCH   5   6
HETATM    6  C   UNL     1      42.187 -17.809   2.488  1.00  0.00    -0.028 A 
HETATM    7  C   UNL     1      43.144 -18.533   1.760  1.00  0.00     0.010 A 
HETATM    8  C   UNL     1      44.104 -19.303   2.416  1.00  0.00     0.001 A 
HETATM    9  C   UNL     1      44.125 -19.355   3.809  1.00  0.00     0.000 A 
HETATM   10  C   UNL     1      43.186 -18.637   4.545  1.00  0.00     0.001 A 
HETATM   11  C   UNL     1      42.223 -17.867   3.889  1.00  0.00     0.010 A 
ENDBRANCH   5   6
BRANCH   5  12
HETATM   12  O   UNL     1      40.464 -17.725   0.817  1.00  0.00    -0.389 OA
HETATM   13  H   UNL     1      39.702 -17.189   0.507  1.00  0.00     0.210 HD
ENDBRANCH   5  12
ENDBRANCH   4   5
ENDBRANCH   1   4
BRANCH   1  14
HETATM   14  C   UNL     1      41.990 -14.024   3.154  1.00  0.00     0.087 C 
HETATM   15  C   UNL     1      43.459 -14.435   3.356  1.00  0.00     0.025 C 
HETATM   16  C   UNL     1      43.999 -13.929   4.692  1.00  0.00     0.002 C 
HETATM   17  C   UNL     1      43.141 -14.414   5.858  1.00  0.00     0.000 C 
HETATM   18  C   UNL     1      41.675 -14.032   5.675  1.00  0.00     0.002 C 
HETATM   19  C   UNL     1      41.123 -14.510   4.332  1.00  0.00     0.025 C 
ENDBRANCH   1  14
BRANCH   2  20
HETATM   20  C   UNL     1      39.653 -13.880   0.115  1.00  0.00     0.146 A 
HETATM   21  N   UNL     1      38.312 -14.034   0.079  1.00  0.00    -0.169 NA
HETATM   22  N   UNL     1      38.042 -14.316  -1.210  1.00  0.00    -0.281 N 
HETATM   23  H   UNL     1      37.079 -14.479  -1.482  1.00  0.00     0.189 HD
HETATM   24  C   UNL     1      39.146 -14.336  -2.006  1.00  0.00     0.034 A 
HETATM   25  C   UNL     1      40.206 -14.032  -1.191  1.00  0.00     0.066 A 
BRANCH  24  26
HETATM   26  C   UNL     1      39.222 -14.626  -3.488  1.00  0.00     0.037 A 
HETATM   27  C   UNL     1      39.359 -16.064  -3.939  1.00  0.00     0.011 A 
HETATM   28  C   UNL     1      38.071 -15.347  -4.154  1.00  0.00     0.011 A 
ENDBRANCH  24  26
ENDBRANCH   2  20
TORSDOF 7
ENDMDL
MODEL 5
REMARK VINA RESULT:      -7.5      2.113      6.112
REMARK  7 active torsions:
REMARK  status: ('A' for Active; 'I' for Inactive)
REMARK    1  A    between atoms: C_4  and  C_5 
REMARK    2  A    between atoms: C_5  and  O_6 
REMARK    3  A    between atoms: C_5  and  C_7 
REMARK    4  A    between atoms: C_7  and  N_8 
REMARK       I    between atoms: N_8  and  C_9 
REMARK    5  A    between atoms: N_8  and  C_20 
REMARK    6  A    between atoms: C_9  and  C_10 
REMARK    7  A    between atoms: C_14  and  C_15 
ROOT
HETATM    1  N   UNL     1      40.947 -15.053   1.400  1.00  0.00    -0.339 N 
HETATM    2  C   UNL     1      41.511 -16.019   0.533  1.00  0.00     0.274 C 
HETATM    3  O   UNL     1      41.241 -16.017  -0.672  1.00  0.00    -0.266 OA
ENDROOT
BRANCH   1   4
HETATM    4  C   UNL     1      41.339 -14.884   2.819  1.00  0.00     0.163 C 
BRANCH   4   5
HETATM    5  C   UNL     1      42.793 -14.399   3.035  1.00  0.00     0.169 C 
BRANCH   5   6
HETATM    6  C   UNL     1      43.339 -14.886   4.363  1.00  0.00    -0.028 A 
HETATM    7  C   UNL     1      43.865 -13.991   5.307  1.00  0.00     0.010 A 
HETATM    8  C   UNL     1      44.337 -14.451   6.537  1.00  0.00     0.001 A 
HETATM    9  C   UNL     1      44.285 -15.809   6.842  1.00  0.00     0.000 A 
HETATM   10  C   UNL     1      43.761 -16.709   5.917  1.00  0.00     0.001 A 
HETATM   11  C   UNL     1      43.289 -16.251   4.685  1.00  0.00     0.010 A 
ENDBRANCH   5   6
BRANCH   5  12
HETATM   12  O   UNL     1      42.930 -12.980   2.961  1.00  0.00    -0.389 OA
HETATM   13  H   UNL     1      43.284 -12.772   2.068  1.00  0.00     0.210 HD
ENDBRANCH   5  12
ENDBRANCH   4   5
ENDBRANCH   1   4
BRANCH   1  14
HETATM   14  C   UNL     1      39.878 -14.203   0.825  1.00  0.00     0.087 C 
HETATM   15  C   UNL     1      40.104 -12.686   0.952  1.00  0.00     0.025 C 
HETATM   16  C   UNL     1      38.992 -11.899   0.261  1.00  0.00     0.002 C 
HETATM   17  C   UNL     1      37.618 -12.285   0.802  1.00  0.00     0.000 C 
HETATM   18  C   UNL     1      37.375 -13.788   0.701  1.00  0.00     0.002 C 
HETATM   19  C   UNL     1      38.490 -14.593   1.368  1.00  0.00     0.025 C 
ENDBRANCH   1  14
BRANCH   2  20
HETATM   20  C   UNL     1      42.461 -17.031   1.044  1.00  0.00     0.146 A 
HETATM   21  N   UNL     1      43.802 -16.875   1.091  1.00  0.00    -0.169 NA
HETATM   22  N   UNL     1      44.251 -18.011   1.659  1.00  0.00    -0.281 N 
HETATM   23  H   UNL     1      45.249 -18.126   1.796  1.00  0.00     0.189 HD
HETATM   24  C   UNL     1      43.260 -18.881   1.993  1.00  0.00     0.034 A 
HETATM   25  C   UNL     1      42.084 -18.272   1.636  1.00  0.00     0.066 A 
BRANCH  24  26
HETATM   26  C   UNL     1      43.392 -20.245   2.632  1.00  0.00     0.037 A 
HETATM   27  C   UNL     1      43.986 -21.373   1.815  1.00  0.00     0.011 A 
HETATM   28  C   UNL     1      44.774 -20.782   2.933  1.00  0.00     0.011 A 
ENDBRANCH  24  26
ENDBRANCH   2  20
TORSDOF 7
ENDMDL
MODEL 6
REMARK VINA RESULT:      -7.5      1.299      5.856
REMARK  7 active torsions:
REMARK  status: ('A' for Active; 'I' for Inactive)
REMARK    1  A    between atoms: C_4  and  C_5 
REMARK    2  A    between atoms: C_5  and  O_6 
REMARK    3  A    between atoms: C_5  and  C_7 
REMARK    4  A    between atoms: C_7  and  N_8 
REMARK       I    between atoms: N_8  and  C_9 
REMARK    5  A    between atoms: N_8  and  C_20 
REMARK    6  A    between atoms: C_9  and  C_10 
REMARK    7  A    between atoms: C_14  and  C_15 
ROOT
HETATM    1  N   UNL     1      41.270 -15.931   2.540  1.00  0.00    -0.339 N 
HETATM    2  C   UNL     1      41.125 -15.281   3.789  1.00  0.00     0.274 C 
HETATM    3  O   UNL     1      40.690 -14.127   3.850  1.00  0.00    -0.266 OA
ENDROOT
BRANCH   1   4
HETATM    4  C   UNL     1      41.630 -17.360   2.388  1.00  0.00     0.163 C 
BRANCH   4   5
HETATM    5  C   UNL     1      43.094 -17.615   1.951  1.00  0.00     0.169 C 
BRANCH   5   6
HETATM    6  C   UNL     1      43.586 -18.959   2.450  1.00  0.00    -0.028 A 
HETATM    7  C   UNL     1      43.479 -20.114   1.659  1.00  0.00     0.010 A 
HETATM    8  C   UNL     1      43.962 -21.339   2.120  1.00  0.00     0.001 A 
HETATM    9  C   UNL     1      44.564 -21.426   3.373  1.00  0.00     0.000 A 
HETATM   10  C   UNL     1      44.683 -20.287   4.167  1.00  0.00     0.001 A 
HETATM   11  C   UNL     1      44.199 -19.061   3.709  1.00  0.00     0.010 A 
ENDBRANCH   5   6
BRANCH   5  12
HETATM   12  O   UNL     1      43.995 -16.594   2.379  1.00  0.00    -0.389 OA
HETATM   13  H   UNL     1      43.760 -16.375   3.307  1.00  0.00     0.210 HD
ENDBRANCH   5  12
ENDBRANCH   4   5
ENDBRANCH   1   4
BRANCH   1  14
HETATM   14  C   UNL     1      41.076 -15.088   1.337  1.00  0.00     0.087 C 
HETATM   15  C   UNL     1      41.090 -15.844  -0.004  1.00  0.00     0.025 C 
HETATM   16  C   UNL     1      40.803 -14.904  -1.174  1.00  0.00     0.002 C 
HETATM   17  C   UNL     1      41.786 -13.737  -1.204  1.00  0.00     0.000 C 
HETATM   18  C   UNL     1      41.803 -12.981   0.121  1.00  0.00     0.002 C 
HETATM   19  C   UNL     1      42.066 -13.909   1.306  1.00  0.00     0.025 C 
ENDBRANCH   1  14
BRANCH   2  20
HETATM   20  C   UNL     1      41.461 -15.979   5.049  1.00  0.00     0.146 A 
HETATM   21  N   UNL     1      40.563 -16.574   5.863  1.00  0.00    -0.169 NA
HETATM   22  N   UNL     1      41.310 -17.108   6.849  1.00  0.00    -0.281 N 
HETATM   23  H   UNL     1      40.842 -17.612   7.596  1.00  0.00     0.189 HD
HETATM   24  C   UNL     1      42.645 -16.896   6.698  1.00  0.00     0.034 A 
HETATM   25  C   UNL     1      42.786 -16.193   5.530  1.00  0.00     0.066 A 
BRANCH  24  26
HETATM   26  C   UNL     1      43.769 -17.337   7.609  1.00  0.00     0.037 A 
HETATM   27  C   UNL     1      44.104 -18.812   7.683  1.00  0.00     0.011 A 
HETATM   28  C   UNL     1      45.040 -17.880   6.993  1.00  0.00     0.011 A 
ENDBRANCH  24  26
ENDBRANCH   2  20
TORSDOF 7
ENDMDL
MODEL 7
REMARK VINA RESULT:      -7.4      1.740      6.191
REMARK  7 active torsions:
REMARK  status: ('A' for Active; 'I' for Inactive)
REMARK    1  A    between atoms: C_4  and  C_5 
REMARK    2  A    between atoms: C_5  and  O_6 
REMARK    3  A    between atoms: C_5  and  C_7 
REMARK    4  A    between atoms: C_7  and  N_8 
REMARK       I    between atoms: N_8  and  C_9 
REMARK    5  A    between atoms: N_8  and  C_20 
REMARK    6  A    between atoms: C_9  and  C_10 
REMARK    7  A    between atoms: C_14  and  C_15 
ROOT
HETATM    1  N   UNL     1      41.244 -14.577   0.736  1.00  0.00    -0.339 N 
HETATM    2  C   UNL     1      41.338 -13.643   1.794  1.00  0.00     0.274 C 
HETATM    3  O   UNL     1      40.632 -12.630   1.805  1.00  0.00    -0.266 OA
ENDROOT
BRANCH   1   4
HETATM    4  C   UNL     1      41.933 -15.888   0.724  1.00  0.00     0.163 C 
BRANCH   4   5
HETATM    5  C   UNL     1      41.225 -16.999   1.538  1.00  0.00     0.169 C 
BRANCH   5   6
HETATM    6  C   UNL     1      42.228 -17.831   2.313  1.00  0.00    -0.028 A 
HETATM    7  C   UNL     1      43.290 -18.481   1.666  1.00  0.00     0.010 A 
HETATM    8  C   UNL     1      44.223 -19.220   2.394  1.00  0.00     0.001 A 
HETATM    9  C   UNL     1      44.111 -19.313   3.780  1.00  0.00     0.000 A 
HETATM   10  C   UNL     1      43.066 -18.668   4.438  1.00  0.00     0.001 A 
HETATM   11  C   UNL     1      42.131 -17.930   3.710  1.00  0.00     0.010 A 
ENDBRANCH   5   6
BRANCH   5  12
HETATM   12  O   UNL     1      40.419 -17.860   0.735  1.00  0.00    -0.389 OA
HETATM   13  H   UNL     1      39.485 -17.590   0.875  1.00  0.00     0.210 HD
ENDBRANCH   5  12
ENDBRANCH   4   5
ENDBRANCH   1   4
BRANCH   1  14
HETATM   14  C   UNL     1      40.425 -14.165  -0.429  1.00  0.00     0.087 C 
HETATM   15  C   UNL     1      38.902 -14.221  -0.215  1.00  0.00     0.025 C 
HETATM   16  C   UNL     1      38.150 -13.703  -1.439  1.00  0.00     0.002 C 
HETATM   17  C   UNL     1      38.543 -14.468  -2.699  1.00  0.00     0.000 C 
HETATM   18  C   UNL     1      40.052 -14.440  -2.926  1.00  0.00     0.002 C 
HETATM   19  C   UNL     1      40.823 -14.935  -1.703  1.00  0.00     0.025 C 
ENDBRANCH   1  14
BRANCH   2  20
HETATM   20  C   UNL     1      42.262 -13.874   2.927  1.00  0.00     0.146 A 
HETATM   21  N   UNL     1      43.565 -13.521   2.942  1.00  0.00    -0.169 NA
HETATM   22  N   UNL     1      43.995 -13.882   4.167  1.00  0.00    -0.281 N 
HETATM   23  H   UNL     1      44.965 -13.715   4.412  1.00  0.00     0.189 HD
HETATM   24  C   UNL     1      43.024 -14.436   4.943  1.00  0.00     0.034 A 
HETATM   25  C   UNL     1      41.881 -14.424   4.186  1.00  0.00     0.066 A 
BRANCH  24  26
HETATM   26  C   UNL     1      43.146 -14.962   6.356  1.00  0.00     0.037 A 
HETATM   27  C   UNL     1      44.149 -16.060   6.635  1.00  0.00     0.011 A 
HETATM   28  C   UNL     1      44.412 -14.681   7.135  1.00  0.00     0.011 A 
ENDBRANCH  24  26
ENDBRANCH   2  20
TORSDOF 7
ENDMDL
MODEL 8
REMARK VINA RESULT:      -7.4      2.539      5.924
REMARK  7 active torsions:
REMARK  status: ('A' for Active; 'I' for Inactive)
REMARK    1  A    between atoms: C_4  and  C_5 
REMARK    2  A    between atoms: C_5  and  O_6 
REMARK    3  A    between atoms: C_5  and  C_7 
REMARK    4  A    between atoms: C_7  and  N_8 
REMARK       I    between atoms: N_8  and  C_9 
REMARK    5  A    between atoms: N_8  and  C_20 
REMARK    6  A    between atoms: C_9  and  C_10 
REMARK    7  A    between atoms: C_14  and  C_15 
ROOT
HETATM    1  N   UNL     1      43.468 -18.439   3.770  1.00  0.00    -0.339 N 
HETATM    2  C   UNL     1      43.788 -17.656   4.905  1.00  0.00     0.274 C 
HETATM    3  O   UNL     1      44.758 -17.942   5.613  1.00  0.00    -0.266 OA
ENDROOT
BRANCH   1   4
HETATM    4  C   UNL     1      42.426 -18.077   2.782  1.00  0.00     0.163 C 
BRANCH   4   5
HETATM    5  C   UNL     1      42.832 -16.955   1.795  1.00  0.00     0.169 C 
BRANCH   5   6
HETATM    6  C   UNL     1      41.666 -16.027   1.514  1.00  0.00    -0.028 A 
HETATM    7  C   UNL     1      41.630 -15.232   0.357  1.00  0.00     0.010 A 
HETATM    8  C   UNL     1      40.538 -14.404   0.097  1.00  0.00     0.001 A 
HETATM    9  C   UNL     1      39.464 -14.364   0.984  1.00  0.00     0.000 A 
HETATM   10  C   UNL     1      39.483 -15.152   2.133  1.00  0.00     0.001 A 
HETATM   11  C   UNL     1      40.576 -15.980   2.396  1.00  0.00     0.010 A 
ENDBRANCH   5   6
BRANCH   5  12
HETATM   12  O   UNL     1      43.350 -17.450   0.560  1.00  0.00    -0.389 OA
HETATM   13  H   UNL     1      44.302 -17.640   0.704  1.00  0.00     0.210 HD
ENDBRANCH   5  12
ENDBRANCH   4   5
ENDBRANCH   1   4
BRANCH   1  14
HETATM   14  C   UNL     1      44.217 -19.708   3.619  1.00  0.00     0.087 C 
HETATM   15  C   UNL     1      43.854 -20.542   2.377  1.00  0.00     0.025 C 
HETATM   16  C   UNL     1      44.733 -21.786   2.267  1.00  0.00     0.002 C 
HETATM   17  C   UNL     1      44.652 -22.638   3.530  1.00  0.00     0.000 C 
HETATM   18  C   UNL     1      44.994 -21.830   4.778  1.00  0.00     0.002 C 
HETATM   19  C   UNL     1      44.139 -20.569   4.894  1.00  0.00     0.025 C 
ENDBRANCH   1  14
BRANCH   2  20
HETATM   20  C   UNL     1      42.989 -16.459   5.248  1.00  0.00     0.146 A 
HETATM   21  N   UNL     1      41.934 -16.454   6.092  1.00  0.00    -0.169 NA
HETATM   22  N   UNL     1      41.548 -15.163   6.136  1.00  0.00    -0.281 N 
HETATM   23  H   UNL     1      40.754 -14.912   6.714  1.00  0.00     0.189 HD
HETATM   24  C   UNL     1      42.314 -14.340   5.370  1.00  0.00     0.034 A 
HETATM   25  C   UNL     1      43.275 -15.136   4.801  1.00  0.00     0.066 A 
BRANCH  24  26
HETATM   26  C   UNL     1      42.168 -12.848   5.171  1.00  0.00     0.037 A 
HETATM   27  C   UNL     1      41.479 -12.349   3.918  1.00  0.00     0.011 A 
HETATM   28  C   UNL     1      40.787 -12.233   5.232  1.00  0.00     0.011 A 
ENDBRANCH  24  26
ENDBRANCH   2  20
TORSDOF 7
ENDMDL
MODEL 9
REMARK VINA RESULT:      -7.3      1.680      4.467
REMARK  7 active torsions:
REMARK  status: ('A' for Active; 'I' for Inactive)
REMARK    1  A    between atoms: C_4  and  C_5 
REMARK    2  A    between atoms: C_5  and  O_6 
REMARK    3  A    between atoms: C_5  and  C_7 
REMARK    4  A    between atoms: C_7  and  N_8 
REMARK       I    between atoms: N_8  and  C_9 
REMARK    5  A    between atoms: N_8  and  C_20 
REMARK    6  A    between atoms: C_9  and  C_10 
REMARK    7  A    between atoms: C_14  and  C_15 
ROOT
HETATM    1  N   UNL     1      42.592 -17.902   2.487  1.00  0.00    -0.339 N 
HETATM    2  C   UNL     1      42.762 -17.079   1.349  1.00  0.00     0.274 C 
HETATM    3  O   UNL     1      43.567 -17.385   0.465  1.00  0.00    -0.266 OA
ENDROOT
BRANCH   1   4
HETATM    4  C   UNL     1      41.541 -17.694   3.511  1.00  0.00     0.163 C 
BRANCH   4   5
HETATM    5  C   UNL     1      41.589 -16.316   4.215  1.00  0.00     0.169 C 
BRANCH   5   6
HETATM    6  C   UNL     1      42.370 -16.393   5.512  1.00  0.00    -0.028 A 
HETATM    7  C   UNL     1      43.443 -15.525   5.769  1.00  0.00     0.010 A 
HETATM    8  C   UNL     1      44.136 -15.588   6.979  1.00  0.00     0.001 A 
HETATM    9  C   UNL     1      43.761 -16.514   7.951  1.00  0.00     0.000 A 
HETATM   10  C   UNL     1      42.694 -17.378   7.713  1.00  0.00     0.001 A 
HETATM   11  C   UNL     1      42.002 -17.317   6.502  1.00  0.00     0.010 A 
ENDBRANCH   5   6
BRANCH   5  12
HETATM   12  O   UNL     1      40.295 -15.771   4.476  1.00  0.00    -0.389 OA
HETATM   13  H   UNL     1      39.644 -16.352   4.026  1.00  0.00     0.210 HD
ENDBRANCH   5  12
ENDBRANCH   4   5
ENDBRANCH   1   4
BRANCH   1  14
HETATM   14  C   UNL     1      43.567 -19.006   2.647  1.00  0.00     0.087 C 
HETATM   15  C   UNL     1      43.172 -20.334   1.978  1.00  0.00     0.025 C 
HETATM   16  C   UNL     1      44.274 -21.382   2.129  1.00  0.00     0.002 C 
HETATM   17  C   UNL     1      44.632 -21.604   3.596  1.00  0.00     0.000 C 
HETATM   18  C   UNL     1      45.013 -20.299   4.287  1.00  0.00     0.002 C 
HETATM   19  C   UNL     1      43.932 -19.230   4.127  1.00  0.00     0.025 C 
ENDBRANCH   1  14
BRANCH   2  20
HETATM   20  C   UNL     1      41.956 -15.849   1.178  1.00  0.00     0.146 A 
HETATM   21  N   UNL     1      42.371 -14.605   1.500  1.00  0.00    -0.169 NA
HETATM   22  N   UNL     1      41.346 -13.808   1.141  1.00  0.00    -0.281 N 
HETATM   23  H   UNL     1      41.430 -12.809   1.296  1.00  0.00     0.189 HD
HETATM   24  C   UNL     1      40.300 -14.481   0.591  1.00  0.00     0.034 A 
HETATM   25  C   UNL     1      40.667 -15.802   0.571  1.00  0.00     0.066 A 
BRANCH  24  26
HETATM   26  C   UNL     1      38.989 -13.917   0.088  1.00  0.00     0.037 A 
HETATM   27  C   UNL     1      37.730 -14.194   0.881  1.00  0.00     0.011 A 
HETATM   28  C   UNL     1      38.311 -12.821   0.880  1.00  0.00     0.011 A 
ENDBRANCH  24  26
ENDBRANCH   2  20
TORSDOF 7
ENDMDL
MODEL 10
REMARK VINA RESULT:      -7.2      1.458      4.087
REMARK  7 active torsions:
REMARK  status: ('A' for Active; 'I' for Inactive)
REMARK    1  A    between atoms: C_4  and  C_5 
REMARK    2  A    between atoms: C_5  and  O_6 
REMARK    3  A    between atoms: C_5  and  C_7 
REMARK    4  A    between atoms: C_7  and  N_8 
REMARK       I    between atoms: N_8  and  C_9 
REMARK    5  A    between atoms: N_8  and  C_20 
REMARK    6  A    between atoms: C_9  and  C_10 
REMARK    7  A    between atoms: C_14  and  C_15 
ROOT
HETATM    1  N   UNL     1      42.276 -17.035   2.394  1.00  0.00    -0.339 N 
HETATM    2  C   UNL     1      41.351 -17.039   1.323  1.00  0.00     0.274 C 
HETATM    3  O   UNL     1      40.881 -18.100   0.901  1.00  0.00    -0.266 OA
ENDROOT
BRANCH   1   4
HETATM    4  C   UNL     1      42.764 -15.807   3.062  1.00  0.00     0.163 C 
BRANCH   4   5
HETATM    5  C   UNL     1      41.887 -15.321   4.243  1.00  0.00     0.169 C 
BRANCH   5   6
HETATM    6  C   UNL     1      42.445 -15.800   5.569  1.00  0.00    -0.028 A 
HETATM    7  C   UNL     1      41.854 -16.865   6.266  1.00  0.00     0.010 A 
HETATM    8  C   UNL     1      42.395 -17.314   7.471  1.00  0.00     0.001 A 
HETATM    9  C   UNL     1      43.536 -16.709   7.993  1.00  0.00     0.000 A 
HETATM   10  C   UNL     1      44.138 -15.654   7.310  1.00  0.00     0.001 A 
HETATM   11  C   UNL     1      43.597 -15.203   6.104  1.00  0.00     0.010 A 
ENDBRANCH   5   6
BRANCH   5  12
HETATM   12  O   UNL     1      40.522 -15.723   4.133  1.00  0.00    -0.389 OA
HETATM   13  H   UNL     1      40.434 -16.574   4.614  1.00  0.00     0.210 HD
ENDBRANCH   5  12
ENDBRANCH   4   5
ENDBRANCH   1   4
BRANCH   1  14
HETATM   14  C   UNL     1      42.792 -18.358   2.818  1.00  0.00     0.087 C 
HETATM   15  C   UNL     1      43.842 -18.325   3.943  1.00  0.00     0.025 C 
HETATM   16  C   UNL     1      44.250 -19.735   4.363  1.00  0.00     0.002 C 
HETATM   17  C   UNL     1      44.761 -20.545   3.175  1.00  0.00     0.000 C 
HETATM   18  C   UNL     1      43.743 -20.580   2.039  1.00  0.00     0.002 C 
HETATM   19  C   UNL     1      43.306 -19.177   1.619  1.00  0.00     0.025 C 
ENDBRANCH   1  14
BRANCH   2  20
HETATM   20  C   UNL     1      40.902 -15.772   0.706  1.00  0.00     0.146 A 
HETATM   21  N   UNL     1      39.893 -15.004   1.171  1.00  0.00    -0.169 NA
HETATM   22  N   UNL     1      39.867 -13.946   0.336  1.00  0.00    -0.281 N 
HETATM   23  H   UNL     1      39.172 -13.223   0.489  1.00  0.00     0.189 HD
HETATM   24  C   UNL     1      40.821 -13.993  -0.633  1.00  0.00     0.034 A 
HETATM   25  C   UNL     1      41.530 -15.146  -0.411  1.00  0.00     0.066 A 
BRANCH  24  26
HETATM   26  C   UNL     1      41.078 -12.993  -1.738  1.00  0.00     0.037 A 
HETATM   27  C   UNL     1      42.044 -11.858  -1.476  1.00  0.00     0.011 A 
HETATM   28  C   UNL     1      42.440 -12.962  -2.395  1.00  0.00     0.011 A 
ENDBRANCH  24  26
ENDBRANCH   2  20
TORSDOF 7
ENDMDL
