MODEL 1
REMARK VINA RESULT:      -8.9      0.000      0.000
REMARK  8 active torsions:
REMARK  status: ('A' for Active; 'I' for Inactive)
REMARK    1  A    between atoms: C_2  and  C_3 
REMARK    2  A    between atoms: C_5  and  C_6 
REMARK       I    between atoms: C_6  and  N_7 
REMARK    3  A    between atoms: N_7  and  C_8 
REMARK    4  A    between atoms: C_8  and  C_9 
REMARK    5  A    between atoms: C_9  and  N_10 
REMARK    6  A    between atoms: C_9  and  C_20 
REMARK       I    between atoms: N_10  and  C_11 
REMARK    7  A    between atoms: C_11  and  C_12 
REMARK    8  A    between atoms: C_14  and  C_15 
ROOT
HETATM    1  C   UNL     1      42.835 -15.062   4.369  1.00  0.00     0.136 C 
ENDROOT
BRANCH   1   2
HETATM    2  C   UNL     1      42.262 -14.585   5.727  1.00  0.00     0.153 C 
BRANCH   2   3
HETATM    3  N   UNL     1      43.172 -13.733   6.470  1.00  0.00    -0.353 N 
HETATM    4  C   UNL     1      44.270 -14.226   7.137  1.00  0.00     0.275 C 
HETATM    5  O   UNL     1      44.560 -15.420   7.124  1.00  0.00    -0.265 OA
HETATM    6  H   UNL     1      42.935 -12.755   6.598  1.00  0.00     0.162 HD
BRANCH   4   7
HETATM    7  C   UNL     1      45.037 -13.221   7.842  1.00  0.00     0.143 A 
HETATM    8  O   UNL     1      44.519 -12.645   8.973  1.00  0.00    -0.310 OA
HETATM    9  C   UNL     1      45.437 -11.743   9.424  1.00  0.00     0.053 A 
HETATM   10  C   UNL     1      46.537 -11.728   8.593  1.00  0.00     0.036 A 
HETATM   11  C   UNL     1      46.282 -12.682   7.579  1.00  0.00     0.045 A 
BRANCH   9  12
HETATM   12  C   UNL     1      45.082 -10.998  10.657  1.00  0.00     0.060 C 
HETATM   13  C   UNL     1      43.908 -11.637  11.379  1.00  0.00     0.012 C 
ENDBRANCH   9  12
ENDBRANCH   4   7
ENDBRANCH   2   3
ENDBRANCH   1   2
BRANCH   1  14
HETATM   14  N   UNL     1      43.469 -16.379   4.369  1.00  0.00    -0.345 N 
HETATM   15  C   UNL     1      42.865 -17.567   4.705  1.00  0.00     0.276 C 
HETATM   16  O   UNL     1      41.738 -17.638   5.182  1.00  0.00    -0.265 OA
HETATM   17  H   UNL     1      44.365 -16.459   3.905  1.00  0.00     0.163 HD
BRANCH  15  18
HETATM   18  C   UNL     1      43.686 -18.735   4.450  1.00  0.00     0.143 A 
HETATM   19  O   UNL     1      43.617 -19.360   3.230  1.00  0.00    -0.310 OA
HETATM   20  C   UNL     1      44.483 -20.412   3.267  1.00  0.00     0.053 A 
HETATM   21  C   UNL     1      45.109 -20.471   4.493  1.00  0.00     0.036 A 
HETATM   22  C   UNL     1      44.594 -19.396   5.255  1.00  0.00     0.045 A 
BRANCH  20  23
HETATM   23  C   UNL     1      44.576 -21.241   2.039  1.00  0.00     0.060 C 
HETATM   24  C   UNL     1      43.216 -21.780   1.623  1.00  0.00     0.012 C 
ENDBRANCH  20  23
ENDBRANCH  15  18
ENDBRANCH   1  14
BRANCH   1  25
HETATM   25  C   UNL     1      41.810 -14.953   3.252  1.00  0.00    -0.031 A 
HETATM   26  C   UNL     1      42.239 -14.883   1.914  1.00  0.00     0.049 A 
HETATM   27  C   UNL     1      41.315 -14.757   0.877  1.00  0.00     0.102 A 
HETATM   28  C   UNL     1      39.950 -14.676   1.161  1.00  0.00     0.102 A 
HETATM   29  O   UNL     1      41.824 -14.704  -0.396  1.00  0.00    -0.346 OA
HETATM   30  O   UNL     1      38.990 -14.505   0.196  1.00  0.00    -0.346 OA
HETATM   31  C   UNL     1      39.507 -14.770   2.476  1.00  0.00     0.040 A 
HETATM   32  C   UNL     1      39.570 -14.060  -1.036  1.00  0.00     0.202 C 
HETATM   33  C   UNL     1      40.798 -14.888  -1.378  1.00  0.00     0.202 C 
HETATM   34  C   UNL     1      40.431 -14.906   3.516  1.00  0.00     0.012 A 
ENDBRANCH   1  25
TORSDOF 8
ENDMDL
MODEL 2
REMARK VINA RESULT:      -8.9      1.772      8.790
REMARK  8 active torsions:
REMARK  status: ('A' for Active; 'I' for Inactive)
REMARK    1  A    between atoms: C_2  and  C_3 
REMARK    2  A    between atoms: C_5  and  C_6 
REMARK       I    between atoms: C_6  and  N_7 
REMARK    3  A    between atoms: N_7  and  C_8 
REMARK    4  A    between atoms: C_8  and  C_9 
REMARK    5  A    between atoms: C_9  and  N_10 
REMARK    6  A    between atoms: C_9  and  C_20 
REMARK       I    between atoms: N_10  and  C_11 
REMARK    7  A    between atoms: C_11  and  C_12 
REMARK    8  A    between atoms: C_14  and  C_15 
ROOT
HETATM    1  C   UNL     1      43.552 -15.068   6.217  1.00  0.00     0.136 C 
ENDROOT
BRANCH   1   2
HETATM    2  C   UNL     1      42.156 -14.731   5.635  1.00  0.00     0.153 C 
BRANCH   2   3
HETATM    3  N   UNL     1      42.054 -14.969   4.207  1.00  0.00    -0.353 N 
HETATM    4  C   UNL     1      41.365 -16.039   3.681  1.00  0.00     0.275 C 
HETATM    5  O   UNL     1      40.775 -16.848   4.394  1.00  0.00    -0.265 OA
HETATM    6  H   UNL     1      42.597 -14.393   3.573  1.00  0.00     0.162 HD
BRANCH   4   7
HETATM    7  C   UNL     1      41.403 -16.118   2.237  1.00  0.00     0.143 A 
HETATM    8  O   UNL     1      40.996 -15.043   1.490  1.00  0.00    -0.310 OA
HETATM    9  C   UNL     1      41.131 -15.388   0.178  1.00  0.00     0.053 A 
HETATM   10  C   UNL     1      41.616 -16.674   0.072  1.00  0.00     0.036 A 
HETATM   11  C   UNL     1      41.796 -17.141   1.396  1.00  0.00     0.045 A 
BRANCH   9  12
HETATM   12  C   UNL     1      40.749 -14.359  -0.820  1.00  0.00     0.060 C 
HETATM   13  C   UNL     1      40.928 -14.864  -2.242  1.00  0.00     0.012 C 
ENDBRANCH   9  12
ENDBRANCH   4   7
ENDBRANCH   2   3
ENDBRANCH   1   2
BRANCH   1  14
HETATM   14  N   UNL     1      43.982 -14.260   7.356  1.00  0.00    -0.345 N 
HETATM   15  C   UNL     1      45.103 -13.466   7.408  1.00  0.00     0.276 C 
HETATM   16  O   UNL     1      45.960 -13.453   6.530  1.00  0.00    -0.265 OA
HETATM   17  H   UNL     1      43.310 -14.116   8.099  1.00  0.00     0.163 HD
BRANCH  15  18
HETATM   18  C   UNL     1      45.187 -12.647   8.601  1.00  0.00     0.143 A 
HETATM   19  O   UNL     1      44.359 -12.908   9.663  1.00  0.00    -0.310 OA
HETATM   20  C   UNL     1      44.650 -11.996  10.634  1.00  0.00     0.053 A 
HETATM   21  C   UNL     1      45.656 -11.154  10.211  1.00  0.00     0.036 A 
HETATM   22  C   UNL     1      45.998 -11.569   8.903  1.00  0.00     0.045 A 
BRANCH  20  23
HETATM   23  C   UNL     1      43.867 -12.091  11.893  1.00  0.00     0.060 C 
HETATM   24  C   UNL     1      43.342 -10.733  12.329  1.00  0.00     0.012 C 
ENDBRANCH  20  23
ENDBRANCH  15  18
ENDBRANCH   1  14
BRANCH   1  25
HETATM   25  C   UNL     1      43.698 -16.551   6.517  1.00  0.00    -0.031 A 
HETATM   26  C   UNL     1      44.052 -17.441   5.487  1.00  0.00     0.049 A 
HETATM   27  C   UNL     1      44.166 -18.808   5.737  1.00  0.00     0.102 A 
HETATM   28  C   UNL     1      43.906 -19.311   7.014  1.00  0.00     0.102 A 
HETATM   29  O   UNL     1      44.523 -19.599   4.675  1.00  0.00    -0.346 OA
HETATM   30  O   UNL     1      43.953 -20.647   7.320  1.00  0.00    -0.346 OA
HETATM   31  C   UNL     1      43.580 -18.442   8.050  1.00  0.00     0.040 A 
HETATM   32  C   UNL     1      43.929 -21.450   6.134  1.00  0.00     0.202 C 
HETATM   33  C   UNL     1      44.909 -20.910   5.104  1.00  0.00     0.202 C 
HETATM   34  C   UNL     1      43.475 -17.070   7.804  1.00  0.00     0.012 A 
ENDBRANCH   1  25
TORSDOF 8
ENDMDL
MODEL 3
REMARK VINA RESULT:      -8.8      1.923      5.834
REMARK  8 active torsions:
REMARK  status: ('A' for Active; 'I' for Inactive)
REMARK    1  A    between atoms: C_2  and  C_3 
REMARK    2  A    between atoms: C_5  and  C_6 
REMARK       I    between atoms: C_6  and  N_7 
REMARK    3  A    between atoms: N_7  and  C_8 
REMARK    4  A    between atoms: C_8  and  C_9 
REMARK    5  A    between atoms: C_9  and  N_10 
REMARK    6  A    between atoms: C_9  and  C_20 
REMARK       I    between atoms: N_10  and  C_11 
REMARK    7  A    between atoms: C_11  and  C_12 
REMARK    8  A    between atoms: C_14  and  C_15 
ROOT
HETATM    1  C   UNL     1      43.315 -15.182   6.214  1.00  0.00     0.136 C 
ENDROOT
BRANCH   1   2
HETATM    2  C   UNL     1      44.451 -14.196   6.588  1.00  0.00     0.153 C 
BRANCH   2   3
HETATM    3  N   UNL     1      44.125 -13.339   7.713  1.00  0.00    -0.353 N 
HETATM    4  C   UNL     1      45.074 -12.601   8.383  1.00  0.00     0.275 C 
HETATM    5  O   UNL     1      46.258 -12.607   8.051  1.00  0.00    -0.265 OA
HETATM    6  H   UNL     1      43.185 -13.365   8.094  1.00  0.00     0.162 HD
BRANCH   4   7
HETATM    7  C   UNL     1      44.555 -11.833   9.493  1.00  0.00     0.143 A 
HETATM    8  O   UNL     1      43.270 -11.355   9.444  1.00  0.00    -0.310 OA
HETATM    9  C   UNL     1      43.047 -10.673  10.602  1.00  0.00     0.053 A 
HETATM   10  C   UNL     1      44.175 -10.702  11.395  1.00  0.00     0.036 A 
HETATM   11  C   UNL     1      45.142 -11.452  10.684  1.00  0.00     0.045 A 
BRANCH   9  12
HETATM   12  C   UNL     1      41.702 -10.070  10.767  1.00  0.00     0.060 C 
HETATM   13  C   UNL     1      40.722 -11.048  11.392  1.00  0.00     0.012 C 
ENDBRANCH   9  12
ENDBRANCH   4   7
ENDBRANCH   2   3
ENDBRANCH   1   2
BRANCH   1  14
HETATM   14  N   UNL     1      42.352 -14.701   5.226  1.00  0.00    -0.345 N 
HETATM   15  C   UNL     1      40.982 -14.755   5.339  1.00  0.00     0.276 C 
HETATM   16  O   UNL     1      40.404 -15.349   6.243  1.00  0.00    -0.265 OA
HETATM   17  H   UNL     1      42.707 -14.108   4.486  1.00  0.00     0.163 HD
BRANCH  15  18
HETATM   18  C   UNL     1      40.279 -14.050   4.285  1.00  0.00     0.143 A 
HETATM   19  O   UNL     1      39.962 -14.708   3.123  1.00  0.00    -0.310 OA
HETATM   20  C   UNL     1      39.313 -13.816   2.320  1.00  0.00     0.053 A 
HETATM   21  C   UNL     1      39.208 -12.596   2.951  1.00  0.00     0.036 A 
HETATM   22  C   UNL     1      39.833 -12.745   4.212  1.00  0.00     0.045 A 
BRANCH  20  23
HETATM   23  C   UNL     1      38.869 -14.316   0.994  1.00  0.00     0.060 C 
HETATM   24  C   UNL     1      37.385 -14.071   0.773  1.00  0.00     0.012 C 
ENDBRANCH  20  23
ENDBRANCH  15  18
ENDBRANCH   1  14
BRANCH   1  25
HETATM   25  C   UNL     1      43.856 -16.548   5.826  1.00  0.00    -0.031 A 
HETATM   26  C   UNL     1      43.521 -17.103   4.578  1.00  0.00     0.049 A 
HETATM   27  C   UNL     1      43.987 -18.366   4.214  1.00  0.00     0.102 A 
HETATM   28  C   UNL     1      44.774 -19.105   5.100  1.00  0.00     0.102 A 
HETATM   29  O   UNL     1      43.616 -18.824   2.975  1.00  0.00    -0.346 OA
HETATM   30  O   UNL     1      45.228 -20.371   4.828  1.00  0.00    -0.346 OA
HETATM   31  C   UNL     1      45.136 -18.560   6.328  1.00  0.00     0.040 A 
HETATM   32  C   UNL     1      44.506 -20.954   3.737  1.00  0.00     0.202 C 
HETATM   33  C   UNL     1      44.389 -19.966   2.587  1.00  0.00     0.202 C 
HETATM   34  C   UNL     1      44.679 -17.290   6.691  1.00  0.00     0.012 A 
ENDBRANCH   1  25
TORSDOF 8
ENDMDL
MODEL 4
REMARK VINA RESULT:      -8.6      2.143      8.948
REMARK  8 active torsions:
REMARK  status: ('A' for Active; 'I' for Inactive)
REMARK    1  A    between atoms: C_2  and  C_3 
REMARK    2  A    between atoms: C_5  and  C_6 
REMARK       I    between atoms: C_6  and  N_7 
REMARK    3  A    between atoms: N_7  and  C_8 
REMARK    4  A    between atoms: C_8  and  C_9 
REMARK    5  A    between atoms: C_9  and  N_10 
REMARK    6  A    between atoms: C_9  and  C_20 
REMARK       I    between atoms: N_10  and  C_11 
REMARK    7  A    between atoms: C_11  and  C_12 
REMARK    8  A    between atoms: C_14  and  C_15 
ROOT
HETATM    1  C   UNL     1      43.885 -14.447   6.513  1.00  0.00     0.136 C 
ENDROOT
BRANCH   1   2
HETATM    2  C   UNL     1      42.757 -14.070   5.519  1.00  0.00     0.153 C 
BRANCH   2   3
HETATM    3  N   UNL     1      42.594 -15.026   4.440  1.00  0.00    -0.353 N 
HETATM    4  C   UNL     1      41.360 -15.385   3.947  1.00  0.00     0.275 C 
HETATM    5  O   UNL     1      40.318 -14.897   4.380  1.00  0.00    -0.265 OA
HETATM    6  H   UNL     1      43.407 -15.534   4.107  1.00  0.00     0.162 HD
BRANCH   4   7
HETATM    7  C   UNL     1      41.407 -16.373   2.892  1.00  0.00     0.143 A 
HETATM    8  O   UNL     1      42.549 -17.108   2.702  1.00  0.00    -0.310 OA
HETATM    9  C   UNL     1      42.321 -17.948   1.653  1.00  0.00     0.053 A 
HETATM   10  C   UNL     1      41.046 -17.760   1.163  1.00  0.00     0.036 A 
HETATM   11  C   UNL     1      40.457 -16.752   1.962  1.00  0.00     0.045 A 
BRANCH   9  12
HETATM   12  C   UNL     1      43.435 -18.851   1.274  1.00  0.00     0.060 C 
HETATM   13  C   UNL     1      43.320 -20.202   1.960  1.00  0.00     0.012 C 
ENDBRANCH   9  12
ENDBRANCH   4   7
ENDBRANCH   2   3
ENDBRANCH   1   2
BRANCH   1  14
HETATM   14  N   UNL     1      43.955 -13.649   7.734  1.00  0.00    -0.345 N 
HETATM   15  C   UNL     1      45.033 -12.906   8.155  1.00  0.00     0.276 C 
HETATM   16  O   UNL     1      46.129 -12.941   7.606  1.00  0.00    -0.265 OA
HETATM   17  H   UNL     1      43.083 -13.466   8.217  1.00  0.00     0.163 HD
BRANCH  15  18
HETATM   18  C   UNL     1      44.759 -12.080   9.314  1.00  0.00     0.143 A 
HETATM   19  O   UNL     1      43.651 -11.271   9.326  1.00  0.00    -0.310 OA
HETATM   20  C   UNL     1      43.642 -10.617  10.521  1.00  0.00     0.053 A 
HETATM   21  C   UNL     1      44.728 -10.995  11.280  1.00  0.00     0.036 A 
HETATM   22  C   UNL     1      45.449 -11.932  10.502  1.00  0.00     0.045 A 
BRANCH  20  23
HETATM   23  C   UNL     1      42.516  -9.677  10.757  1.00  0.00     0.060 C 
HETATM   24  C   UNL     1      42.725  -8.859  12.021  1.00  0.00     0.012 C 
ENDBRANCH  20  23
ENDBRANCH  15  18
ENDBRANCH   1  14
BRANCH   1  25
HETATM   25  C   UNL     1      43.882 -15.933   6.834  1.00  0.00    -0.031 A 
HETATM   26  C   UNL     1      44.211 -16.865   5.834  1.00  0.00     0.049 A 
HETATM   27  C   UNL     1      44.190 -18.233   6.102  1.00  0.00     0.102 A 
HETATM   28  C   UNL     1      43.818 -18.694   7.367  1.00  0.00     0.102 A 
HETATM   29  O   UNL     1      44.532 -19.068   5.068  1.00  0.00    -0.346 OA
HETATM   30  O   UNL     1      43.731 -20.024   7.688  1.00  0.00    -0.346 OA
HETATM   31  C   UNL     1      43.516 -17.784   8.376  1.00  0.00     0.040 A 
HETATM   32  C   UNL     1      43.700 -20.838   6.510  1.00  0.00     0.202 C 
HETATM   33  C   UNL     1      44.777 -20.401   5.530  1.00  0.00     0.202 C 
HETATM   34  C   UNL     1      43.546 -16.412   8.112  1.00  0.00     0.012 A 
ENDBRANCH   1  25
TORSDOF 8
ENDMDL
MODEL 5
REMARK VINA RESULT:      -8.5      2.897      8.593
REMARK  8 active torsions:
REMARK  status: ('A' for Active; 'I' for Inactive)
REMARK    1  A    between atoms: C_2  and  C_3 
REMARK    2  A    between atoms: C_5  and  C_6 
REMARK       I    between atoms: C_6  and  N_7 
REMARK    3  A    between atoms: N_7  and  C_8 
REMARK    4  A    between atoms: C_8  and  C_9 
REMARK    5  A    between atoms: C_9  and  N_10 
REMARK    6  A    between atoms: C_9  and  C_20 
REMARK       I    between atoms: N_10  and  C_11 
REMARK    7  A    between atoms: C_11  and  C_12 
REMARK    8  A    between atoms: C_14  and  C_15 
ROOT
HETATM    1  C   UNL     1      42.857 -16.446   2.134  1.00  0.00     0.136 C 
ENDROOT
BRANCH   1   2
HETATM    2  C   UNL     1      41.931 -16.705   0.919  1.00  0.00     0.153 C 
BRANCH   2   3
HETATM    3  N   UNL     1      42.093 -15.733  -0.147  1.00  0.00    -0.353 N 
HETATM    4  C   UNL     1      41.380 -14.557  -0.192  1.00  0.00     0.275 C 
HETATM    5  O   UNL     1      40.576 -14.247   0.685  1.00  0.00    -0.265 OA
HETATM    6  H   UNL     1      42.669 -15.973  -0.946  1.00  0.00     0.162 HD
BRANCH   4   7
HETATM    7  C   UNL     1      41.663 -13.735  -1.349  1.00  0.00     0.143 A 
HETATM    8  O   UNL     1      42.156 -12.467  -1.174  1.00  0.00    -0.310 OA
HETATM    9  C   UNL     1      42.324 -11.925  -2.414  1.00  0.00     0.053 A 
HETATM   10  C   UNL     1      41.940 -12.827  -3.383  1.00  0.00     0.036 A 
HETATM   11  C   UNL     1      41.521 -13.992  -2.699  1.00  0.00     0.045 A 
BRANCH   9  12
HETATM   12  C   UNL     1      42.861 -10.543  -2.464  1.00  0.00     0.060 C 
HETATM   13  C   UNL     1      43.557 -10.165  -1.167  1.00  0.00     0.012 C 
ENDBRANCH   9  12
ENDBRANCH   4   7
ENDBRANCH   2   3
ENDBRANCH   1   2
BRANCH   1  14
HETATM   14  N   UNL     1      42.303 -15.605   3.193  1.00  0.00    -0.345 N 
HETATM   15  C   UNL     1      42.668 -14.309   3.472  1.00  0.00     0.276 C 
HETATM   16  O   UNL     1      43.617 -13.746   2.935  1.00  0.00    -0.265 OA
HETATM   17  H   UNL     1      41.452 -15.925   3.638  1.00  0.00     0.163 HD
BRANCH  15  18
HETATM   18  C   UNL     1      41.832 -13.665   4.465  1.00  0.00     0.143 A 
HETATM   19  O   UNL     1      42.122 -12.387   4.872  1.00  0.00    -0.310 OA
HETATM   20  C   UNL     1      41.185 -12.037   5.799  1.00  0.00     0.053 A 
HETATM   21  C   UNL     1      40.296 -13.072   5.993  1.00  0.00     0.036 A 
HETATM   22  C   UNL     1      40.714 -14.120   5.139  1.00  0.00     0.045 A 
BRANCH  20  23
HETATM   23  C   UNL     1      41.303 -10.676   6.383  1.00  0.00     0.060 C 
HETATM   24  C   UNL     1      41.793 -10.725   7.821  1.00  0.00     0.012 C 
ENDBRANCH  20  23
ENDBRANCH  15  18
ENDBRANCH   1  14
BRANCH   1  25
HETATM   25  C   UNL     1      43.418 -17.739   2.705  1.00  0.00    -0.031 A 
HETATM   26  C   UNL     1      43.417 -18.906   1.921  1.00  0.00     0.049 A 
HETATM   27  C   UNL     1      43.904 -20.108   2.435  1.00  0.00     0.102 A 
HETATM   28  C   UNL     1      44.378 -20.168   3.747  1.00  0.00     0.102 A 
HETATM   29  O   UNL     1      43.870 -21.193   1.597  1.00  0.00    -0.346 OA
HETATM   30  O   UNL     1      44.828 -21.323   4.332  1.00  0.00    -0.346 OA
HETATM   31  C   UNL     1      44.412 -19.016   4.527  1.00  0.00     0.040 A 
HETATM   32  C   UNL     1      44.411 -22.475   3.589  1.00  0.00     0.202 C 
HETATM   33  C   UNL     1      44.664 -22.272   2.104  1.00  0.00     0.202 C 
HETATM   34  C   UNL     1      43.933 -17.808   4.010  1.00  0.00     0.012 A 
ENDBRANCH   1  25
TORSDOF 8
ENDMDL
MODEL 6
REMARK VINA RESULT:      -8.5      2.538      6.165
REMARK  8 active torsions:
REMARK  status: ('A' for Active; 'I' for Inactive)
REMARK    1  A    between atoms: C_2  and  C_3 
REMARK    2  A    between atoms: C_5  and  C_6 
REMARK       I    between atoms: C_6  and  N_7 
REMARK    3  A    between atoms: N_7  and  C_8 
REMARK    4  A    between atoms: C_8  and  C_9 
REMARK    5  A    between atoms: C_9  and  N_10 
REMARK    6  A    between atoms: C_9  and  C_20 
REMARK       I    between atoms: N_10  and  C_11 
REMARK    7  A    between atoms: C_11  and  C_12 
REMARK    8  A    between atoms: C_14  and  C_15 
ROOT
HETATM    1  C   UNL     1      42.982 -15.541   6.129  1.00  0.00     0.136 C 
ENDROOT
BRANCH   1   2
HETATM    2  C   UNL     1      44.353 -15.329   6.818  1.00  0.00     0.153 C 
BRANCH   2   3
HETATM    3  N   UNL     1      44.342 -14.269   7.810  1.00  0.00    -0.353 N 
HETATM    4  C   UNL     1      45.239 -13.225   7.787  1.00  0.00     0.275 C 
HETATM    5  O   UNL     1      46.092 -13.116   6.909  1.00  0.00    -0.265 OA
HETATM    6  H   UNL     1      43.727 -14.353   8.611  1.00  0.00     0.162 HD
BRANCH   4   7
HETATM    7  C   UNL     1      45.084 -12.286   8.877  1.00  0.00     0.143 A 
HETATM    8  O   UNL     1      44.006 -12.397   9.718  1.00  0.00    -0.310 OA
HETATM    9  C   UNL     1      44.106 -11.396  10.638  1.00  0.00     0.053 A 
HETATM   10  C   UNL     1      45.232 -10.639  10.396  1.00  0.00     0.036 A 
HETATM   11  C   UNL     1      45.863 -11.214   9.268  1.00  0.00     0.045 A 
BRANCH   9  12
HETATM   12  C   UNL     1      43.035 -11.329  11.662  1.00  0.00     0.060 C 
HETATM   13  C   UNL     1      43.338 -10.285  12.722  1.00  0.00     0.012 C 
ENDBRANCH   9  12
ENDBRANCH   4   7
ENDBRANCH   2   3
ENDBRANCH   1   2
BRANCH   1  14
HETATM   14  N   UNL     1      42.389 -14.359   5.506  1.00  0.00    -0.345 N 
HETATM   15  C   UNL     1      42.989 -13.552   4.569  1.00  0.00     0.276 C 
HETATM   16  O   UNL     1      44.167 -13.659   4.243  1.00  0.00    -0.265 OA
HETATM   17  H   UNL     1      41.392 -14.227   5.624  1.00  0.00     0.163 HD
BRANCH  15  18
HETATM   18  C   UNL     1      42.104 -12.553   4.003  1.00  0.00     0.143 A 
HETATM   19  O   UNL     1      41.716 -11.479   4.764  1.00  0.00    -0.310 OA
HETATM   20  C   UNL     1      40.896 -10.712   3.990  1.00  0.00     0.053 A 
HETATM   21  C   UNL     1      40.753 -11.277   2.742  1.00  0.00     0.036 A 
HETATM   22  C   UNL     1      41.525 -12.463   2.751  1.00  0.00     0.045 A 
BRANCH  20  23
HETATM   23  C   UNL     1      40.352  -9.481   4.616  1.00  0.00     0.060 C 
HETATM   24  C   UNL     1      38.844  -9.562   4.792  1.00  0.00     0.012 C 
ENDBRANCH  20  23
ENDBRANCH  15  18
ENDBRANCH   1  14
BRANCH   1  25
HETATM   25  C   UNL     1      43.011 -16.710   5.157  1.00  0.00    -0.031 A 
HETATM   26  C   UNL     1      43.968 -17.728   5.317  1.00  0.00     0.049 A 
HETATM   27  C   UNL     1      44.027 -18.795   4.421  1.00  0.00     0.102 A 
HETATM   28  C   UNL     1      43.147 -18.851   3.338  1.00  0.00     0.102 A 
HETATM   29  O   UNL     1      44.988 -19.745   4.659  1.00  0.00    -0.346 OA
HETATM   30  O   UNL     1      43.178 -19.845   2.394  1.00  0.00    -0.346 OA
HETATM   31  C   UNL     1      42.176 -17.866   3.180  1.00  0.00     0.040 A 
HETATM   32  C   UNL     1      44.413 -20.568   2.447  1.00  0.00     0.202 C 
HETATM   33  C   UNL     1      44.760 -20.927   3.883  1.00  0.00     0.202 C 
HETATM   34  C   UNL     1      42.109 -16.801   4.082  1.00  0.00     0.012 A 
ENDBRANCH   1  25
TORSDOF 8
ENDMDL
MODEL 7
REMARK VINA RESULT:      -8.3      2.285      7.357
REMARK  8 active torsions:
REMARK  status: ('A' for Active; 'I' for Inactive)
REMARK    1  A    between atoms: C_2  and  C_3 
REMARK    2  A    between atoms: C_5  and  C_6 
REMARK       I    between atoms: C_6  and  N_7 
REMARK    3  A    between atoms: N_7  and  C_8 
REMARK    4  A    between atoms: C_8  and  C_9 
REMARK    5  A    between atoms: C_9  and  N_10 
REMARK    6  A    between atoms: C_9  and  C_20 
REMARK       I    between atoms: N_10  and  C_11 
REMARK    7  A    between atoms: C_11  and  C_12 
REMARK    8  A    between atoms: C_14  and  C_15 
ROOT
HETATM    1  C   UNL     1      42.283 -14.144   5.185  1.00  0.00     0.136 C 
ENDROOT
BRANCH   1   2
HETATM    2  C   UNL     1      42.941 -14.557   3.844  1.00  0.00     0.153 C 
BRANCH   2   3
HETATM    3  N   UNL     1      43.327 -15.955   3.797  1.00  0.00    -0.353 N 
HETATM    4  C   UNL     1      43.016 -16.774   2.736  1.00  0.00     0.275 C 
HETATM    5  O   UNL     1      42.409 -16.362   1.750  1.00  0.00    -0.265 OA
HETATM    6  H   UNL     1      43.745 -16.377   4.619  1.00  0.00     0.162 HD
BRANCH   4   7
HETATM    7  C   UNL     1      43.464 -18.142   2.890  1.00  0.00     0.143 A 
HETATM    8  O   UNL     1      43.845 -18.593   4.128  1.00  0.00    -0.310 OA
HETATM    9  C   UNL     1      44.220 -19.896   3.985  1.00  0.00     0.053 A 
HETATM   10  C   UNL     1      44.089 -20.287   2.669  1.00  0.00     0.036 A 
HETATM   11  C   UNL     1      43.598 -19.161   1.967  1.00  0.00     0.045 A 
BRANCH   9  12
HETATM   12  C   UNL     1      44.669 -20.594   5.214  1.00  0.00     0.060 C 
HETATM   13  C   UNL     1      44.861 -22.082   4.975  1.00  0.00     0.012 C 
ENDBRANCH   9  12
ENDBRANCH   4   7
ENDBRANCH   2   3
ENDBRANCH   1   2
BRANCH   1  14
HETATM   14  N   UNL     1      43.177 -13.562   6.184  1.00  0.00    -0.345 N 
HETATM   15  C   UNL     1      44.202 -14.212   6.829  1.00  0.00     0.276 C 
HETATM   16  O   UNL     1      44.399 -15.419   6.735  1.00  0.00    -0.265 OA
HETATM   17  H   UNL     1      43.173 -12.554   6.274  1.00  0.00     0.163 HD
BRANCH  15  18
HETATM   18  C   UNL     1      45.030 -13.342   7.640  1.00  0.00     0.143 A 
HETATM   19  O   UNL     1      44.620 -12.999   8.904  1.00  0.00    -0.310 OA
HETATM   20  C   UNL     1      45.577 -12.183   9.431  1.00  0.00     0.053 A 
HETATM   21  C   UNL     1      46.597 -11.998   8.524  1.00  0.00     0.036 A 
HETATM   22  C   UNL     1      46.244 -12.739   7.371  1.00  0.00     0.045 A 
BRANCH  20  23
HETATM   23  C   UNL     1      45.341 -11.685  10.810  1.00  0.00     0.060 C 
HETATM   24  C   UNL     1      43.877 -11.795  11.202  1.00  0.00     0.012 C 
ENDBRANCH  20  23
ENDBRANCH  15  18
ENDBRANCH   1  14
BRANCH   1  25
HETATM   25  C   UNL     1      41.062 -13.265   4.970  1.00  0.00    -0.031 A 
HETATM   26  C   UNL     1      40.685 -12.900   3.665  1.00  0.00     0.049 A 
HETATM   27  C   UNL     1      39.583 -12.073   3.449  1.00  0.00     0.102 A 
HETATM   28  C   UNL     1      38.854 -11.578   4.532  1.00  0.00     0.102 A 
HETATM   29  O   UNL     1      39.285 -11.775   2.143  1.00  0.00    -0.346 OA
HETATM   30  O   UNL     1      37.789 -10.725   4.396  1.00  0.00    -0.346 OA
HETATM   31  C   UNL     1      39.197 -11.951   5.829  1.00  0.00     0.040 A 
HETATM   32  C   UNL     1      37.765 -10.134   3.092  1.00  0.00     0.202 C 
HETATM   33  C   UNL     1      37.982 -11.193   2.023  1.00  0.00     0.202 C 
HETATM   34  C   UNL     1      40.296 -12.787   6.047  1.00  0.00     0.012 A 
ENDBRANCH   1  25
TORSDOF 8
ENDMDL
MODEL 8
REMARK VINA RESULT:      -8.2      2.305      6.146
REMARK  8 active torsions:
REMARK  status: ('A' for Active; 'I' for Inactive)
REMARK    1  A    between atoms: C_2  and  C_3 
REMARK    2  A    between atoms: C_5  and  C_6 
REMARK       I    between atoms: C_6  and  N_7 
REMARK    3  A    between atoms: N_7  and  C_8 
REMARK    4  A    between atoms: C_8  and  C_9 
REMARK    5  A    between atoms: C_9  and  N_10 
REMARK    6  A    between atoms: C_9  and  C_20 
REMARK       I    between atoms: N_10  and  C_11 
REMARK    7  A    between atoms: C_11  and  C_12 
REMARK    8  A    between atoms: C_14  and  C_15 
ROOT
HETATM    1  C   UNL     1      42.745 -16.330   4.072  1.00  0.00     0.136 C 
ENDROOT
BRANCH   1   2
HETATM    2  C   UNL     1      43.493 -15.319   4.978  1.00  0.00     0.153 C 
BRANCH   2   3
HETATM    3  N   UNL     1      42.612 -14.369   5.633  1.00  0.00    -0.353 N 
HETATM    4  C   UNL     1      42.248 -13.175   5.054  1.00  0.00     0.275 C 
HETATM    5  O   UNL     1      42.632 -12.850   3.932  1.00  0.00    -0.265 OA
HETATM    6  H   UNL     1      42.339 -14.535   6.595  1.00  0.00     0.162 HD
BRANCH   4   7
HETATM    7  C   UNL     1      41.386 -12.354   5.877  1.00  0.00     0.143 A 
HETATM    8  O   UNL     1      41.923 -11.641   6.918  1.00  0.00    -0.310 OA
HETATM    9  C   UNL     1      40.900 -10.969   7.518  1.00  0.00     0.053 A 
HETATM   10  C   UNL     1      39.711 -11.245   6.879  1.00  0.00     0.036 A 
HETATM   11  C   UNL     1      40.024 -12.131   5.821  1.00  0.00     0.045 A 
BRANCH   9  12
HETATM   12  C   UNL     1      41.259 -10.119   8.679  1.00  0.00     0.060 C 
HETATM   13  C   UNL     1      42.626 -10.478   9.236  1.00  0.00     0.012 C 
ENDBRANCH   9  12
ENDBRANCH   4   7
ENDBRANCH   2   3
ENDBRANCH   1   2
BRANCH   1  14
HETATM   14  N   UNL     1      42.488 -15.893   2.702  1.00  0.00    -0.345 N 
HETATM   15  C   UNL     1      41.267 -15.533   2.182  1.00  0.00     0.276 C 
HETATM   16  O   UNL     1      40.210 -15.671   2.789  1.00  0.00    -0.265 OA
HETATM   17  H   UNL     1      43.293 -15.648   2.138  1.00  0.00     0.163 HD
BRANCH  15  18
HETATM   18  C   UNL     1      41.340 -14.979   0.845  1.00  0.00     0.143 A 
HETATM   19  O   UNL     1      41.031 -15.768  -0.235  1.00  0.00    -0.310 OA
HETATM   20  C   UNL     1      41.182 -15.000  -1.352  1.00  0.00     0.053 A 
HETATM   21  C   UNL     1      41.582 -13.728  -1.005  1.00  0.00     0.036 A 
HETATM   22  C   UNL     1      41.688 -13.716   0.406  1.00  0.00     0.045 A 
BRANCH  20  23
HETATM   23  C   UNL     1      40.895 -15.656  -2.653  1.00  0.00     0.060 C 
HETATM   24  C   UNL     1      40.064 -14.761  -3.559  1.00  0.00     0.012 C 
ENDBRANCH  20  23
ENDBRANCH  15  18
ENDBRANCH   1  14
BRANCH   1  25
HETATM   25  C   UNL     1      43.401 -17.701   4.092  1.00  0.00    -0.031 A 
HETATM   26  C   UNL     1      43.195 -18.589   3.021  1.00  0.00     0.049 A 
HETATM   27  C   UNL     1      43.768 -19.860   3.032  1.00  0.00     0.102 A 
HETATM   28  C   UNL     1      44.537 -20.273   4.123  1.00  0.00     0.102 A 
HETATM   29  O   UNL     1      43.520 -20.656   1.942  1.00  0.00    -0.346 OA
HETATM   30  O   UNL     1      45.091 -21.524   4.222  1.00  0.00    -0.346 OA
HETATM   31  C   UNL     1      44.772 -19.398   5.178  1.00  0.00     0.040 A 
HETATM   32  C   UNL     1      44.491 -22.430   3.289  1.00  0.00     0.202 C 
HETATM   33  C   UNL     1      44.392 -21.791   1.913  1.00  0.00     0.202 C 
HETATM   34  C   UNL     1      44.207 -18.119   5.165  1.00  0.00     0.012 A 
ENDBRANCH   1  25
TORSDOF 8
ENDMDL
MODEL 9
REMARK VINA RESULT:      -8.2      1.804      8.079
REMARK  8 active torsions:
REMARK  status: ('A' for Active; 'I' for Inactive)
REMARK    1  A    between atoms: C_2  and  C_3 
REMARK    2  A    between atoms: C_5  and  C_6 
REMARK       I    between atoms: C_6  and  N_7 
REMARK    3  A    between atoms: N_7  and  C_8 
REMARK    4  A    between atoms: C_8  and  C_9 
REMARK    5  A    between atoms: C_9  and  N_10 
REMARK    6  A    between atoms: C_9  and  C_20 
REMARK       I    between atoms: N_10  and  C_11 
REMARK    7  A    between atoms: C_11  and  C_12 
REMARK    8  A    between atoms: C_14  and  C_15 
ROOT
HETATM    1  C   UNL     1      43.749 -15.234   5.892  1.00  0.00     0.136 C 
ENDROOT
BRANCH   1   2
HETATM    2  C   UNL     1      43.840 -16.499   6.783  1.00  0.00     0.153 C 
BRANCH   2   3
HETATM    3  N   UNL     1      44.057 -17.721   6.030  1.00  0.00    -0.353 N 
HETATM    4  C   UNL     1      44.050 -18.965   6.618  1.00  0.00     0.275 C 
HETATM    5  O   UNL     1      43.838 -19.117   7.819  1.00  0.00    -0.265 OA
HETATM    6  H   UNL     1      44.331 -17.655   5.056  1.00  0.00     0.162 HD
BRANCH   4   7
HETATM    7  C   UNL     1      44.313 -20.055   5.704  1.00  0.00     0.143 A 
HETATM    8  O   UNL     1      44.436 -19.799   4.363  1.00  0.00    -0.310 OA
HETATM    9  C   UNL     1      44.674 -20.990   3.744  1.00  0.00     0.053 A 
HETATM   10  C   UNL     1      44.700 -22.010   4.671  1.00  0.00     0.036 A 
HETATM   11  C   UNL     1      44.474 -21.409   5.931  1.00  0.00     0.045 A 
BRANCH   9  12
HETATM   12  C   UNL     1      44.848 -20.947   2.271  1.00  0.00     0.060 C 
HETATM   13  C   UNL     1      43.921 -21.924   1.569  1.00  0.00     0.012 C 
ENDBRANCH   9  12
ENDBRANCH   4   7
ENDBRANCH   2   3
ENDBRANCH   1   2
BRANCH   1  14
HETATM   14  N   UNL     1      42.693 -15.238   4.883  1.00  0.00    -0.345 N 
HETATM   15  C   UNL     1      42.789 -15.755   3.613  1.00  0.00     0.276 C 
HETATM   16  O   UNL     1      43.841 -16.161   3.129  1.00  0.00    -0.265 OA
HETATM   17  H   UNL     1      41.755 -15.019   5.196  1.00  0.00     0.163 HD
BRANCH  15  18
HETATM   18  C   UNL     1      41.533 -15.774   2.890  1.00  0.00     0.143 A 
HETATM   19  O   UNL     1      41.039 -14.610   2.356  1.00  0.00    -0.310 OA
HETATM   20  C   UNL     1      39.862 -14.917   1.741  1.00  0.00     0.053 A 
HETATM   21  C   UNL     1      39.593 -16.262   1.870  1.00  0.00     0.036 A 
HETATM   22  C   UNL     1      40.664 -16.812   2.613  1.00  0.00     0.045 A 
BRANCH  20  23
HETATM   23  C   UNL     1      39.142 -13.796   1.084  1.00  0.00     0.060 C 
HETATM   24  C   UNL     1      37.675 -14.126   0.862  1.00  0.00     0.012 C 
ENDBRANCH  20  23
ENDBRANCH  15  18
ENDBRANCH   1  14
BRANCH   1  25
HETATM   25  C   UNL     1      43.705 -13.960   6.720  1.00  0.00    -0.031 A 
HETATM   26  C   UNL     1      44.659 -13.751   7.732  1.00  0.00     0.049 A 
HETATM   27  C   UNL     1      44.619 -12.600   8.519  1.00  0.00     0.102 A 
HETATM   28  C   UNL     1      43.613 -11.651   8.324  1.00  0.00     0.102 A 
HETATM   29  O   UNL     1      45.594 -12.477   9.477  1.00  0.00    -0.346 OA
HETATM   30  O   UNL     1      43.486 -10.521   9.090  1.00  0.00    -0.346 OA
HETATM   31  C   UNL     1      42.677 -11.830   7.310  1.00  0.00     0.040 A 
HETATM   32  C   UNL     1      44.248 -10.628  10.298  1.00  0.00     0.202 C 
HETATM   33  C   UNL     1      45.647 -11.146  10.002  1.00  0.00     0.202 C 
HETATM   34  C   UNL     1      42.721 -12.978   6.514  1.00  0.00     0.012 A 
ENDBRANCH   1  25
TORSDOF 8
ENDMDL
MODEL 10
REMARK VINA RESULT:      -8.0      3.161      6.752
REMARK  8 active torsions:
REMARK  status: ('A' for Active; 'I' for Inactive)
REMARK    1  A    between atoms: C_2  and  C_3 
REMARK    2  A    between atoms: C_5  and  C_6 
REMARK       I    between atoms: C_6  and  N_7 
REMARK    3  A    between atoms: N_7  and  C_8 
REMARK    4  A    between atoms: C_8  and  C_9 
REMARK    5  A    between atoms: C_9  and  N_10 
REMARK    6  A    between atoms: C_9  and  C_20 
REMARK       I    between atoms: N_10  and  C_11 
REMARK    7  A    between atoms: C_11  and  C_12 
REMARK    8  A    between atoms: C_14  and  C_15 
ROOT
HETATM    1  C   UNL     1      42.561 -16.381   3.745  1.00  0.00     0.136 C 
ENDROOT
BRANCH   1   2
HETATM    2  C   UNL     1      43.231 -15.339   4.677  1.00  0.00     0.153 C 
BRANCH   2   3
HETATM    3  N   UNL     1      42.415 -14.160   4.905  1.00  0.00    -0.353 N 
HETATM    4  C   UNL     1      42.410 -13.085   4.045  1.00  0.00     0.275 C 
HETATM    5  O   UNL     1      43.083 -13.070   3.017  1.00  0.00    -0.265 OA
HETATM    6  H   UNL     1      41.914 -14.073   5.782  1.00  0.00     0.162 HD
BRANCH   4   7
HETATM    7  C   UNL     1      41.554 -11.997   4.462  1.00  0.00     0.143 A 
HETATM    8  O   UNL     1      40.691 -11.430   3.558  1.00  0.00    -0.310 OA
HETATM    9  C   UNL     1      40.018 -10.439   4.208  1.00  0.00     0.053 A 
HETATM   10  C   UNL     1      40.441 -10.357   5.518  1.00  0.00     0.036 A 
HETATM   11  C   UNL     1      41.423 -11.362   5.682  1.00  0.00     0.045 A 
BRANCH   9  12
HETATM   12  C   UNL     1      39.016  -9.688   3.413  1.00  0.00     0.060 C 
HETATM   13  C   UNL     1      38.054 -10.621   2.698  1.00  0.00     0.012 C 
ENDBRANCH   9  12
ENDBRANCH   4   7
ENDBRANCH   2   3
ENDBRANCH   1   2
BRANCH   1  14
HETATM   14  N   UNL     1      42.359 -15.962   2.360  1.00  0.00    -0.345 N 
HETATM   15  C   UNL     1      41.146 -15.776   1.739  1.00  0.00     0.276 C 
HETATM   16  O   UNL     1      40.074 -16.077   2.253  1.00  0.00    -0.265 OA
HETATM   17  H   UNL     1      43.163 -15.593   1.867  1.00  0.00     0.163 HD
BRANCH  15  18
HETATM   18  C   UNL     1      41.248 -15.194   0.415  1.00  0.00     0.143 A 
HETATM   19  O   UNL     1      40.952 -15.958  -0.686  1.00  0.00    -0.310 OA
HETATM   20  C   UNL     1      41.130 -15.168  -1.783  1.00  0.00     0.053 A 
HETATM   21  C   UNL     1      41.535 -13.907  -1.402  1.00  0.00     0.036 A 
HETATM   22  C   UNL     1      41.614 -13.925   0.011  1.00  0.00     0.045 A 
BRANCH  20  23
HETATM   23  C   UNL     1      40.863 -15.793  -3.103  1.00  0.00     0.060 C 
HETATM   24  C   UNL     1      39.485 -15.424  -3.628  1.00  0.00     0.012 C 
ENDBRANCH  20  23
ENDBRANCH  15  18
ENDBRANCH   1  14
BRANCH   1  25
HETATM   25  C   UNL     1      43.259 -17.730   3.809  1.00  0.00    -0.031 A 
HETATM   26  C   UNL     1      43.088 -18.655   2.764  1.00  0.00     0.049 A 
HETATM   27  C   UNL     1      43.700 -19.907   2.815  1.00  0.00     0.102 A 
HETATM   28  C   UNL     1      44.473 -20.264   3.922  1.00  0.00     0.102 A 
HETATM   29  O   UNL     1      43.483 -20.741   1.748  1.00  0.00    -0.346 OA
HETATM   30  O   UNL     1      45.065 -21.493   4.062  1.00  0.00    -0.346 OA
HETATM   31  C   UNL     1      44.674 -19.351   4.953  1.00  0.00     0.040 A 
HETATM   32  C   UNL     1      44.499 -22.444   3.153  1.00  0.00     0.202 C 
HETATM   33  C   UNL     1      44.390 -21.850   1.758  1.00  0.00     0.202 C 
HETATM   34  C   UNL     1      44.070 -18.092   4.898  1.00  0.00     0.012 A 
ENDBRANCH   1  25
TORSDOF 8
ENDMDL
