MODEL 1
REMARK VINA RESULT:      -9.1      0.000      0.000
REMARK  11 active torsions:
REMARK  status: ('A' for Active; 'I' for Inactive)
REMARK    1  A    between atoms: O_2  and  C_3 
REMARK    2  A    between atoms: C_6  and  C_7 
REMARK    3  A    between atoms: C_7  and  C_8 
REMARK    4  A    between atoms: C_8  and  N_9 
REMARK    5  A    between atoms: C_13  and  C_14 
REMARK    6  A    between atoms: C_14  and  C_15 
REMARK    7  A    between atoms: C_25  and  N_26 
REMARK    8  A    between atoms: N_26  and  C_27 
REMARK    9  A    between atoms: C_27  and  C_28 
REMARK   10  A    between atoms: C_28  and  O_29 
REMARK   11  A    between atoms: C_28  and  C_30 
ROOT
HETATM    1  C   UNL     1      40.323 -13.076   5.426  1.00  0.00     0.074 A 
HETATM    2  C   UNL     1      39.464 -11.860   5.374  1.00  0.00     0.266 A 
HETATM    3  O   UNL     1      38.350 -11.916   4.848  1.00  0.00    -0.267 OA
HETATM    4  N   UNL     1      39.996 -10.716   5.949  1.00  0.00    -0.273 N 
HETATM    5  C   UNL     1      41.230 -10.779   6.572  1.00  0.00     0.138 A 
HETATM    6  N   UNL     1      41.953 -11.849   6.660  1.00  0.00    -0.218 NA
HETATM    7  C   UNL     1      39.279  -9.526   5.900  1.00  0.00     0.102 A 
HETATM    8  C   UNL     1      39.747  -8.398   6.447  1.00  0.00     0.018 A 
HETATM    9  C   UNL     1      41.023  -8.398   7.111  1.00  0.00     0.005 A 
HETATM   10  C   UNL     1      41.745  -9.522   7.185  1.00  0.00     0.051 A 
HETATM   11  C   UNL     1      41.504 -13.004   6.081  1.00  0.00     0.121 A 
ENDROOT
BRANCH   1  12
HETATM   12  C   UNL     1      39.915 -14.259   4.681  1.00  0.00     0.045 C 
BRANCH  12  13
HETATM   13  C   UNL     1      40.290 -14.538   3.428  1.00  0.00     0.077 C 
HETATM   14  S   UNL     1      40.394 -13.453   2.099  1.00  0.00    -0.055 SA
HETATM   15  C   UNL     1      41.105 -14.666   1.047  1.00  0.00     0.148 C 
HETATM   16  N   UNL     1      41.276 -15.845   1.743  1.00  0.00    -0.298 N 
HETATM   17  S   UNL     1      41.494 -14.345  -0.544  1.00  0.00    -0.052 SA
HETATM   18  C   UNL     1      40.766 -15.887   3.028  1.00  0.00     0.266 C 
HETATM   19  O   UNL     1      40.714 -16.873   3.752  1.00  0.00    -0.266 OA
BRANCH  16  20
HETATM   20  C   UNL     1      42.008 -17.003   1.241  1.00  0.00     0.138 C 
BRANCH  20  21
HETATM   21  C   UNL     1      43.505 -16.976   1.558  1.00  0.00     0.059 C 
BRANCH  21  22
HETATM   22  C   UNL     1      43.847 -18.108   2.497  1.00  0.00    -0.057 A 
HETATM   23  C   UNL     1      43.945 -17.892   3.877  1.00  0.00     0.010 A 
HETATM   24  C   UNL     1      44.339 -18.927   4.735  1.00  0.00     0.037 A 
HETATM   25  C   UNL     1      44.647 -20.186   4.221  1.00  0.00     0.068 A 
HETATM   26  C   UNL     1      44.557 -20.402   2.845  1.00  0.00     0.037 A 
HETATM   27  C   UNL     1      44.155 -19.375   1.987  1.00  0.00     0.010 A 
BRANCH  25  28
HETATM   28  O   UNL     1      45.058 -21.272   4.943  1.00  0.00    -0.356 OA
HETATM   29  C   UNL     1      44.663 -22.550   4.461  1.00  0.00     0.210 C 
ENDBRANCH  25  28
ENDBRANCH  21  22
ENDBRANCH  20  21
ENDBRANCH  16  20
ENDBRANCH  12  13
ENDBRANCH   1  12
BRANCH  11  30
HETATM   30  N   UNL     1      42.362 -14.097   6.157  1.00  0.00    -0.274 NA
HETATM   31  H   UNL     1      42.022 -14.780   5.474  1.00  0.00     0.129 HD
BRANCH  30  32
HETATM   32  C   UNL     1      43.806 -13.929   5.907  1.00  0.00     0.130 C 
BRANCH  32  33
HETATM   33  C   UNL     1      44.653 -14.347   7.127  1.00  0.00     0.164 C 
BRANCH  33  34
HETATM   34  O   UNL     1      43.919 -15.267   7.949  1.00  0.00    -0.390 OA
HETATM   35  H   UNL     1      43.984 -16.139   7.521  1.00  0.00     0.210 HD
ENDBRANCH  33  34
BRANCH  33  36
HETATM   36  C   UNL     1      45.172 -13.176   7.942  1.00  0.00    -0.029 A 
HETATM   37  C   UNL     1      44.407 -12.669   9.004  1.00  0.00     0.010 A 
HETATM   38  C   UNL     1      44.865 -11.586   9.755  1.00  0.00     0.001 A 
HETATM   39  C   UNL     1      46.089 -10.994   9.454  1.00  0.00     0.000 A 
HETATM   40  C   UNL     1      46.869 -11.499   8.414  1.00  0.00     0.001 A 
HETATM   41  C   UNL     1      46.416 -12.588   7.668  1.00  0.00     0.010 A 
ENDBRANCH  33  36
ENDBRANCH  32  33
ENDBRANCH  30  32
ENDBRANCH  11  30
TORSDOF 11
ENDMDL
MODEL 2
REMARK VINA RESULT:      -9.0      3.532      9.334
REMARK  11 active torsions:
REMARK  status: ('A' for Active; 'I' for Inactive)
REMARK    1  A    between atoms: O_2  and  C_3 
REMARK    2  A    between atoms: C_6  and  C_7 
REMARK    3  A    between atoms: C_7  and  C_8 
REMARK    4  A    between atoms: C_8  and  N_9 
REMARK    5  A    between atoms: C_13  and  C_14 
REMARK    6  A    between atoms: C_14  and  C_15 
REMARK    7  A    between atoms: C_25  and  N_26 
REMARK    8  A    between atoms: N_26  and  C_27 
REMARK    9  A    between atoms: C_27  and  C_28 
REMARK   10  A    between atoms: C_28  and  O_29 
REMARK   11  A    between atoms: C_28  and  C_30 
ROOT
HETATM    1  C   UNL     1      43.750 -17.366   3.703  1.00  0.00     0.074 A 
HETATM    2  C   UNL     1      44.174 -18.518   4.547  1.00  0.00     0.266 A 
HETATM    3  O   UNL     1      44.434 -18.344   5.740  1.00  0.00    -0.267 OA
HETATM    4  N   UNL     1      44.237 -19.747   3.908  1.00  0.00    -0.273 N 
HETATM    5  C   UNL     1      43.859 -19.844   2.580  1.00  0.00     0.138 A 
HETATM    6  N   UNL     1      43.444 -18.850   1.863  1.00  0.00    -0.218 NA
HETATM    7  C   UNL     1      44.670 -20.866   4.612  1.00  0.00     0.102 A 
HETATM    8  C   UNL     1      44.741 -22.074   4.041  1.00  0.00     0.018 A 
HETATM    9  C   UNL     1      44.361 -22.240   2.664  1.00  0.00     0.005 A 
HETATM   10  C   UNL     1      43.935 -21.192   1.949  1.00  0.00     0.051 A 
HETATM   11  C   UNL     1      43.393 -17.603   2.421  1.00  0.00     0.121 A 
ENDROOT
BRANCH   1  12
HETATM   12  C   UNL     1      43.841 -16.020   4.252  1.00  0.00     0.045 C 
BRANCH  12  13
HETATM   13  C   UNL     1      42.796 -15.212   4.466  1.00  0.00     0.077 C 
HETATM   14  S   UNL     1      41.578 -15.370   5.668  1.00  0.00    -0.055 SA
HETATM   15  C   UNL     1      40.845 -13.828   5.257  1.00  0.00     0.148 C 
HETATM   16  N   UNL     1      41.564 -13.223   4.247  1.00  0.00    -0.298 N 
HETATM   17  S   UNL     1      39.485 -13.255   6.036  1.00  0.00    -0.052 SA
HETATM   18  C   UNL     1      42.595 -13.961   3.691  1.00  0.00     0.266 C 
HETATM   19  O   UNL     1      43.262 -13.646   2.715  1.00  0.00    -0.266 OA
BRANCH  16  20
HETATM   20  C   UNL     1      41.355 -11.854   3.787  1.00  0.00     0.138 C 
BRANCH  20  21
HETATM   21  C   UNL     1      40.089 -11.668   2.948  1.00  0.00     0.059 C 
BRANCH  21  22
HETATM   22  C   UNL     1      40.459 -11.160   1.575  1.00  0.00    -0.057 A 
HETATM   23  C   UNL     1      39.561 -10.387   0.829  1.00  0.00     0.010 A 
HETATM   24  C   UNL     1      39.878  -9.985  -0.475  1.00  0.00     0.037 A 
HETATM   25  C   UNL     1      41.093 -10.358  -1.049  1.00  0.00     0.068 A 
HETATM   26  C   UNL     1      41.987 -11.135  -0.311  1.00  0.00     0.037 A 
HETATM   27  C   UNL     1      41.678 -11.530   0.993  1.00  0.00     0.010 A 
BRANCH  25  28
HETATM   28  O   UNL     1      41.516 -10.047  -2.312  1.00  0.00    -0.356 OA
HETATM   29  C   UNL     1      42.819  -9.491  -2.433  1.00  0.00     0.210 C 
ENDBRANCH  25  28
ENDBRANCH  21  22
ENDBRANCH  20  21
ENDBRANCH  16  20
ENDBRANCH  12  13
ENDBRANCH   1  12
BRANCH  11  30
HETATM   30  N   UNL     1      43.000 -16.571   1.572  1.00  0.00    -0.274 NA
HETATM   31  H   UNL     1      43.697 -16.530   0.824  1.00  0.00     0.129 HD
BRANCH  30  32
HETATM   32  C   UNL     1      41.678 -16.608   0.918  1.00  0.00     0.130 C 
BRANCH  32  33
HETATM   33  C   UNL     1      40.602 -15.886   1.756  1.00  0.00     0.164 C 
BRANCH  33  34
HETATM   34  O   UNL     1      39.842 -16.837   2.515  1.00  0.00    -0.390 OA
HETATM   35  H   UNL     1      38.933 -16.809   2.170  1.00  0.00     0.210 HD
ENDBRANCH  33  34
BRANCH  33  36
HETATM   36  C   UNL     1      39.695 -14.983   0.940  1.00  0.00    -0.029 A 
HETATM   37  C   UNL     1      38.433 -14.624   1.438  1.00  0.00     0.010 A 
HETATM   38  C   UNL     1      37.583 -13.805   0.695  1.00  0.00     0.001 A 
HETATM   39  C   UNL     1      37.980 -13.336  -0.555  1.00  0.00     0.000 A 
HETATM   40  C   UNL     1      39.238 -13.667  -1.054  1.00  0.00     0.001 A 
HETATM   41  C   UNL     1      40.093 -14.479  -0.308  1.00  0.00     0.010 A 
ENDBRANCH  33  36
ENDBRANCH  32  33
ENDBRANCH  30  32
ENDBRANCH  11  30
TORSDOF 11
ENDMDL
MODEL 3
REMARK VINA RESULT:      -8.9      3.305      7.355
REMARK  11 active torsions:
REMARK  status: ('A' for Active; 'I' for Inactive)
REMARK    1  A    between atoms: O_2  and  C_3 
REMARK    2  A    between atoms: C_6  and  C_7 
REMARK    3  A    between atoms: C_7  and  C_8 
REMARK    4  A    between atoms: C_8  and  N_9 
REMARK    5  A    between atoms: C_13  and  C_14 
REMARK    6  A    between atoms: C_14  and  C_15 
REMARK    7  A    between atoms: C_25  and  N_26 
REMARK    8  A    between atoms: N_26  and  C_27 
REMARK    9  A    between atoms: C_27  and  C_28 
REMARK   10  A    between atoms: C_28  and  O_29 
REMARK   11  A    between atoms: C_28  and  C_30 
ROOT
HETATM    1  C   UNL     1      41.048 -12.955  -0.823  1.00  0.00     0.074 A 
HETATM    2  C   UNL     1      40.021 -12.252  -1.642  1.00  0.00     0.266 A 
HETATM    3  O   UNL     1      39.978 -11.019  -1.648  1.00  0.00    -0.267 OA
HETATM    4  N   UNL     1      39.166 -13.064  -2.371  1.00  0.00    -0.273 N 
HETATM    5  C   UNL     1      39.344 -14.436  -2.346  1.00  0.00     0.138 A 
HETATM    6  N   UNL     1      40.269 -15.042  -1.673  1.00  0.00    -0.218 NA
HETATM    7  C   UNL     1      38.149 -12.488  -3.124  1.00  0.00     0.102 A 
HETATM    8  C   UNL     1      37.303 -13.230  -3.850  1.00  0.00     0.018 A 
HETATM    9  C   UNL     1      37.437 -14.662  -3.866  1.00  0.00     0.005 A 
HETATM   10  C   UNL     1      38.404 -15.258  -3.159  1.00  0.00     0.051 A 
HETATM   11  C   UNL     1      41.124 -14.303  -0.902  1.00  0.00     0.121 A 
ENDROOT
BRANCH   1  12
HETATM   12  C   UNL     1      41.856 -12.182   0.110  1.00  0.00     0.045 C 
BRANCH  12  13
HETATM   13  C   UNL     1      41.502 -11.894   1.368  1.00  0.00     0.077 C 
HETATM   14  S   UNL     1      40.263 -10.824   1.889  1.00  0.00    -0.055 SA
HETATM   15  C   UNL     1      40.466 -11.266   3.577  1.00  0.00     0.148 C 
HETATM   16  N   UNL     1      41.440 -12.235   3.692  1.00  0.00    -0.298 N 
HETATM   17  S   UNL     1      39.560 -10.569   4.793  1.00  0.00    -0.052 SA
HETATM   18  C   UNL     1      42.125 -12.567   2.536  1.00  0.00     0.266 C 
HETATM   19  O   UNL     1      43.095 -13.310   2.460  1.00  0.00    -0.266 OA
BRANCH  16  20
HETATM   20  C   UNL     1      41.738 -12.968   4.918  1.00  0.00     0.138 C 
BRANCH  20  21
HETATM   21  C   UNL     1      41.046 -14.330   5.011  1.00  0.00     0.059 C 
BRANCH  21  22
HETATM   22  C   UNL     1      41.860 -15.255   5.884  1.00  0.00    -0.057 A 
HETATM   23  C   UNL     1      43.184 -14.945   6.222  1.00  0.00     0.010 A 
HETATM   24  C   UNL     1      43.959 -15.843   6.966  1.00  0.00     0.037 A 
HETATM   25  C   UNL     1      43.422 -17.064   7.374  1.00  0.00     0.068 A 
HETATM   26  C   UNL     1      42.106 -17.379   7.032  1.00  0.00     0.037 A 
HETATM   27  C   UNL     1      41.327 -16.482   6.298  1.00  0.00     0.010 A 
BRANCH  25  28
HETATM   28  O   UNL     1      44.074 -18.032   8.087  1.00  0.00    -0.356 OA
HETATM   29  C   UNL     1      43.811 -19.382   7.725  1.00  0.00     0.210 C 
ENDBRANCH  25  28
ENDBRANCH  21  22
ENDBRANCH  20  21
ENDBRANCH  16  20
ENDBRANCH  12  13
ENDBRANCH   1  12
BRANCH  11  30
HETATM   30  N   UNL     1      42.050 -15.025  -0.154  1.00  0.00    -0.274 NA
HETATM   31  H   UNL     1      42.751 -14.352   0.166  1.00  0.00     0.129 HD
BRANCH  30  32
HETATM   32  C   UNL     1      41.617 -15.784   1.035  1.00  0.00     0.130 C 
BRANCH  32  33
HETATM   33  C   UNL     1      41.762 -17.306   0.829  1.00  0.00     0.164 C 
BRANCH  33  34
HETATM   34  O   UNL     1      40.469 -17.923   0.757  1.00  0.00    -0.390 OA
HETATM   35  H   UNL     1      39.912 -17.486   1.425  1.00  0.00     0.210 HD
ENDBRANCH  33  34
BRANCH  33  36
HETATM   36  C   UNL     1      42.638 -17.983   1.867  1.00  0.00    -0.029 A 
HETATM   37  C   UNL     1      42.940 -19.348   1.745  1.00  0.00     0.010 A 
HETATM   38  C   UNL     1      43.733 -19.988   2.698  1.00  0.00     0.001 A 
HETATM   39  C   UNL     1      44.232 -19.275   3.785  1.00  0.00     0.000 A 
HETATM   40  C   UNL     1      43.957 -17.914   3.909  1.00  0.00     0.001 A 
HETATM   41  C   UNL     1      43.171 -17.271   2.953  1.00  0.00     0.010 A 
ENDBRANCH  33  36
ENDBRANCH  32  33
ENDBRANCH  30  32
ENDBRANCH  11  30
TORSDOF 11
ENDMDL
MODEL 4
REMARK VINA RESULT:      -8.8      3.638      7.797
REMARK  11 active torsions:
REMARK  status: ('A' for Active; 'I' for Inactive)
REMARK    1  A    between atoms: O_2  and  C_3 
REMARK    2  A    between atoms: C_6  and  C_7 
REMARK    3  A    between atoms: C_7  and  C_8 
REMARK    4  A    between atoms: C_8  and  N_9 
REMARK    5  A    between atoms: C_13  and  C_14 
REMARK    6  A    between atoms: C_14  and  C_15 
REMARK    7  A    between atoms: C_25  and  N_26 
REMARK    8  A    between atoms: N_26  and  C_27 
REMARK    9  A    between atoms: C_27  and  C_28 
REMARK   10  A    between atoms: C_28  and  O_29 
REMARK   11  A    between atoms: C_28  and  C_30 
ROOT
HETATM    1  C   UNL     1      40.959 -14.206   3.514  1.00  0.00     0.074 A 
HETATM    2  C   UNL     1      41.847 -13.481   4.465  1.00  0.00     0.266 A 
HETATM    3  O   UNL     1      41.866 -12.247   4.470  1.00  0.00    -0.267 OA
HETATM    4  N   UNL     1      42.607 -14.274   5.311  1.00  0.00    -0.273 N 
HETATM    5  C   UNL     1      42.460 -15.649   5.269  1.00  0.00     0.138 A 
HETATM    6  N   UNL     1      41.651 -16.275   4.475  1.00  0.00    -0.218 NA
HETATM    7  C   UNL     1      43.498 -13.677   6.196  1.00  0.00     0.102 A 
HETATM    8  C   UNL     1      44.248 -14.400   7.037  1.00  0.00     0.018 A 
HETATM    9  C   UNL     1      44.140 -15.834   7.042  1.00  0.00     0.005 A 
HETATM   10  C   UNL     1      43.293 -16.451   6.210  1.00  0.00     0.051 A 
HETATM   11  C   UNL     1      40.899 -15.555   3.589  1.00  0.00     0.121 A 
ENDROOT
BRANCH   1  12
HETATM   12  C   UNL     1      40.276 -13.451   2.473  1.00  0.00     0.045 C 
BRANCH  12  13
HETATM   13  C   UNL     1      40.850 -13.015   1.346  1.00  0.00     0.077 C 
HETATM   14  S   UNL     1      41.765 -11.577   1.125  1.00  0.00    -0.055 SA
HETATM   15  C   UNL     1      42.193 -11.994  -0.527  1.00  0.00     0.148 C 
HETATM   16  N   UNL     1      41.660 -13.226  -0.849  1.00  0.00    -0.298 N 
HETATM   17  S   UNL     1      43.120 -10.991  -1.485  1.00  0.00    -0.052 SA
HETATM   18  C   UNL     1      40.830 -13.809   0.091  1.00  0.00     0.266 C 
HETATM   19  O   UNL     1      40.175 -14.832  -0.060  1.00  0.00    -0.266 OA
BRANCH  16  20
HETATM   20  C   UNL     1      41.970 -13.967  -2.067  1.00  0.00     0.138 C 
BRANCH  20  21
HETATM   21  C   UNL     1      41.361 -13.363  -3.334  1.00  0.00     0.059 C 
BRANCH  21  22
HETATM   22  C   UNL     1      39.945 -13.859  -3.505  1.00  0.00    -0.057 A 
HETATM   23  C   UNL     1      39.685 -15.205  -3.789  1.00  0.00     0.010 A 
HETATM   24  C   UNL     1      38.376 -15.645  -4.024  1.00  0.00     0.037 A 
HETATM   25  C   UNL     1      37.314 -14.741  -3.984  1.00  0.00     0.068 A 
HETATM   26  C   UNL     1      37.571 -13.398  -3.708  1.00  0.00     0.037 A 
HETATM   27  C   UNL     1      38.874 -12.957  -3.465  1.00  0.00     0.010 A 
BRANCH  25  28
HETATM   28  O   UNL     1      35.998 -15.036  -4.210  1.00  0.00    -0.356 OA
HETATM   29  C   UNL     1      35.233 -14.061  -4.907  1.00  0.00     0.210 C 
ENDBRANCH  25  28
ENDBRANCH  21  22
ENDBRANCH  20  21
ENDBRANCH  16  20
ENDBRANCH  12  13
ENDBRANCH   1  12
BRANCH  11  30
HETATM   30  N   UNL     1      40.101 -16.297   2.723  1.00  0.00    -0.274 NA
HETATM   31  H   UNL     1      39.715 -15.634   2.045  1.00  0.00     0.129 HD
BRANCH  30  32
HETATM   32  C   UNL     1      40.681 -17.409   1.945  1.00  0.00     0.130 C 
BRANCH  32  33
HETATM   33  C   UNL     1      42.202 -17.240   1.749  1.00  0.00     0.164 C 
BRANCH  33  34
HETATM   34  O   UNL     1      42.489 -16.862   0.395  1.00  0.00    -0.390 OA
HETATM   35  H   UNL     1      42.361 -15.899   0.339  1.00  0.00     0.210 HD
ENDBRANCH  33  34
BRANCH  33  36
HETATM   36  C   UNL     1      43.011 -18.456   2.163  1.00  0.00    -0.029 A 
HETATM   37  C   UNL     1      42.805 -19.686   1.520  1.00  0.00     0.010 A 
HETATM   38  C   UNL     1      43.533 -20.815   1.896  1.00  0.00     0.001 A 
HETATM   39  C   UNL     1      44.472 -20.732   2.921  1.00  0.00     0.000 A 
HETATM   40  C   UNL     1      44.702 -19.512   3.556  1.00  0.00     0.001 A 
HETATM   41  C   UNL     1      43.981 -18.380   3.174  1.00  0.00     0.010 A 
ENDBRANCH  33  36
ENDBRANCH  32  33
ENDBRANCH  30  32
ENDBRANCH  11  30
TORSDOF 11
ENDMDL
MODEL 5
REMARK VINA RESULT:      -8.7      4.336      7.582
REMARK  11 active torsions:
REMARK  status: ('A' for Active; 'I' for Inactive)
REMARK    1  A    between atoms: O_2  and  C_3 
REMARK    2  A    between atoms: C_6  and  C_7 
REMARK    3  A    between atoms: C_7  and  C_8 
REMARK    4  A    between atoms: C_8  and  N_9 
REMARK    5  A    between atoms: C_13  and  C_14 
REMARK    6  A    between atoms: C_14  and  C_15 
REMARK    7  A    between atoms: C_25  and  N_26 
REMARK    8  A    between atoms: N_26  and  C_27 
REMARK    9  A    between atoms: C_27  and  C_28 
REMARK   10  A    between atoms: C_28  and  O_29 
REMARK   11  A    between atoms: C_28  and  C_30 
ROOT
HETATM    1  C   UNL     1      38.012 -13.412  -0.212  1.00  0.00     0.074 A 
HETATM    2  C   UNL     1      37.079 -12.252  -0.268  1.00  0.00     0.266 A 
HETATM    3  O   UNL     1      36.569 -11.822   0.770  1.00  0.00    -0.267 OA
HETATM    4  N   UNL     1      36.852 -11.716  -1.526  1.00  0.00    -0.273 N 
HETATM    5  C   UNL     1      37.527 -12.231  -2.618  1.00  0.00     0.138 A 
HETATM    6  N   UNL     1      38.375 -13.208  -2.560  1.00  0.00    -0.218 NA
HETATM    7  C   UNL     1      35.956 -10.661  -1.672  1.00  0.00     0.102 A 
HETATM    8  C   UNL     1      35.710 -10.105  -2.864  1.00  0.00     0.018 A 
HETATM    9  C   UNL     1      36.381 -10.597  -4.038  1.00  0.00     0.005 A 
HETATM   10  C   UNL     1      37.253 -11.607  -3.943  1.00  0.00     0.051 A 
HETATM   11  C   UNL     1      38.618 -13.807  -1.355  1.00  0.00     0.121 A 
ENDROOT
BRANCH   1  12
HETATM   12  C   UNL     1      38.153 -14.143   1.039  1.00  0.00     0.045 C 
BRANCH  12  13
HETATM   13  C   UNL     1      39.150 -13.971   1.914  1.00  0.00     0.077 C 
HETATM   14  S   UNL     1      39.489 -12.572   2.853  1.00  0.00    -0.055 SA
HETATM   15  C   UNL     1      40.778 -13.370   3.741  1.00  0.00     0.148 C 
HETATM   16  N   UNL     1      40.888 -14.681   3.326  1.00  0.00    -0.298 N 
HETATM   17  S   UNL     1      41.675 -12.580   4.906  1.00  0.00    -0.052 SA
HETATM   18  C   UNL     1      40.094 -15.063   2.259  1.00  0.00     0.266 C 
HETATM   19  O   UNL     1      40.138 -16.139   1.677  1.00  0.00    -0.266 OA
BRANCH  16  20
HETATM   20  C   UNL     1      41.722 -15.687   3.976  1.00  0.00     0.138 C 
BRANCH  20  21
HETATM   21  C   UNL     1      43.112 -15.836   3.355  1.00  0.00     0.059 C 
BRANCH  21  22
HETATM   22  C   UNL     1      43.467 -17.301   3.252  1.00  0.00    -0.057 A 
HETATM   23  C   UNL     1      43.861 -18.026   4.383  1.00  0.00     0.010 A 
HETATM   24  C   UNL     1      44.265 -19.362   4.269  1.00  0.00     0.037 A 
HETATM   25  C   UNL     1      44.287 -19.985   3.021  1.00  0.00     0.068 A 
HETATM   26  C   UNL     1      43.902 -19.262   1.890  1.00  0.00     0.037 A 
HETATM   27  C   UNL     1      43.490 -17.932   2.002  1.00  0.00     0.010 A 
BRANCH  25  28
HETATM   28  O   UNL     1      44.673 -21.273   2.770  1.00  0.00    -0.356 OA
HETATM   29  C   UNL     1      44.066 -21.920   1.660  1.00  0.00     0.210 C 
ENDBRANCH  25  28
ENDBRANCH  21  22
ENDBRANCH  20  21
ENDBRANCH  16  20
ENDBRANCH  12  13
ENDBRANCH   1  12
BRANCH  11  30
HETATM   30  N   UNL     1      39.490 -14.892  -1.378  1.00  0.00    -0.274 NA
HETATM   31  H   UNL     1      39.226 -15.459  -2.189  1.00  0.00     0.129 HD
BRANCH  30  32
HETATM   32  C   UNL     1      40.946 -14.673  -1.471  1.00  0.00     0.130 C 
BRANCH  32  33
HETATM   33  C   UNL     1      41.357 -14.114  -2.849  1.00  0.00     0.164 C 
BRANCH  33  34
HETATM   34  O   UNL     1      42.260 -15.018  -3.502  1.00  0.00    -0.390 OA
HETATM   35  H   UNL     1      42.838 -14.477  -4.068  1.00  0.00     0.210 HD
ENDBRANCH  33  34
BRANCH  33  36
HETATM   36  C   UNL     1      41.929 -12.710  -2.795  1.00  0.00    -0.029 A 
HETATM   37  C   UNL     1      42.518 -12.240  -1.611  1.00  0.00     0.010 A 
HETATM   38  C   UNL     1      43.038 -10.947  -1.541  1.00  0.00     0.001 A 
HETATM   39  C   UNL     1      42.973 -10.106  -2.650  1.00  0.00     0.000 A 
HETATM   40  C   UNL     1      42.408 -10.565  -3.839  1.00  0.00     0.001 A 
HETATM   41  C   UNL     1      41.895 -11.861  -3.912  1.00  0.00     0.010 A 
ENDBRANCH  33  36
ENDBRANCH  32  33
ENDBRANCH  30  32
ENDBRANCH  11  30
TORSDOF 11
ENDMDL
MODEL 6
REMARK VINA RESULT:      -8.7      2.211      7.608
REMARK  11 active torsions:
REMARK  status: ('A' for Active; 'I' for Inactive)
REMARK    1  A    between atoms: O_2  and  C_3 
REMARK    2  A    between atoms: C_6  and  C_7 
REMARK    3  A    between atoms: C_7  and  C_8 
REMARK    4  A    between atoms: C_8  and  N_9 
REMARK    5  A    between atoms: C_13  and  C_14 
REMARK    6  A    between atoms: C_14  and  C_15 
REMARK    7  A    between atoms: C_25  and  N_26 
REMARK    8  A    between atoms: N_26  and  C_27 
REMARK    9  A    between atoms: C_27  and  C_28 
REMARK   10  A    between atoms: C_28  and  O_29 
REMARK   11  A    between atoms: C_28  and  C_30 
ROOT
HETATM    1  C   UNL     1      41.247 -15.647   4.057  1.00  0.00     0.074 A 
HETATM    2  C   UNL     1      41.270 -16.606   2.917  1.00  0.00     0.266 A 
HETATM    3  O   UNL     1      40.460 -16.484   1.995  1.00  0.00    -0.267 OA
HETATM    4  N   UNL     1      42.242 -17.592   2.973  1.00  0.00    -0.273 N 
HETATM    5  C   UNL     1      43.146 -17.598   4.021  1.00  0.00     0.138 A 
HETATM    6  N   UNL     1      43.155 -16.735   4.985  1.00  0.00    -0.218 NA
HETATM    7  C   UNL     1      42.301 -18.556   1.972  1.00  0.00     0.102 A 
HETATM    8  C   UNL     1      43.225 -19.524   1.979  1.00  0.00     0.018 A 
HETATM    9  C   UNL     1      44.194 -19.584   3.041  1.00  0.00     0.005 A 
HETATM   10  C   UNL     1      44.177 -18.674   4.022  1.00  0.00     0.051 A 
HETATM   11  C   UNL     1      42.200 -15.756   5.010  1.00  0.00     0.121 A 
ENDROOT
BRANCH   1  12
HETATM   12  C   UNL     1      40.143 -14.704   4.162  1.00  0.00     0.045 C 
BRANCH  12  13
HETATM   13  C   UNL     1      40.256 -13.378   4.016  1.00  0.00     0.077 C 
HETATM   14  S   UNL     1      40.619 -12.511   2.577  1.00  0.00    -0.055 SA
HETATM   15  C   UNL     1      40.365 -10.952   3.346  1.00  0.00     0.148 C 
HETATM   16  N   UNL     1      39.979 -11.135   4.657  1.00  0.00    -0.298 N 
HETATM   17  S   UNL     1      40.575  -9.513   2.527  1.00  0.00    -0.052 SA
HETATM   18  C   UNL     1      39.987 -12.435   5.131  1.00  0.00     0.266 C 
HETATM   19  O   UNL     1      39.793 -12.783   6.289  1.00  0.00    -0.266 OA
BRANCH  16  20
HETATM   20  C   UNL     1      39.504 -10.072   5.536  1.00  0.00     0.138 C 
BRANCH  20  21
HETATM   21  C   UNL     1      40.595  -9.460   6.416  1.00  0.00     0.059 C 
BRANCH  21  22
HETATM   22  C   UNL     1      40.371  -9.859   7.856  1.00  0.00    -0.057 A 
HETATM   23  C   UNL     1      39.121  -9.686   8.463  1.00  0.00     0.010 A 
HETATM   24  C   UNL     1      38.940  -9.984   9.819  1.00  0.00     0.037 A 
HETATM   25  C   UNL     1      40.008 -10.452  10.585  1.00  0.00     0.068 A 
HETATM   26  C   UNL     1      41.257 -10.619   9.983  1.00  0.00     0.037 A 
HETATM   27  C   UNL     1      41.439 -10.331   8.629  1.00  0.00     0.010 A 
BRANCH  25  28
HETATM   28  O   UNL     1      39.970 -10.764  11.916  1.00  0.00    -0.356 OA
HETATM   29  C   UNL     1      41.215 -11.022  12.550  1.00  0.00     0.210 C 
ENDBRANCH  25  28
ENDBRANCH  21  22
ENDBRANCH  20  21
ENDBRANCH  16  20
ENDBRANCH  12  13
ENDBRANCH   1  12
BRANCH  11  30
HETATM   30  N   UNL     1      42.230 -14.903   6.110  1.00  0.00    -0.274 NA
HETATM   31  H   UNL     1      42.306 -15.501   6.938  1.00  0.00     0.129 HD
BRANCH  30  32
HETATM   32  C   UNL     1      43.286 -13.879   6.229  1.00  0.00     0.130 C 
BRANCH  32  33
HETATM   33  C   UNL     1      44.405 -14.318   7.197  1.00  0.00     0.164 C 
BRANCH  33  34
HETATM   34  O   UNL     1      43.943 -15.383   8.039  1.00  0.00    -0.390 OA
HETATM   35  H   UNL     1      42.996 -15.225   8.198  1.00  0.00     0.210 HD
ENDBRANCH  33  34
BRANCH  33  36
HETATM   36  C   UNL     1      44.985 -13.180   8.018  1.00  0.00    -0.029 A 
HETATM   37  C   UNL     1      46.220 -12.619   7.660  1.00  0.00     0.010 A 
HETATM   38  C   UNL     1      46.772 -11.580   8.412  1.00  0.00     0.001 A 
HETATM   39  C   UNL     1      46.100 -11.093   9.530  1.00  0.00     0.000 A 
HETATM   40  C   UNL     1      44.863 -11.627   9.886  1.00  0.00     0.001 A 
HETATM   41  C   UNL     1      44.306 -12.659   9.130  1.00  0.00     0.010 A 
ENDBRANCH  33  36
ENDBRANCH  32  33
ENDBRANCH  30  32
ENDBRANCH  11  30
TORSDOF 11
ENDMDL
MODEL 7
REMARK VINA RESULT:      -8.5      3.429      8.010
REMARK  11 active torsions:
REMARK  status: ('A' for Active; 'I' for Inactive)
REMARK    1  A    between atoms: O_2  and  C_3 
REMARK    2  A    between atoms: C_6  and  C_7 
REMARK    3  A    between atoms: C_7  and  C_8 
REMARK    4  A    between atoms: C_8  and  N_9 
REMARK    5  A    between atoms: C_13  and  C_14 
REMARK    6  A    between atoms: C_14  and  C_15 
REMARK    7  A    between atoms: C_25  and  N_26 
REMARK    8  A    between atoms: N_26  and  C_27 
REMARK    9  A    between atoms: C_27  and  C_28 
REMARK   10  A    between atoms: C_28  and  O_29 
REMARK   11  A    between atoms: C_28  and  C_30 
ROOT
HETATM    1  C   UNL     1      42.047 -15.363   4.211  1.00  0.00     0.074 A 
HETATM    2  C   UNL     1      42.719 -15.214   5.532  1.00  0.00     0.266 A 
HETATM    3  O   UNL     1      43.023 -14.092   5.944  1.00  0.00    -0.267 OA
HETATM    4  N   UNL     1      42.953 -16.389   6.230  1.00  0.00    -0.273 N 
HETATM    5  C   UNL     1      42.511 -17.591   5.707  1.00  0.00     0.138 A 
HETATM    6  N   UNL     1      41.883 -17.713   4.582  1.00  0.00    -0.218 NA
HETATM    7  C   UNL     1      43.619 -16.341   7.450  1.00  0.00     0.102 A 
HETATM    8  C   UNL     1      43.862 -17.447   8.164  1.00  0.00     0.018 A 
HETATM    9  C   UNL     1      43.426 -18.727   7.675  1.00  0.00     0.005 A 
HETATM   10  C   UNL     1      42.778 -18.819   6.508  1.00  0.00     0.051 A 
HETATM   11  C   UNL     1      41.652 -16.598   3.825  1.00  0.00     0.121 A 
ENDROOT
BRANCH   1  12
HETATM   12  C   UNL     1      41.938 -14.201   3.340  1.00  0.00     0.045 C 
BRANCH  12  13
HETATM   13  C   UNL     1      40.880 -13.383   3.289  1.00  0.00     0.077 C 
HETATM   14  S   UNL     1      40.585 -11.991   4.253  1.00  0.00    -0.055 SA
HETATM   15  C   UNL     1      39.145 -11.557   3.346  1.00  0.00     0.148 C 
HETATM   16  N   UNL     1      38.950 -12.459   2.320  1.00  0.00    -0.298 N 
HETATM   17  S   UNL     1      38.217 -10.227   3.737  1.00  0.00    -0.052 SA
HETATM   18  C   UNL     1      39.805 -13.546   2.278  1.00  0.00     0.266 C 
HETATM   19  O   UNL     1      39.717 -14.505   1.522  1.00  0.00    -0.266 OA
BRANCH  16  20
HETATM   20  C   UNL     1      37.964 -12.301   1.257  1.00  0.00     0.138 C 
BRANCH  20  21
HETATM   21  C   UNL     1      38.471 -11.508   0.051  1.00  0.00     0.059 C 
BRANCH  21  22
HETATM   22  C   UNL     1      38.774 -12.452  -1.088  1.00  0.00    -0.057 A 
HETATM   23  C   UNL     1      37.785 -13.303  -1.598  1.00  0.00     0.010 A 
HETATM   24  C   UNL     1      38.091 -14.232  -2.601  1.00  0.00     0.037 A 
HETATM   25  C   UNL     1      39.390 -14.325  -3.099  1.00  0.00     0.068 A 
HETATM   26  C   UNL     1      40.379 -13.483  -2.588  1.00  0.00     0.037 A 
HETATM   27  C   UNL     1      40.076 -12.549  -1.594  1.00  0.00     0.010 A 
BRANCH  25  28
HETATM   28  O   UNL     1      39.823 -15.195  -4.062  1.00  0.00    -0.356 OA
HETATM   29  C   UNL     1      38.961 -16.279  -4.381  1.00  0.00     0.210 C 
ENDBRANCH  25  28
ENDBRANCH  21  22
ENDBRANCH  20  21
ENDBRANCH  16  20
ENDBRANCH  12  13
ENDBRANCH   1  12
BRANCH  11  30
HETATM   30  N   UNL     1      41.031 -16.812   2.597  1.00  0.00    -0.274 NA
HETATM   31  H   UNL     1      41.036 -15.913   2.109  1.00  0.00     0.129 HD
BRANCH  30  32
HETATM   32  C   UNL     1      41.570 -17.810   1.654  1.00  0.00     0.130 C 
BRANCH  32  33
HETATM   33  C   UNL     1      43.109 -17.902   1.734  1.00  0.00     0.164 C 
BRANCH  33  34
HETATM   34  O   UNL     1      43.695 -17.506   0.486  1.00  0.00    -0.390 OA
HETATM   35  H   UNL     1      44.366 -16.832   0.691  1.00  0.00     0.210 HD
ENDBRANCH  33  34
BRANCH  33  36
HETATM   36  C   UNL     1      43.619 -19.262   2.174  1.00  0.00    -0.029 A 
HETATM   37  C   UNL     1      44.517 -19.359   3.248  1.00  0.00     0.010 A 
HETATM   38  C   UNL     1      45.004 -20.601   3.657  1.00  0.00     0.001 A 
HETATM   39  C   UNL     1      44.605 -21.760   2.997  1.00  0.00     0.000 A 
HETATM   40  C   UNL     1      43.698 -21.682   1.941  1.00  0.00     0.001 A 
HETATM   41  C   UNL     1      43.203 -20.441   1.537  1.00  0.00     0.010 A 
ENDBRANCH  33  36
ENDBRANCH  32  33
ENDBRANCH  30  32
ENDBRANCH  11  30
TORSDOF 11
ENDMDL
MODEL 8
REMARK VINA RESULT:      -8.5      3.217      6.724
REMARK  11 active torsions:
REMARK  status: ('A' for Active; 'I' for Inactive)
REMARK    1  A    between atoms: O_2  and  C_3 
REMARK    2  A    between atoms: C_6  and  C_7 
REMARK    3  A    between atoms: C_7  and  C_8 
REMARK    4  A    between atoms: C_8  and  N_9 
REMARK    5  A    between atoms: C_13  and  C_14 
REMARK    6  A    between atoms: C_14  and  C_15 
REMARK    7  A    between atoms: C_25  and  N_26 
REMARK    8  A    between atoms: N_26  and  C_27 
REMARK    9  A    between atoms: C_27  and  C_28 
REMARK   10  A    between atoms: C_28  and  O_29 
REMARK   11  A    between atoms: C_28  and  C_30 
ROOT
HETATM    1  C   UNL     1      40.652 -11.988   0.708  1.00  0.00     0.074 A 
HETATM    2  C   UNL     1      41.105 -10.650   0.234  1.00  0.00     0.266 A 
HETATM    3  O   UNL     1      41.021  -9.672   0.981  1.00  0.00    -0.267 OA
HETATM    4  N   UNL     1      41.614 -10.603  -1.055  1.00  0.00    -0.273 N 
HETATM    5  C   UNL     1      41.726 -11.772  -1.786  1.00  0.00     0.138 A 
HETATM    6  N   UNL     1      41.379 -12.942  -1.354  1.00  0.00    -0.218 NA
HETATM    7  C   UNL     1      42.014  -9.383  -1.590  1.00  0.00     0.102 A 
HETATM    8  C   UNL     1      42.518  -9.287  -2.826  1.00  0.00     0.018 A 
HETATM    9  C   UNL     1      42.661 -10.468  -3.636  1.00  0.00     0.005 A 
HETATM   10  C   UNL     1      42.293 -11.662  -3.159  1.00  0.00     0.051 A 
HETATM   11  C   UNL     1      40.834 -13.054  -0.104  1.00  0.00     0.121 A 
ENDROOT
BRANCH   1  12
HETATM   12  C   UNL     1      39.937 -12.083   1.972  1.00  0.00     0.045 C 
BRANCH  12  13
HETATM   13  C   UNL     1      40.518 -12.109   3.177  1.00  0.00     0.077 C 
HETATM   14  S   UNL     1      40.621 -10.829   4.318  1.00  0.00    -0.055 SA
HETATM   15  C   UNL     1      41.347 -11.858   5.543  1.00  0.00     0.148 C 
HETATM   16  N   UNL     1      41.457 -13.147   5.064  1.00  0.00    -0.298 N 
HETATM   17  S   UNL     1      41.796 -11.275   7.041  1.00  0.00    -0.052 SA
HETATM   18  C   UNL     1      41.112 -13.348   3.739  1.00  0.00     0.266 C 
HETATM   19  O   UNL     1      41.255 -14.387   3.107  1.00  0.00    -0.266 OA
BRANCH  16  20
HETATM   20  C   UNL     1      41.839 -14.300   5.873  1.00  0.00     0.138 C 
BRANCH  20  21
HETATM   21  C   UNL     1      43.315 -14.682   5.750  1.00  0.00     0.059 C 
BRANCH  21  22
HETATM   22  C   UNL     1      43.467 -16.178   5.894  1.00  0.00    -0.057 A 
HETATM   23  C   UNL     1      44.659 -16.736   6.373  1.00  0.00     0.010 A 
HETATM   24  C   UNL     1      44.823 -18.126   6.431  1.00  0.00     0.037 A 
HETATM   25  C   UNL     1      43.799 -18.972   6.004  1.00  0.00     0.068 A 
HETATM   26  C   UNL     1      42.614 -18.418   5.519  1.00  0.00     0.037 A 
HETATM   27  C   UNL     1      42.443 -17.033   5.468  1.00  0.00     0.010 A 
BRANCH  25  28
HETATM   28  O   UNL     1      43.837 -20.339   5.993  1.00  0.00    -0.356 OA
HETATM   29  C   UNL     1      44.801 -20.947   5.143  1.00  0.00     0.210 C 
ENDBRANCH  25  28
ENDBRANCH  21  22
ENDBRANCH  20  21
ENDBRANCH  16  20
ENDBRANCH  12  13
ENDBRANCH   1  12
BRANCH  11  30
HETATM   30  N   UNL     1      40.423 -14.331   0.269  1.00  0.00    -0.274 NA
HETATM   31  H   UNL     1      39.456 -14.429  -0.052  1.00  0.00     0.129 HD
BRANCH  30  32
HETATM   32  C   UNL     1      41.153 -15.519  -0.215  1.00  0.00     0.130 C 
BRANCH  32  33
HETATM   33  C   UNL     1      40.812 -16.777   0.610  1.00  0.00     0.164 C 
BRANCH  33  34
HETATM   34  O   UNL     1      39.847 -16.460   1.623  1.00  0.00    -0.390 OA
HETATM   35  H   UNL     1      40.203 -15.705   2.124  1.00  0.00     0.210 HD
ENDBRANCH  33  34
BRANCH  33  36
HETATM   36  C   UNL     1      42.027 -17.466   1.205  1.00  0.00    -0.029 A 
HETATM   37  C   UNL     1      43.239 -16.770   1.322  1.00  0.00     0.010 A 
HETATM   38  C   UNL     1      44.368 -17.393   1.855  1.00  0.00     0.001 A 
HETATM   39  C   UNL     1      44.301 -18.719   2.275  1.00  0.00     0.000 A 
HETATM   40  C   UNL     1      43.099 -19.418   2.184  1.00  0.00     0.001 A 
HETATM   41  C   UNL     1      41.967 -18.793   1.658  1.00  0.00     0.010 A 
ENDBRANCH  33  36
ENDBRANCH  32  33
ENDBRANCH  30  32
ENDBRANCH  11  30
TORSDOF 11
ENDMDL
MODEL 9
REMARK VINA RESULT:      -8.4      2.616      3.450
REMARK  11 active torsions:
REMARK  status: ('A' for Active; 'I' for Inactive)
REMARK    1  A    between atoms: O_2  and  C_3 
REMARK    2  A    between atoms: C_6  and  C_7 
REMARK    3  A    between atoms: C_7  and  C_8 
REMARK    4  A    between atoms: C_8  and  N_9 
REMARK    5  A    between atoms: C_13  and  C_14 
REMARK    6  A    between atoms: C_14  and  C_15 
REMARK    7  A    between atoms: C_25  and  N_26 
REMARK    8  A    between atoms: N_26  and  C_27 
REMARK    9  A    between atoms: C_27  and  C_28 
REMARK   10  A    between atoms: C_28  and  O_29 
REMARK   11  A    between atoms: C_28  and  C_30 
ROOT
HETATM    1  C   UNL     1      40.858 -11.213   2.319  1.00  0.00     0.074 A 
HETATM    2  C   UNL     1      39.706 -10.387   1.859  1.00  0.00     0.266 A 
HETATM    3  O   UNL     1      39.434 -10.327   0.657  1.00  0.00    -0.267 OA
HETATM    4  N   UNL     1      38.993  -9.733   2.852  1.00  0.00    -0.273 N 
HETATM    5  C   UNL     1      39.342  -9.923   4.177  1.00  0.00     0.138 A 
HETATM    6  N   UNL     1      40.312 -10.680   4.578  1.00  0.00    -0.218 NA
HETATM    7  C   UNL     1      37.933  -8.904   2.502  1.00  0.00     0.102 A 
HETATM    8  C   UNL     1      37.211  -8.257   3.425  1.00  0.00     0.018 A 
HETATM    9  C   UNL     1      37.523  -8.413   4.821  1.00  0.00     0.005 A 
HETATM   10  C   UNL     1      38.532  -9.205   5.202  1.00  0.00     0.051 A 
HETATM   11  C   UNL     1      41.080 -11.326   3.648  1.00  0.00     0.121 A 
ENDROOT
BRANCH   1  12
HETATM   12  C   UNL     1      41.763 -11.775   1.326  1.00  0.00     0.045 C 
BRANCH  12  13
HETATM   13  C   UNL     1      41.564 -12.930   0.680  1.00  0.00     0.077 C 
HETATM   14  S   UNL     1      40.840 -13.156  -0.862  1.00  0.00    -0.055 SA
HETATM   15  C   UNL     1      41.200 -14.876  -0.879  1.00  0.00     0.148 C 
HETATM   16  N   UNL     1      41.888 -15.220   0.266  1.00  0.00    -0.298 N 
HETATM   17  S   UNL     1      40.746 -15.866  -2.143  1.00  0.00    -0.052 SA
HETATM   18  C   UNL     1      42.044 -14.228   1.218  1.00  0.00     0.266 C 
HETATM   19  O   UNL     1      42.516 -14.371   2.339  1.00  0.00    -0.266 OA
BRANCH  16  20
HETATM   20  C   UNL     1      42.510 -16.519   0.499  1.00  0.00     0.138 C 
BRANCH  20  21
HETATM   21  C   UNL     1      41.678 -17.457   1.376  1.00  0.00     0.059 C 
BRANCH  21  22
HETATM   22  C   UNL     1      42.594 -18.304   2.227  1.00  0.00    -0.057 A 
HETATM   23  C   UNL     1      43.129 -17.806   3.422  1.00  0.00     0.010 A 
HETATM   24  C   UNL     1      44.039 -18.565   4.167  1.00  0.00     0.037 A 
HETATM   25  C   UNL     1      44.432 -19.828   3.721  1.00  0.00     0.068 A 
HETATM   26  C   UNL     1      43.906 -20.323   2.527  1.00  0.00     0.037 A 
HETATM   27  C   UNL     1      42.991 -19.572   1.786  1.00  0.00     0.010 A 
BRANCH  25  28
HETATM   28  O   UNL     1      45.321 -20.660   4.342  1.00  0.00    -0.356 OA
HETATM   29  C   UNL     1      44.775 -21.689   5.158  1.00  0.00     0.210 C 
ENDBRANCH  25  28
ENDBRANCH  21  22
ENDBRANCH  20  21
ENDBRANCH  16  20
ENDBRANCH  12  13
ENDBRANCH   1  12
BRANCH  11  30
HETATM   30  N   UNL     1      42.145 -12.069   4.147  1.00  0.00    -0.274 NA
HETATM   31  H   UNL     1      42.909 -11.407   4.311  1.00  0.00     0.129 HD
BRANCH  30  32
HETATM   32  C   UNL     1      41.990 -12.851   5.389  1.00  0.00     0.130 C 
BRANCH  32  33
HETATM   33  C   UNL     1      43.282 -13.612   5.754  1.00  0.00     0.164 C 
BRANCH  33  34
HETATM   34  O   UNL     1      44.166 -13.658   4.625  1.00  0.00    -0.390 OA
HETATM   35  H   UNL     1      44.376 -12.737   4.394  1.00  0.00     0.210 HD
ENDBRANCH  33  34
BRANCH  33  36
HETATM   36  C   UNL     1      43.037 -15.000   6.317  1.00  0.00    -0.029 A 
HETATM   37  C   UNL     1      41.794 -15.622   6.129  1.00  0.00     0.010 A 
HETATM   38  C   UNL     1      41.549 -16.893   6.651  1.00  0.00     0.001 A 
HETATM   39  C   UNL     1      42.541 -17.556   7.370  1.00  0.00     0.000 A 
HETATM   40  C   UNL     1      43.788 -16.959   7.549  1.00  0.00     0.001 A 
HETATM   41  C   UNL     1      44.037 -15.692   7.019  1.00  0.00     0.010 A 
ENDBRANCH  33  36
ENDBRANCH  32  33
ENDBRANCH  30  32
ENDBRANCH  11  30
TORSDOF 11
ENDMDL
MODEL 10
REMARK VINA RESULT:      -8.4      4.619      7.307
REMARK  11 active torsions:
REMARK  status: ('A' for Active; 'I' for Inactive)
REMARK    1  A    between atoms: O_2  and  C_3 
REMARK    2  A    between atoms: C_6  and  C_7 
REMARK    3  A    between atoms: C_7  and  C_8 
REMARK    4  A    between atoms: C_8  and  N_9 
REMARK    5  A    between atoms: C_13  and  C_14 
REMARK    6  A    between atoms: C_14  and  C_15 
REMARK    7  A    between atoms: C_25  and  N_26 
REMARK    8  A    between atoms: N_26  and  C_27 
REMARK    9  A    between atoms: C_27  and  C_28 
REMARK   10  A    between atoms: C_28  and  O_29 
REMARK   11  A    between atoms: C_28  and  C_30 
ROOT
HETATM    1  C   UNL     1      39.771 -12.505   0.040  1.00  0.00     0.074 A 
HETATM    2  C   UNL     1      39.408 -11.296   0.832  1.00  0.00     0.266 A 
HETATM    3  O   UNL     1      40.295 -10.595   1.326  1.00  0.00    -0.267 OA
HETATM    4  N   UNL     1      38.052 -11.033   0.951  1.00  0.00    -0.273 N 
HETATM    5  C   UNL     1      37.141 -11.846   0.300  1.00  0.00     0.138 A 
HETATM    6  N   UNL     1      37.461 -12.867  -0.428  1.00  0.00    -0.218 NA
HETATM    7  C   UNL     1      37.627  -9.951   1.714  1.00  0.00     0.102 A 
HETATM    8  C   UNL     1      36.330  -9.652   1.853  1.00  0.00     0.018 A 
HETATM    9  C   UNL     1      35.334 -10.459   1.200  1.00  0.00     0.005 A 
HETATM   10  C   UNL     1      35.698 -11.508   0.453  1.00  0.00     0.051 A 
HETATM   11  C   UNL     1      38.781 -13.205  -0.558  1.00  0.00     0.121 A 
ENDROOT
BRANCH   1  12
HETATM   12  C   UNL     1      41.157 -12.949   0.028  1.00  0.00     0.045 C 
BRANCH  12  13
HETATM   13  C   UNL     1      41.696 -13.792   0.918  1.00  0.00     0.077 C 
HETATM   14  S   UNL     1      42.283 -13.421   2.489  1.00  0.00    -0.055 SA
HETATM   15  C   UNL     1      42.578 -15.109   2.876  1.00  0.00     0.148 C 
HETATM   16  N   UNL     1      42.190 -15.905   1.817  1.00  0.00    -0.298 N 
HETATM   17  S   UNL     1      43.226 -15.586   4.338  1.00  0.00    -0.052 SA
HETATM   18  C   UNL     1      41.784 -15.253   0.667  1.00  0.00     0.266 C 
HETATM   19  O   UNL     1      41.520 -15.780  -0.406  1.00  0.00    -0.266 OA
BRANCH  16  20
HETATM   20  C   UNL     1      42.117 -17.361   1.861  1.00  0.00     0.138 C 
BRANCH  20  21
HETATM   21  C   UNL     1      43.339 -18.063   1.264  1.00  0.00     0.059 C 
BRANCH  21  22
HETATM   22  C   UNL     1      43.734 -19.228   2.140  1.00  0.00    -0.057 A 
HETATM   23  C   UNL     1      44.240 -19.019   3.429  1.00  0.00     0.010 A 
HETATM   24  C   UNL     1      44.679 -20.098   4.207  1.00  0.00     0.037 A 
HETATM   25  C   UNL     1      44.623 -21.397   3.701  1.00  0.00     0.068 A 
HETATM   26  C   UNL     1      44.126 -21.607   2.414  1.00  0.00     0.037 A 
HETATM   27  C   UNL     1      43.679 -20.534   1.639  1.00  0.00     0.010 A 
BRANCH  25  28
HETATM   28  O   UNL     1      45.032 -22.531   4.348  1.00  0.00    -0.356 OA
HETATM   29  C   UNL     1      44.774 -22.601   5.744  1.00  0.00     0.210 C 
ENDBRANCH  25  28
ENDBRANCH  21  22
ENDBRANCH  20  21
ENDBRANCH  16  20
ENDBRANCH  12  13
ENDBRANCH   1  12
BRANCH  11  30
HETATM   30  N   UNL     1      39.046 -14.352  -1.301  1.00  0.00    -0.274 NA
HETATM   31  H   UNL     1      38.547 -15.117  -0.840  1.00  0.00     0.129 HD
BRANCH  30  32
HETATM   32  C   UNL     1      38.688 -14.411  -2.731  1.00  0.00     0.130 C 
BRANCH  32  33
HETATM   33  C   UNL     1      39.934 -14.340  -3.638  1.00  0.00     0.164 C 
BRANCH  33  34
HETATM   34  O   UNL     1      40.853 -15.389  -3.302  1.00  0.00    -0.390 OA
HETATM   35  H   UNL     1      41.233 -15.163  -2.435  1.00  0.00     0.210 HD
ENDBRANCH  33  34
BRANCH  33  36
HETATM   36  C   UNL     1      40.619 -12.986  -3.632  1.00  0.00    -0.029 A 
HETATM   37  C   UNL     1      39.863 -11.818  -3.807  1.00  0.00     0.010 A 
HETATM   38  C   UNL     1      40.479 -10.566  -3.815  1.00  0.00     0.001 A 
HETATM   39  C   UNL     1      41.859 -10.466  -3.653  1.00  0.00     0.000 A 
HETATM   40  C   UNL     1      42.622 -11.616  -3.459  1.00  0.00     0.001 A 
HETATM   41  C   UNL     1      42.005 -12.868  -3.441  1.00  0.00     0.010 A 
ENDBRANCH  33  36
ENDBRANCH  32  33
ENDBRANCH  30  32
ENDBRANCH  11  30
TORSDOF 11
ENDMDL
