MODEL 1
REMARK VINA RESULT:     -10.5      0.000      0.000
REMARK  5 active torsions:
REMARK  status: ('A' for Active; 'I' for Inactive)
REMARK    1  A    between atoms: C_4  and  N_5 
REMARK       I    between atoms: N_5  and  C_6 
REMARK    2  A    between atoms: C_6  and  C_7 
REMARK    3  A    between atoms: C_8  and  N_9 
REMARK    4  A    between atoms: N_10  and  N_11 
REMARK    5  A    between atoms: C_12  and  C_13 
ROOT
HETATM    1  C   UNL     1      41.730 -12.365   5.590  1.00  0.00     0.105 C 
HETATM    2  C   UNL     1      42.551 -13.464   5.819  1.00  0.00     0.123 C 
HETATM    3  N   UNL     1      42.478 -14.322   4.731  1.00  0.00    -0.202 N 
HETATM    4  C   UNL     1      41.436 -13.905   3.924  1.00  0.00     0.183 A 
HETATM    5  C   UNL     1      40.972 -12.692   4.428  1.00  0.00     0.124 A 
HETATM    6  N   UNL     1      39.944 -12.041   3.824  1.00  0.00    -0.242 NA
HETATM    7  C   UNL     1      39.389 -12.685   2.785  1.00  0.00     0.086 A 
HETATM    8  C   UNL     1      39.873 -13.930   2.308  1.00  0.00     0.088 A 
HETATM    9  N   UNL     1      40.927 -14.557   2.852  1.00  0.00    -0.225 NA
HETATM   10  C   UNL     1      38.284 -12.113   2.165  1.00  0.00     0.034 A 
HETATM   11  C   UNL     1      37.637 -12.741   1.099  1.00  0.00     0.002 A 
HETATM   12  C   UNL     1      38.109 -13.961   0.636  1.00  0.00     0.002 A 
HETATM   13  C   UNL     1      39.225 -14.540   1.242  1.00  0.00     0.034 A 
ENDROOT
BRANCH   1  14
HETATM   14  C   UNL     1      41.659 -11.142   6.399  1.00  0.00     0.262 C 
HETATM   15  N   UNL     1      41.727 -11.399   7.757  1.00  0.00    -0.323 N 
HETATM   16  H   UNL     1      41.800 -12.384   8.001  1.00  0.00     0.169 HD
HETATM   17  O   UNL     1      41.555 -10.031   5.895  1.00  0.00    -0.267 OA
BRANCH  15  18
HETATM   18  C   UNL     1      41.693 -10.504   8.837  1.00  0.00     0.036 A 
HETATM   19  C   UNL     1      40.737  -9.501   8.999  1.00  0.00     0.036 A 
HETATM   20  C   UNL     1      40.794  -8.636  10.104  1.00  0.00    -0.059 A 
HETATM   21  C   UNL     1      39.769  -7.553  10.260  1.00  0.00     0.048 C 
HETATM   22  C   UNL     1      41.789  -8.820  11.075  1.00  0.00     0.013 A 
HETATM   23  C   UNL     1      42.756  -9.817  10.925  1.00  0.00    -0.059 A 
HETATM   24  C   UNL     1      42.704 -10.646   9.798  1.00  0.00     0.036 A 
HETATM   25  C   UNL     1      43.789 -10.052  11.987  1.00  0.00     0.048 C 
ENDBRANCH  15  18
ENDBRANCH   1  14
BRANCH   2  26
HETATM   26  N   UNL     1      43.388 -13.765   6.867  1.00  0.00    -0.286 NA
HETATM   27  H   UNL     1      44.386 -13.660   6.664  1.00  0.00     0.125 HD
HETATM   28  H   UNL     1      43.203 -13.180   7.694  1.00  0.00     0.125 HD
ENDBRANCH   2  26
BRANCH   3  29
HETATM   29  N   UNL     1      43.287 -15.426   4.649  1.00  0.00    -0.176 NA
HETATM   30  C   UNL     1      42.740 -16.538   5.014  1.00  0.00     0.153 C 
BRANCH  30  31
HETATM   31  C   UNL     1      43.529 -17.751   4.933  1.00  0.00     0.011 A 
HETATM   32  C   UNL     1      43.528 -18.719   3.877  1.00  0.00     0.004 A 
HETATM   33  C   UNL     1      44.462 -19.701   4.212  1.00  0.00     0.043 A 
HETATM   34  C   UNL     1      42.836 -18.843   2.653  1.00  0.00     0.014 A 
HETATM   35  C   UNL     1      44.736 -20.800   3.390  1.00  0.00     0.030 A 
HETATM   36  N   UNL     1      45.000 -19.353   5.429  1.00  0.00    -0.364 N 
HETATM   37  C   UNL     1      44.039 -20.898   2.182  1.00  0.00     0.002 A 
HETATM   38  C   UNL     1      43.102 -19.934   1.817  1.00  0.00     0.001 A 
HETATM   39  H   UNL     1      45.706 -19.886   5.917  1.00  0.00     0.165 HD
HETATM   40  C   UNL     1      44.456 -18.177   5.866  1.00  0.00     0.102 A 
ENDBRANCH  30  31
ENDBRANCH   3  29
TORSDOF 5
ENDMDL
MODEL 2
REMARK VINA RESULT:     -10.3      3.851      7.803
REMARK  5 active torsions:
REMARK  status: ('A' for Active; 'I' for Inactive)
REMARK    1  A    between atoms: C_4  and  N_5 
REMARK       I    between atoms: N_5  and  C_6 
REMARK    2  A    between atoms: C_6  and  C_7 
REMARK    3  A    between atoms: C_8  and  N_9 
REMARK    4  A    between atoms: N_10  and  N_11 
REMARK    5  A    between atoms: C_12  and  C_13 
ROOT
HETATM    1  C   UNL     1      41.152 -15.021   0.364  1.00  0.00     0.105 C 
HETATM    2  C   UNL     1      41.874 -16.122   0.813  1.00  0.00     0.123 C 
HETATM    3  N   UNL     1      41.603 -16.327   2.159  1.00  0.00    -0.202 N 
HETATM    4  C   UNL     1      40.911 -15.227   2.630  1.00  0.00     0.183 A 
HETATM    5  C   UNL     1      40.611 -14.418   1.536  1.00  0.00     0.124 A 
HETATM    6  N   UNL     1      39.922 -13.258   1.703  1.00  0.00    -0.242 NA
HETATM    7  C   UNL     1      39.637 -12.938   2.975  1.00  0.00     0.086 A 
HETATM    8  C   UNL     1      39.975 -13.775   4.070  1.00  0.00     0.088 A 
HETATM    9  N   UNL     1      40.598 -14.954   3.919  1.00  0.00    -0.225 NA
HETATM   10  C   UNL     1      39.000 -11.729   3.228  1.00  0.00     0.034 A 
HETATM   11  C   UNL     1      38.701 -11.318   4.528  1.00  0.00     0.002 A 
HETATM   12  C   UNL     1      39.036 -12.134   5.598  1.00  0.00     0.002 A 
HETATM   13  C   UNL     1      39.664 -13.357   5.357  1.00  0.00     0.034 A 
ENDROOT
BRANCH   1  14
HETATM   14  C   UNL     1      41.008 -14.579  -1.028  1.00  0.00     0.262 C 
HETATM   15  N   UNL     1      40.805 -13.214  -1.133  1.00  0.00    -0.323 N 
HETATM   16  H   UNL     1      40.771 -12.718  -0.245  1.00  0.00     0.169 HD
HETATM   17  O   UNL     1      41.068 -15.358  -1.970  1.00  0.00    -0.267 OA
BRANCH  15  18
HETATM   18  C   UNL     1      40.626 -12.424  -2.280  1.00  0.00     0.036 A 
HETATM   19  C   UNL     1      41.665 -11.839  -3.002  1.00  0.00     0.036 A 
HETATM   20  C   UNL     1      41.389 -11.046  -4.129  1.00  0.00    -0.059 A 
HETATM   21  C   UNL     1      42.515 -10.411  -4.890  1.00  0.00     0.048 C 
HETATM   22  C   UNL     1      40.063 -10.888  -4.554  1.00  0.00     0.013 A 
HETATM   23  C   UNL     1      39.011 -11.465  -3.839  1.00  0.00    -0.059 A 
HETATM   24  C   UNL     1      39.303 -12.221  -2.698  1.00  0.00     0.036 A 
HETATM   25  C   UNL     1      37.596 -11.343  -4.320  1.00  0.00     0.048 C 
ENDBRANCH  15  18
ENDBRANCH   1  14
BRANCH   2  26
HETATM   26  N   UNL     1      42.711 -16.986   0.151  1.00  0.00    -0.286 NA
HETATM   27  H   UNL     1      42.990 -16.681  -0.787  1.00  0.00     0.125 HD
HETATM   28  H   UNL     1      43.587 -17.153   0.667  1.00  0.00     0.125 HD
ENDBRANCH   2  26
BRANCH   3  29
HETATM   29  N   UNL     1      42.095 -17.424   2.818  1.00  0.00    -0.176 NA
HETATM   30  C   UNL     1      43.311 -17.314   3.239  1.00  0.00     0.153 C 
BRANCH  30  31
HETATM   31  C   UNL     1      43.890 -18.427   3.964  1.00  0.00     0.011 A 
HETATM   32  C   UNL     1      44.043 -19.776   3.507  1.00  0.00     0.004 A 
HETATM   33  C   UNL     1      44.674 -20.492   4.527  1.00  0.00     0.043 A 
HETATM   34  C   UNL     1      43.725 -20.454   2.311  1.00  0.00     0.014 A 
HETATM   35  C   UNL     1      44.999 -21.849   4.412  1.00  0.00     0.030 A 
HETATM   36  N   UNL     1      44.885 -19.618   5.567  1.00  0.00    -0.364 N 
HETATM   37  C   UNL     1      44.675 -22.495   3.217  1.00  0.00     0.002 A 
HETATM   38  C   UNL     1      44.047 -21.810   2.180  1.00  0.00     0.001 A 
HETATM   39  H   UNL     1      45.327 -19.865   6.442  1.00  0.00     0.165 HD
HETATM   40  C   UNL     1      44.429 -18.372   5.237  1.00  0.00     0.102 A 
ENDBRANCH  30  31
ENDBRANCH   3  29
TORSDOF 5
ENDMDL
MODEL 3
REMARK VINA RESULT:     -10.3      2.440      3.198
REMARK  5 active torsions:
REMARK  status: ('A' for Active; 'I' for Inactive)
REMARK    1  A    between atoms: C_4  and  N_5 
REMARK       I    between atoms: N_5  and  C_6 
REMARK    2  A    between atoms: C_6  and  C_7 
REMARK    3  A    between atoms: C_8  and  N_9 
REMARK    4  A    between atoms: N_10  and  N_11 
REMARK    5  A    between atoms: C_12  and  C_13 
ROOT
HETATM    1  C   UNL     1      40.245 -13.867   3.366  1.00  0.00     0.105 C 
HETATM    2  C   UNL     1      40.602 -15.047   4.009  1.00  0.00     0.123 C 
HETATM    3  N   UNL     1      41.205 -15.900   3.095  1.00  0.00    -0.202 N 
HETATM    4  C   UNL     1      41.014 -15.378   1.830  1.00  0.00     0.183 A 
HETATM    5  C   UNL     1      40.438 -14.118   1.977  1.00  0.00     0.124 A 
HETATM    6  N   UNL     1      40.141 -13.363   0.887  1.00  0.00    -0.242 NA
HETATM    7  C   UNL     1      40.374 -13.949  -0.298  1.00  0.00     0.086 A 
HETATM    8  C   UNL     1      40.944 -15.243  -0.414  1.00  0.00     0.088 A 
HETATM    9  N   UNL     1      41.303 -15.978   0.651  1.00  0.00    -0.225 NA
HETATM   10  C   UNL     1      40.024 -13.265  -1.457  1.00  0.00     0.034 A 
HETATM   11  C   UNL     1      40.209 -13.827  -2.721  1.00  0.00     0.002 A 
HETATM   12  C   UNL     1      40.763 -15.094  -2.833  1.00  0.00     0.002 A 
HETATM   13  C   UNL     1      41.130 -15.786  -1.678  1.00  0.00     0.034 A 
ENDROOT
BRANCH   1  14
HETATM   14  C   UNL     1      39.755 -12.638   4.002  1.00  0.00     0.262 C 
HETATM   15  N   UNL     1      40.507 -12.274   5.105  1.00  0.00    -0.323 N 
HETATM   16  H   UNL     1      41.273 -12.907   5.326  1.00  0.00     0.169 HD
HETATM   17  O   UNL     1      38.785 -12.024   3.575  1.00  0.00    -0.267 OA
BRANCH  15  18
HETATM   18  C   UNL     1      40.355 -11.175   5.965  1.00  0.00     0.036 A 
HETATM   19  C   UNL     1      39.622 -11.198   7.150  1.00  0.00     0.036 A 
HETATM   20  C   UNL     1      39.509 -10.041   7.939  1.00  0.00    -0.059 A 
HETATM   21  C   UNL     1      38.706 -10.075   9.206  1.00  0.00     0.048 C 
HETATM   22  C   UNL     1      40.182  -8.874   7.554  1.00  0.00     0.013 A 
HETATM   23  C   UNL     1      40.918  -8.834   6.367  1.00  0.00    -0.059 A 
HETATM   24  C   UNL     1      40.989  -9.986   5.576  1.00  0.00     0.036 A 
HETATM   25  C   UNL     1      41.683  -7.604   5.978  1.00  0.00     0.048 C 
ENDBRANCH  15  18
ENDBRANCH   1  14
BRANCH   2  26
HETATM   26  N   UNL     1      40.490 -15.431   5.324  1.00  0.00    -0.286 NA
HETATM   27  H   UNL     1      41.223 -16.068   5.650  1.00  0.00     0.125 HD
HETATM   28  H   UNL     1      40.507 -14.626   5.968  1.00  0.00     0.125 HD
ENDBRANCH   2  26
BRANCH   3  29
HETATM   29  N   UNL     1      41.762 -17.086   3.500  1.00  0.00    -0.176 NA
HETATM   30  C   UNL     1      43.052 -17.094   3.568  1.00  0.00     0.153 C 
BRANCH  30  31
HETATM   31  C   UNL     1      43.708 -18.308   4.010  1.00  0.00     0.011 A 
HETATM   32  C   UNL     1      43.796 -19.553   3.308  1.00  0.00     0.004 A 
HETATM   33  C   UNL     1      44.543 -20.427   4.101  1.00  0.00     0.043 A 
HETATM   34  C   UNL     1      43.331 -20.016   2.058  1.00  0.00     0.014 A 
HETATM   35  C   UNL     1      44.844 -21.737   3.711  1.00  0.00     0.030 A 
HETATM   36  N   UNL     1      44.884 -19.746   5.246  1.00  0.00    -0.364 N 
HETATM   37  C   UNL     1      44.373 -22.169   2.469  1.00  0.00     0.002 A 
HETATM   38  C   UNL     1      43.627 -21.322   1.652  1.00  0.00     0.001 A 
HETATM   39  H   UNL     1      45.428 -20.135   6.004  1.00  0.00     0.165 HD
HETATM   40  C   UNL     1      44.398 -18.469   5.198  1.00  0.00     0.102 A 
ENDBRANCH  30  31
ENDBRANCH   3  29
TORSDOF 5
ENDMDL
MODEL 4
REMARK VINA RESULT:     -10.1      2.712      7.742
REMARK  5 active torsions:
REMARK  status: ('A' for Active; 'I' for Inactive)
REMARK    1  A    between atoms: C_4  and  N_5 
REMARK       I    between atoms: N_5  and  C_6 
REMARK    2  A    between atoms: C_6  and  C_7 
REMARK    3  A    between atoms: C_8  and  N_9 
REMARK    4  A    between atoms: N_10  and  N_11 
REMARK    5  A    between atoms: C_12  and  C_13 
ROOT
HETATM    1  C   UNL     1      39.419 -14.639   1.960  1.00  0.00     0.105 C 
HETATM    2  C   UNL     1      40.135 -15.827   2.073  1.00  0.00     0.123 C 
HETATM    3  N   UNL     1      40.761 -15.866   3.311  1.00  0.00    -0.202 N 
HETATM    4  C   UNL     1      40.654 -14.613   3.886  1.00  0.00     0.183 A 
HETATM    5  C   UNL     1      39.819 -13.848   3.076  1.00  0.00     0.124 A 
HETATM    6  N   UNL     1      39.528 -12.561   3.403  1.00  0.00    -0.242 NA
HETATM    7  C   UNL     1      40.155 -12.091   4.493  1.00  0.00     0.086 A 
HETATM    8  C   UNL     1      41.016 -12.892   5.286  1.00  0.00     0.088 A 
HETATM    9  N   UNL     1      41.265 -14.182   5.015  1.00  0.00    -0.225 NA
HETATM   10  C   UNL     1      39.963 -10.761   4.846  1.00  0.00     0.034 A 
HETATM   11  C   UNL     1      40.608 -10.196   5.948  1.00  0.00     0.002 A 
HETATM   12  C   UNL     1      41.453 -10.979   6.721  1.00  0.00     0.002 A 
HETATM   13  C   UNL     1      41.645 -12.320   6.385  1.00  0.00     0.034 A 
ENDROOT
BRANCH   1  14
HETATM   14  C   UNL     1      38.473 -14.287   0.896  1.00  0.00     0.262 C 
HETATM   15  N   UNL     1      39.105 -13.844  -0.253  1.00  0.00    -0.323 N 
HETATM   16  H   UNL     1      40.121 -13.812  -0.195  1.00  0.00     0.169 HD
HETATM   17  O   UNL     1      37.261 -14.387   1.040  1.00  0.00    -0.267 OA
BRANCH  15  18
HETATM   18  C   UNL     1      38.550 -13.422  -1.472  1.00  0.00     0.036 A 
HETATM   19  C   UNL     1      37.867 -14.256  -2.356  1.00  0.00     0.036 A 
HETATM   20  C   UNL     1      37.361 -13.749  -3.564  1.00  0.00    -0.059 A 
HETATM   21  C   UNL     1      36.639 -14.658  -4.514  1.00  0.00     0.048 C 
HETATM   22  C   UNL     1      37.503 -12.385  -3.854  1.00  0.00     0.013 A 
HETATM   23  C   UNL     1      38.188 -11.537  -2.980  1.00  0.00    -0.059 A 
HETATM   24  C   UNL     1      38.717 -12.069  -1.798  1.00  0.00     0.036 A 
HETATM   25  C   UNL     1      38.295 -10.068  -3.260  1.00  0.00     0.048 C 
ENDBRANCH  15  18
ENDBRANCH   1  14
BRANCH   2  26
HETATM   26  N   UNL     1      40.257 -16.894   1.217  1.00  0.00    -0.286 NA
HETATM   27  H   UNL     1      40.469 -16.645   0.246  1.00  0.00     0.125 HD
HETATM   28  H   UNL     1      40.998 -17.547   1.510  1.00  0.00     0.125 HD
ENDBRANCH   2  26
BRANCH   3  29
HETATM   29  N   UNL     1      41.434 -16.987   3.725  1.00  0.00    -0.176 NA
HETATM   30  C   UNL     1      42.715 -16.950   3.564  1.00  0.00     0.153 C 
BRANCH  30  31
HETATM   31  C   UNL     1      43.495 -18.091   4.000  1.00  0.00     0.011 A 
HETATM   32  C   UNL     1      43.660 -19.341   3.319  1.00  0.00     0.004 A 
HETATM   33  C   UNL     1      44.515 -20.127   4.095  1.00  0.00     0.043 A 
HETATM   34  C   UNL     1      43.182 -19.872   2.103  1.00  0.00     0.014 A 
HETATM   35  C   UNL     1      44.912 -21.415   3.718  1.00  0.00     0.030 A 
HETATM   36  N   UNL     1      44.846 -19.391   5.208  1.00  0.00    -0.364 N 
HETATM   37  C   UNL     1      44.425 -21.917   2.508  1.00  0.00     0.002 A 
HETATM   38  C   UNL     1      43.572 -21.158   1.710  1.00  0.00     0.001 A 
HETATM   39  H   UNL     1      45.455 -19.713   5.948  1.00  0.00     0.165 HD
HETATM   40  C   UNL     1      44.249 -18.163   5.157  1.00  0.00     0.102 A 
ENDBRANCH  30  31
ENDBRANCH   3  29
TORSDOF 5
ENDMDL
MODEL 5
REMARK VINA RESULT:     -10.1      2.896      9.348
REMARK  5 active torsions:
REMARK  status: ('A' for Active; 'I' for Inactive)
REMARK    1  A    between atoms: C_4  and  N_5 
REMARK       I    between atoms: N_5  and  C_6 
REMARK    2  A    between atoms: C_6  and  C_7 
REMARK    3  A    between atoms: C_8  and  N_9 
REMARK    4  A    between atoms: N_10  and  N_11 
REMARK    5  A    between atoms: C_12  and  C_13 
ROOT
HETATM    1  C   UNL     1      41.499 -15.595   2.683  1.00  0.00     0.105 C 
HETATM    2  C   UNL     1      41.491 -14.857   3.862  1.00  0.00     0.123 C 
HETATM    3  N   UNL     1      42.445 -15.371   4.729  1.00  0.00    -0.202 N 
HETATM    4  C   UNL     1      42.888 -16.576   4.215  1.00  0.00     0.183 A 
HETATM    5  C   UNL     1      42.327 -16.724   2.948  1.00  0.00     0.124 A 
HETATM    6  N   UNL     1      42.596 -17.826   2.198  1.00  0.00    -0.242 NA
HETATM    7  C   UNL     1      43.358 -18.755   2.797  1.00  0.00     0.086 A 
HETATM    8  C   UNL     1      43.897 -18.582   4.097  1.00  0.00     0.088 A 
HETATM    9  N   UNL     1      43.696 -17.473   4.827  1.00  0.00    -0.225 NA
HETATM   10  C   UNL     1      43.613 -19.941   2.118  1.00  0.00     0.034 A 
HETATM   11  C   UNL     1      44.371 -20.963   2.692  1.00  0.00     0.002 A 
HETATM   12  C   UNL     1      44.894 -20.795   3.965  1.00  0.00     0.002 A 
HETATM   13  C   UNL     1      44.657 -19.603   4.653  1.00  0.00     0.034 A 
ENDROOT
BRANCH   1  14
HETATM   14  C   UNL     1      40.781 -15.273   1.445  1.00  0.00     0.262 C 
HETATM   15  N   UNL     1      41.630 -15.126   0.361  1.00  0.00    -0.323 N 
HETATM   16  H   UNL     1      42.618 -15.246   0.575  1.00  0.00     0.169 HD
HETATM   17  O   UNL     1      39.562 -15.157   1.407  1.00  0.00    -0.267 OA
BRANCH  15  18
HETATM   18  C   UNL     1      41.326 -14.822  -0.975  1.00  0.00     0.036 A 
HETATM   19  C   UNL     1      40.503 -15.597  -1.791  1.00  0.00     0.036 A 
HETATM   20  C   UNL     1      40.272 -15.225  -3.126  1.00  0.00    -0.059 A 
HETATM   21  C   UNL     1      39.395 -16.075  -3.998  1.00  0.00     0.048 C 
HETATM   22  C   UNL     1      40.832 -14.039  -3.619  1.00  0.00     0.013 A 
HETATM   23  C   UNL     1      41.662 -13.254  -2.815  1.00  0.00    -0.059 A 
HETATM   24  C   UNL     1      41.911 -13.660  -1.499  1.00  0.00     0.036 A 
HETATM   25  C   UNL     1      42.220 -11.957  -3.322  1.00  0.00     0.048 C 
ENDBRANCH  15  18
ENDBRANCH   1  14
BRANCH   2  26
HETATM   26  N   UNL     1      40.760 -13.754   4.234  1.00  0.00    -0.286 NA
HETATM   27  H   UNL     1      41.280 -12.871   4.223  1.00  0.00     0.125 HD
HETATM   28  H   UNL     1      39.939 -13.608   3.629  1.00  0.00     0.125 HD
ENDBRANCH   2  26
BRANCH   3  29
HETATM   29  N   UNL     1      42.726 -14.748   5.917  1.00  0.00    -0.176 NA
HETATM   30  C   UNL     1      43.681 -13.879   5.871  1.00  0.00     0.153 C 
BRANCH  30  31
HETATM   31  C   UNL     1      44.017 -13.164   7.086  1.00  0.00     0.011 A 
HETATM   32  C   UNL     1      43.287 -12.092   7.694  1.00  0.00     0.004 A 
HETATM   33  C   UNL     1      43.967 -11.734   8.860  1.00  0.00     0.043 A 
HETATM   34  C   UNL     1      42.096 -11.405   7.376  1.00  0.00     0.014 A 
HETATM   35  C   UNL     1      43.520 -10.723   9.719  1.00  0.00     0.030 A 
HETATM   36  N   UNL     1      45.073 -12.545   8.951  1.00  0.00    -0.364 N 
HETATM   37  C   UNL     1      42.337 -10.060   9.382  1.00  0.00     0.002 A 
HETATM   38  C   UNL     1      41.633 -10.395   8.227  1.00  0.00     0.001 A 
HETATM   39  H   UNL     1      45.752 -12.507   9.700  1.00  0.00     0.165 HD
HETATM   40  C   UNL     1      45.108 -13.416   7.898  1.00  0.00     0.102 A 
ENDBRANCH  30  31
ENDBRANCH   3  29
TORSDOF 5
ENDMDL
MODEL 6
REMARK VINA RESULT:     -10.0      4.406      9.653
REMARK  5 active torsions:
REMARK  status: ('A' for Active; 'I' for Inactive)
REMARK    1  A    between atoms: C_4  and  N_5 
REMARK       I    between atoms: N_5  and  C_6 
REMARK    2  A    between atoms: C_6  and  C_7 
REMARK    3  A    between atoms: C_8  and  N_9 
REMARK    4  A    between atoms: N_10  and  N_11 
REMARK    5  A    between atoms: C_12  and  C_13 
ROOT
HETATM    1  C   UNL     1      41.080 -15.828   1.007  1.00  0.00     0.105 C 
HETATM    2  C   UNL     1      41.013 -15.268  -0.265  1.00  0.00     0.123 C 
HETATM    3  N   UNL     1      40.839 -13.896  -0.150  1.00  0.00    -0.202 N 
HETATM    4  C   UNL     1      40.548 -13.608   1.170  1.00  0.00     0.183 A 
HETATM    5  C   UNL     1      40.706 -14.783   1.901  1.00  0.00     0.124 A 
HETATM    6  N   UNL     1      40.490 -14.796   3.243  1.00  0.00    -0.242 NA
HETATM    7  C   UNL     1      40.053 -13.639   3.765  1.00  0.00     0.086 A 
HETATM    8  C   UNL     1      39.882 -12.465   2.988  1.00  0.00     0.088 A 
HETATM    9  N   UNL     1      40.152 -12.415   1.674  1.00  0.00    -0.225 NA
HETATM   10  C   UNL     1      39.738 -13.599   5.118  1.00  0.00     0.034 A 
HETATM   11  C   UNL     1      39.249 -12.439   5.721  1.00  0.00     0.002 A 
HETATM   12  C   UNL     1      39.079 -11.292   4.960  1.00  0.00     0.002 A 
HETATM   13  C   UNL     1      39.403 -11.315   3.602  1.00  0.00     0.034 A 
ENDROOT
BRANCH   1  14
HETATM   14  C   UNL     1      41.442 -17.211   1.335  1.00  0.00     0.262 C 
HETATM   15  N   UNL     1      42.554 -17.290   2.155  1.00  0.00    -0.323 N 
HETATM   16  H   UNL     1      42.967 -16.392   2.400  1.00  0.00     0.169 HD
HETATM   17  O   UNL     1      40.806 -18.170   0.915  1.00  0.00    -0.267 OA
BRANCH  15  18
HETATM   18  C   UNL     1      43.197 -18.421   2.681  1.00  0.00     0.036 A 
HETATM   19  C   UNL     1      43.515 -19.560   1.942  1.00  0.00     0.036 A 
HETATM   20  C   UNL     1      44.142 -20.655   2.558  1.00  0.00    -0.059 A 
HETATM   21  C   UNL     1      44.467 -21.880   1.756  1.00  0.00     0.048 C 
HETATM   22  C   UNL     1      44.496 -20.577   3.912  1.00  0.00     0.013 A 
HETATM   23  C   UNL     1      44.182 -19.444   4.667  1.00  0.00    -0.059 A 
HETATM   24  C   UNL     1      43.523 -18.377   4.044  1.00  0.00     0.036 A 
HETATM   25  C   UNL     1      44.605 -19.334   6.101  1.00  0.00     0.048 C 
ENDBRANCH  15  18
ENDBRANCH   1  14
BRANCH   2  26
HETATM   26  N   UNL     1      41.133 -15.835  -1.510  1.00  0.00    -0.286 NA
HETATM   27  H   UNL     1      41.736 -15.323  -2.160  1.00  0.00     0.125 HD
HETATM   28  H   UNL     1      41.510 -16.793  -1.468  1.00  0.00     0.125 HD
ENDBRANCH   2  26
BRANCH   3  29
HETATM   29  N   UNL     1      40.863 -13.088  -1.258  1.00  0.00    -0.176 NA
HETATM   30  C   UNL     1      41.981 -12.474  -1.468  1.00  0.00     0.153 C 
BRANCH  30  31
HETATM   31  C   UNL     1      42.086 -11.621  -2.634  1.00  0.00     0.011 A 
HETATM   32  C   UNL     1      42.253 -10.198  -2.657  1.00  0.00     0.004 A 
HETATM   33  C   UNL     1      42.334  -9.810  -3.996  1.00  0.00     0.043 A 
HETATM   34  C   UNL     1      42.366  -9.202  -1.663  1.00  0.00     0.014 A 
HETATM   35  C   UNL     1      42.518  -8.479  -4.391  1.00  0.00     0.030 A 
HETATM   36  N   UNL     1      42.209 -10.948  -4.757  1.00  0.00    -0.364 N 
HETATM   37  C   UNL     1      42.629  -7.514  -3.387  1.00  0.00     0.002 A 
HETATM   38  C   UNL     1      42.554  -7.868  -2.042  1.00  0.00     0.001 A 
HETATM   39  H   UNL     1      42.230 -10.966  -5.768  1.00  0.00     0.165 HD
HETATM   40  C   UNL     1      42.071 -12.043  -3.951  1.00  0.00     0.102 A 
ENDBRANCH  30  31
ENDBRANCH   3  29
TORSDOF 5
ENDMDL
MODEL 7
REMARK VINA RESULT:      -9.9      2.382      6.370
REMARK  5 active torsions:
REMARK  status: ('A' for Active; 'I' for Inactive)
REMARK    1  A    between atoms: C_4  and  N_5 
REMARK       I    between atoms: N_5  and  C_6 
REMARK    2  A    between atoms: C_6  and  C_7 
REMARK    3  A    between atoms: C_8  and  N_9 
REMARK    4  A    between atoms: N_10  and  N_11 
REMARK    5  A    between atoms: C_12  and  C_13 
ROOT
HETATM    1  C   UNL     1      43.290 -14.935   5.011  1.00  0.00     0.105 C 
HETATM    2  C   UNL     1      42.814 -14.186   3.940  1.00  0.00     0.123 C 
HETATM    3  N   UNL     1      42.468 -15.042   2.903  1.00  0.00    -0.202 N 
HETATM    4  C   UNL     1      42.947 -16.302   3.208  1.00  0.00     0.183 A 
HETATM    5  C   UNL     1      43.444 -16.260   4.509  1.00  0.00     0.124 A 
HETATM    6  N   UNL     1      43.978 -17.371   5.081  1.00  0.00    -0.242 NA
HETATM    7  C   UNL     1      44.050 -18.448   4.283  1.00  0.00     0.086 A 
HETATM    8  C   UNL     1      43.553 -18.452   2.955  1.00  0.00     0.088 A 
HETATM    9  N   UNL     1      42.964 -17.384   2.395  1.00  0.00    -0.225 NA
HETATM   10  C   UNL     1      44.653 -19.599   4.776  1.00  0.00     0.034 A 
HETATM   11  C   UNL     1      44.791 -20.746   3.992  1.00  0.00     0.002 A 
HETATM   12  C   UNL     1      44.308 -20.748   2.692  1.00  0.00     0.002 A 
HETATM   13  C   UNL     1      43.689 -19.603   2.188  1.00  0.00     0.034 A 
ENDROOT
BRANCH   1  14
HETATM   14  C   UNL     1      43.586 -14.441   6.360  1.00  0.00     0.262 C 
HETATM   15  N   UNL     1      43.252 -13.107   6.523  1.00  0.00    -0.323 N 
HETATM   16  H   UNL     1      42.868 -12.660   5.694  1.00  0.00     0.169 HD
HETATM   17  O   UNL     1      44.073 -15.157   7.226  1.00  0.00    -0.267 OA
BRANCH  15  18
HETATM   18  C   UNL     1      43.381 -12.287   7.655  1.00  0.00     0.036 A 
HETATM   19  C   UNL     1      44.421 -12.379   8.579  1.00  0.00     0.036 A 
HETATM   20  C   UNL     1      44.457 -11.526   9.695  1.00  0.00    -0.059 A 
HETATM   21  C   UNL     1      45.574 -11.644  10.690  1.00  0.00     0.048 C 
HETATM   22  C   UNL     1      43.467 -10.546   9.848  1.00  0.00     0.013 A 
HETATM   23  C   UNL     1      42.417 -10.443   8.933  1.00  0.00    -0.059 A 
HETATM   24  C   UNL     1      42.378 -11.326   7.846  1.00  0.00     0.036 A 
HETATM   25  C   UNL     1      41.386  -9.362   9.063  1.00  0.00     0.048 C 
ENDBRANCH  15  18
ENDBRANCH   1  14
BRANCH   2  26
HETATM   26  N   UNL     1      42.614 -12.834   3.799  1.00  0.00    -0.286 NA
HETATM   27  H   UNL     1      42.301 -12.540   2.869  1.00  0.00     0.125 HD
HETATM   28  H   UNL     1      41.913 -12.472   4.462  1.00  0.00     0.125 HD
ENDBRANCH   2  26
BRANCH   3  29
HETATM   29  N   UNL     1      41.856 -14.566   1.772  1.00  0.00    -0.176 NA
HETATM   30  C   UNL     1      40.590 -14.805   1.689  1.00  0.00     0.153 C 
BRANCH  30  31
HETATM   31  C   UNL     1      39.873 -14.312   0.530  1.00  0.00     0.011 A 
HETATM   32  C   UNL     1      40.120 -14.630  -0.845  1.00  0.00     0.004 A 
HETATM   33  C   UNL     1      39.169 -13.949  -1.607  1.00  0.00     0.043 A 
HETATM   34  C   UNL     1      41.049 -15.454  -1.515  1.00  0.00     0.014 A 
HETATM   35  C   UNL     1      39.103 -14.046  -3.002  1.00  0.00     0.030 A 
HETATM   36  N   UNL     1      38.384 -13.234  -0.734  1.00  0.00    -0.364 N 
HETATM   37  C   UNL     1      40.034 -14.870  -3.640  1.00  0.00     0.002 A 
HETATM   38  C   UNL     1      40.994 -15.565  -2.909  1.00  0.00     0.001 A 
HETATM   39  H   UNL     1      37.610 -12.644  -1.009  1.00  0.00     0.165 HD
HETATM   40  C   UNL     1      38.789 -13.453   0.553  1.00  0.00     0.102 A 
ENDBRANCH  30  31
ENDBRANCH   3  29
TORSDOF 5
ENDMDL
MODEL 8
REMARK VINA RESULT:      -9.8      2.799      9.385
REMARK  5 active torsions:
REMARK  status: ('A' for Active; 'I' for Inactive)
REMARK    1  A    between atoms: C_4  and  N_5 
REMARK       I    between atoms: N_5  and  C_6 
REMARK    2  A    between atoms: C_6  and  C_7 
REMARK    3  A    between atoms: C_8  and  N_9 
REMARK    4  A    between atoms: N_10  and  N_11 
REMARK    5  A    between atoms: C_12  and  C_13 
ROOT
HETATM    1  C   UNL     1      41.001 -14.492   2.938  1.00  0.00     0.105 C 
HETATM    2  C   UNL     1      40.685 -13.686   4.028  1.00  0.00     0.123 C 
HETATM    3  N   UNL     1      41.516 -14.011   5.091  1.00  0.00    -0.202 N 
HETATM    4  C   UNL     1      42.186 -15.177   4.772  1.00  0.00     0.183 A 
HETATM    5  C   UNL     1      41.894 -15.481   3.444  1.00  0.00     0.124 A 
HETATM    6  N   UNL     1      42.427 -16.583   2.854  1.00  0.00    -0.242 NA
HETATM    7  C   UNL     1      43.169 -17.361   3.657  1.00  0.00     0.086 A 
HETATM    8  C   UNL     1      43.432 -17.034   5.012  1.00  0.00     0.088 A 
HETATM    9  N   UNL     1      42.967 -15.917   5.594  1.00  0.00    -0.225 NA
HETATM   10  C   UNL     1      43.685 -18.544   3.142  1.00  0.00     0.034 A 
HETATM   11  C   UNL     1      44.439 -19.417   3.928  1.00  0.00     0.002 A 
HETATM   12  C   UNL     1      44.692 -19.098   5.254  1.00  0.00     0.002 A 
HETATM   13  C   UNL     1      44.191 -17.907   5.781  1.00  0.00     0.034 A 
ENDROOT
BRANCH   1  14
HETATM   14  C   UNL     1      40.493 -14.349   1.569  1.00  0.00     0.262 C 
HETATM   15  N   UNL     1      41.507 -14.312   0.628  1.00  0.00    -0.323 N 
HETATM   16  H   UNL     1      42.448 -14.373   1.012  1.00  0.00     0.169 HD
HETATM   17  O   UNL     1      39.296 -14.277   1.320  1.00  0.00    -0.267 OA
BRANCH  15  18
HETATM   18  C   UNL     1      41.425 -14.187  -0.768  1.00  0.00     0.036 A 
HETATM   19  C   UNL     1      41.972 -13.132  -1.497  1.00  0.00     0.036 A 
HETATM   20  C   UNL     1      41.823 -13.080  -2.893  1.00  0.00    -0.059 A 
HETATM   21  C   UNL     1      42.404 -11.933  -3.666  1.00  0.00     0.048 C 
HETATM   22  C   UNL     1      41.163 -14.124  -3.557  1.00  0.00     0.013 A 
HETATM   23  C   UNL     1      40.606 -15.186  -2.840  1.00  0.00    -0.059 A 
HETATM   24  C   UNL     1      40.734 -15.201  -1.446  1.00  0.00     0.036 A 
HETATM   25  C   UNL     1      39.948 -16.331  -3.549  1.00  0.00     0.048 C 
ENDBRANCH  15  18
ENDBRANCH   1  14
BRANCH   2  26
HETATM   26  N   UNL     1      39.772 -12.669   4.166  1.00  0.00    -0.286 NA
HETATM   27  H   UNL     1      40.047 -11.931   4.821  1.00  0.00     0.125 HD
HETATM   28  H   UNL     1      39.576 -12.196   3.271  1.00  0.00     0.125 HD
ENDBRANCH   2  26
BRANCH   3  29
HETATM   29  N   UNL     1      41.493 -13.280   6.251  1.00  0.00    -0.176 NA
HETATM   30  C   UNL     1      42.407 -12.372   6.347  1.00  0.00     0.153 C 
BRANCH  30  31
HETATM   31  C   UNL     1      42.431 -11.546   7.537  1.00  0.00     0.011 A 
HETATM   32  C   UNL     1      43.417 -11.546   8.576  1.00  0.00     0.004 A 
HETATM   33  C   UNL     1      43.045 -10.569   9.503  1.00  0.00     0.043 A 
HETATM   34  C   UNL     1      44.606 -12.270   8.807  1.00  0.00     0.014 A 
HETATM   35  C   UNL     1      43.799 -10.283  10.647  1.00  0.00     0.030 A 
HETATM   36  N   UNL     1      41.874 -10.007   9.053  1.00  0.00    -0.364 N 
HETATM   37  C   UNL     1      44.973 -11.013  10.851  1.00  0.00     0.002 A 
HETATM   38  C   UNL     1      45.373 -11.993   9.945  1.00  0.00     0.001 A 
HETATM   39  H   UNL     1      41.373  -9.268   9.529  1.00  0.00     0.165 HD
HETATM   40  C   UNL     1      41.501 -10.576   7.868  1.00  0.00     0.102 A 
ENDBRANCH  30  31
ENDBRANCH   3  29
TORSDOF 5
ENDMDL
MODEL 9
REMARK VINA RESULT:      -9.6      1.426      1.876
REMARK  5 active torsions:
REMARK  status: ('A' for Active; 'I' for Inactive)
REMARK    1  A    between atoms: C_4  and  N_5 
REMARK       I    between atoms: N_5  and  C_6 
REMARK    2  A    between atoms: C_6  and  C_7 
REMARK    3  A    between atoms: C_8  and  N_9 
REMARK    4  A    between atoms: N_10  and  N_11 
REMARK    5  A    between atoms: C_12  and  C_13 
ROOT
HETATM    1  C   UNL     1      40.439 -13.043   5.340  1.00  0.00     0.105 C 
HETATM    2  C   UNL     1      41.263 -14.163   5.304  1.00  0.00     0.123 C 
HETATM    3  N   UNL     1      41.400 -14.586   3.989  1.00  0.00    -0.202 N 
HETATM    4  C   UNL     1      40.478 -13.901   3.219  1.00  0.00     0.183 A 
HETATM    5  C   UNL     1      39.887 -12.935   4.031  1.00  0.00     0.124 A 
HETATM    6  N   UNL     1      38.936 -12.102   3.532  1.00  0.00    -0.242 NA
HETATM    7  C   UNL     1      38.580 -12.335   2.259  1.00  0.00     0.086 A 
HETATM    8  C   UNL     1      39.188 -13.341   1.465  1.00  0.00     0.088 A 
HETATM    9  N   UNL     1      40.173 -14.131   1.920  1.00  0.00    -0.225 NA
HETATM   10  C   UNL     1      37.560 -11.570   1.705  1.00  0.00     0.034 A 
HETATM   11  C   UNL     1      37.117 -11.779   0.398  1.00  0.00     0.002 A 
HETATM   12  C   UNL     1      37.709 -12.765  -0.376  1.00  0.00     0.002 A 
HETATM   13  C   UNL     1      38.743 -13.532   0.163  1.00  0.00     0.034 A 
ENDROOT
BRANCH   1  14
HETATM   14  C   UNL     1      40.187 -12.180   6.500  1.00  0.00     0.262 C 
HETATM   15  N   UNL     1      41.353 -11.677   7.050  1.00  0.00    -0.323 N 
HETATM   16  H   UNL     1      42.208 -11.982   6.591  1.00  0.00     0.169 HD
HETATM   17  O   UNL     1      39.056 -11.947   6.908  1.00  0.00    -0.267 OA
BRANCH  15  18
HETATM   18  C   UNL     1      41.524 -10.825   8.153  1.00  0.00     0.036 A 
HETATM   19  C   UNL     1      40.618  -9.835   8.530  1.00  0.00     0.036 A 
HETATM   20  C   UNL     1      40.883  -9.014   9.639  1.00  0.00    -0.059 A 
HETATM   21  C   UNL     1      39.907  -7.943  10.027  1.00  0.00     0.048 C 
HETATM   22  C   UNL     1      42.041  -9.230  10.398  1.00  0.00     0.013 A 
HETATM   23  C   UNL     1      42.961 -10.216  10.031  1.00  0.00    -0.059 A 
HETATM   24  C   UNL     1      42.697 -10.999   8.901  1.00  0.00     0.036 A 
HETATM   25  C   UNL     1      44.174 -10.486  10.869  1.00  0.00     0.048 C 
ENDBRANCH  15  18
ENDBRANCH   1  14
BRANCH   2  26
HETATM   26  N   UNL     1      41.939 -14.821   6.302  1.00  0.00    -0.286 NA
HETATM   27  H   UNL     1      41.342 -15.295   6.986  1.00  0.00     0.125 HD
HETATM   28  H   UNL     1      42.575 -15.543   5.933  1.00  0.00     0.125 HD
ENDBRANCH   2  26
BRANCH   3  29
HETATM   29  N   UNL     1      42.261 -15.602   3.662  1.00  0.00    -0.176 NA
HETATM   30  C   UNL     1      41.701 -16.735   3.396  1.00  0.00     0.153 C 
BRANCH  30  31
HETATM   31  C   UNL     1      42.548 -17.848   3.020  1.00  0.00     0.011 A 
HETATM   32  C   UNL     1      43.253 -18.737   3.895  1.00  0.00     0.004 A 
HETATM   33  C   UNL     1      43.916 -19.670   3.094  1.00  0.00     0.043 A 
HETATM   34  C   UNL     1      43.374 -18.852   5.296  1.00  0.00     0.014 A 
HETATM   35  C   UNL     1      44.693 -20.708   3.622  1.00  0.00     0.030 A 
HETATM   36  N   UNL     1      43.636 -19.354   1.786  1.00  0.00    -0.364 N 
HETATM   37  C   UNL     1      44.794 -20.800   5.013  1.00  0.00     0.002 A 
HETATM   38  C   UNL     1      44.144 -19.887   5.840  1.00  0.00     0.001 A 
HETATM   39  H   UNL     1      43.986 -19.864   0.986  1.00  0.00     0.165 HD
HETATM   40  C   UNL     1      42.807 -18.269   1.728  1.00  0.00     0.102 A 
ENDBRANCH  30  31
ENDBRANCH   3  29
TORSDOF 5
ENDMDL
MODEL 10
REMARK VINA RESULT:      -9.6      3.634      9.597
REMARK  5 active torsions:
REMARK  status: ('A' for Active; 'I' for Inactive)
REMARK    1  A    between atoms: C_4  and  N_5 
REMARK       I    between atoms: N_5  and  C_6 
REMARK    2  A    between atoms: C_6  and  C_7 
REMARK    3  A    between atoms: C_8  and  N_9 
REMARK    4  A    between atoms: N_10  and  N_11 
REMARK    5  A    between atoms: C_12  and  C_13 
ROOT
HETATM    1  C   UNL     1      41.643 -15.191   1.522  1.00  0.00     0.105 C 
HETATM    2  C   UNL     1      41.101 -15.317   0.247  1.00  0.00     0.123 C 
HETATM    3  N   UNL     1      40.295 -14.218  -0.017  1.00  0.00    -0.202 N 
HETATM    4  C   UNL     1      40.121 -13.521   1.164  1.00  0.00     0.183 A 
HETATM    5  C   UNL     1      40.956 -14.096   2.120  1.00  0.00     0.124 A 
HETATM    6  N   UNL     1      40.997 -13.604   3.386  1.00  0.00    -0.242 NA
HETATM    7  C   UNL     1      40.139 -12.604   3.641  1.00  0.00     0.086 A 
HETATM    8  C   UNL     1      39.287 -12.054   2.650  1.00  0.00     0.088 A 
HETATM    9  N   UNL     1      39.278 -12.483   1.378  1.00  0.00    -0.225 NA
HETATM   10  C   UNL     1      40.072 -12.101   4.936  1.00  0.00     0.034 A 
HETATM   11  C   UNL     1      39.182 -11.083   5.280  1.00  0.00     0.002 A 
HETATM   12  C   UNL     1      38.346 -10.548   4.311  1.00  0.00     0.002 A 
HETATM   13  C   UNL     1      38.411 -11.035   3.004  1.00  0.00     0.034 A 
ENDROOT
BRANCH   1  14
HETATM   14  C   UNL     1      42.687 -16.034   2.115  1.00  0.00     0.262 C 
HETATM   15  N   UNL     1      42.317 -17.365   2.191  1.00  0.00    -0.323 N 
HETATM   16  H   UNL     1      41.382 -17.568   1.844  1.00  0.00     0.169 HD
HETATM   17  O   UNL     1      43.760 -15.578   2.489  1.00  0.00    -0.267 OA
BRANCH  15  18
HETATM   18  C   UNL     1      43.034 -18.464   2.689  1.00  0.00     0.036 A 
HETATM   19  C   UNL     1      43.334 -19.608   1.951  1.00  0.00     0.036 A 
HETATM   20  C   UNL     1      44.041 -20.669   2.539  1.00  0.00    -0.059 A 
HETATM   21  C   UNL     1      44.346 -21.901   1.739  1.00  0.00     0.048 C 
HETATM   22  C   UNL     1      44.491 -20.550   3.861  1.00  0.00     0.013 A 
HETATM   23  C   UNL     1      44.196 -19.412   4.616  1.00  0.00    -0.059 A 
HETATM   24  C   UNL     1      43.458 -18.381   4.023  1.00  0.00     0.036 A 
HETATM   25  C   UNL     1      44.721 -19.257   6.012  1.00  0.00     0.048 C 
ENDBRANCH  15  18
ENDBRANCH   1  14
BRANCH   2  26
HETATM   26  N   UNL     1      41.279 -16.276  -0.721  1.00  0.00    -0.286 NA
HETATM   27  H   UNL     1      40.414 -16.613  -1.156  1.00  0.00     0.125 HD
HETATM   28  H   UNL     1      41.875 -15.945  -1.494  1.00  0.00     0.125 HD
ENDBRANCH   2  26
BRANCH   3  29
HETATM   29  N   UNL     1      39.736 -14.036  -1.255  1.00  0.00    -0.176 NA
HETATM   30  C   UNL     1      38.451 -14.161  -1.303  1.00  0.00     0.153 C 
BRANCH  30  31
HETATM   31  C   UNL     1      37.789 -13.959  -2.576  1.00  0.00     0.011 A 
HETATM   32  C   UNL     1      37.133 -12.771  -3.036  1.00  0.00     0.004 A 
HETATM   33  C   UNL     1      36.667 -13.026  -4.327  1.00  0.00     0.043 A 
HETATM   34  C   UNL     1      36.910 -11.491  -2.485  1.00  0.00     0.014 A 
HETATM   35  C   UNL     1      35.988 -12.070  -5.092  1.00  0.00     0.030 A 
HETATM   36  N   UNL     1      37.013 -14.321  -4.636  1.00  0.00    -0.364 N 
HETATM   37  C   UNL     1      35.782 -10.810  -4.523  1.00  0.00     0.002 A 
HETATM   38  C   UNL     1      36.237 -10.523  -3.238  1.00  0.00     0.001 A 
HETATM   39  H   UNL     1      36.800 -14.777  -5.513  1.00  0.00     0.165 HD
HETATM   40  C   UNL     1      37.697 -14.888  -3.597  1.00  0.00     0.102 A 
ENDBRANCH  30  31
ENDBRANCH   3  29
TORSDOF 5
ENDMDL
