MODEL 1
REMARK VINA RESULT:      -9.1      0.000      0.000
REMARK  3 active torsions:
REMARK  status: ('A' for Active; 'I' for Inactive)
REMARK    1  A    between atoms: O_2  and  C_3 
REMARK    2  A    between atoms: C_9  and  C_10 
REMARK       I    between atoms: C_10  and  N_11 
REMARK    3  A    between atoms: N_11  and  C_12 
ROOT
HETATM    1  C   UNL     1      44.458 -20.021   4.631  1.00  0.00     0.068 A 
HETATM    2  C   UNL     1      44.325 -19.769   3.264  1.00  0.00     0.044 A 
HETATM    3  C   UNL     1      43.424 -18.802   2.799  1.00  0.00    -0.043 A 
HETATM    4  C   UNL     1      42.616 -18.103   3.726  1.00  0.00    -0.001 A 
HETATM    5  C   UNL     1      41.737 -17.085   3.178  1.00  0.00     0.069 A 
HETATM    6  C   UNL     1      41.796 -16.627   1.880  1.00  0.00     0.007 A 
HETATM    7  C   UNL     1      40.822 -15.603   1.788  1.00  0.00     0.153 A 
HETATM    8  N   UNL     1      40.171 -15.455   2.967  1.00  0.00    -0.168 NA
HETATM    9  N   UNL     1      40.741 -16.376   3.777  1.00  0.00    -0.276 N 
HETATM   10  H   UNL     1      40.403 -16.456   4.729  1.00  0.00     0.189 HD
HETATM   11  C   UNL     1      42.798 -17.148   0.912  1.00  0.00     0.048 C 
HETATM   12  C   UNL     1      43.255 -18.574   1.301  1.00  0.00     0.044 C 
HETATM   13  C   UNL     1      42.733 -18.374   5.091  1.00  0.00     0.017 A 
HETATM   14  C   UNL     1      43.653 -19.330   5.540  1.00  0.00     0.037 A 
ENDROOT
BRANCH   7  15
HETATM   15  C   UNL     1      40.535 -14.734   0.627  1.00  0.00     0.277 C 
HETATM   16  N   UNL     1      41.694 -14.351  -0.019  1.00  0.00    -0.319 N 
HETATM   17  H   UNL     1      42.520 -14.811   0.357  1.00  0.00     0.169 HD
HETATM   18  O   UNL     1      39.386 -14.481   0.291  1.00  0.00    -0.266 OA
BRANCH  16  19
HETATM   19  C   UNL     1      41.828 -13.577  -1.186  1.00  0.00     0.074 A 
HETATM   20  C   UNL     1      41.476 -13.986  -2.479  1.00  0.00     0.144 A 
HETATM   21  F   UNL     1      40.857 -15.151  -2.708  1.00  0.00    -0.204 F 
HETATM   22  C   UNL     1      41.685 -13.160  -3.583  1.00  0.00     0.068 A 
HETATM   23  C   UNL     1      42.240 -11.900  -3.402  1.00  0.00     0.037 A 
HETATM   24 CL   UNL     1      42.511 -10.880  -4.760  1.00  0.00    -0.084 Cl
HETATM   25  C   UNL     1      42.570 -11.455  -2.124  1.00  0.00     0.026 A 
HETATM   26  C   UNL     1      42.353 -12.287  -1.020  1.00  0.00     0.034 A 
ENDBRANCH  16  19
ENDBRANCH   7  15
BRANCH   1  27
HETATM   27  O   UNL     1      45.392 -20.968   4.948  1.00  0.00    -0.356 OA
HETATM   28  C   UNL     1      44.934 -22.311   5.043  1.00  0.00     0.210 C 
ENDBRANCH   1  27
TORSDOF 3
ENDMDL
MODEL 2
REMARK VINA RESULT:      -8.8      8.900     10.898
REMARK  3 active torsions:
REMARK  status: ('A' for Active; 'I' for Inactive)
REMARK    1  A    between atoms: O_2  and  C_3 
REMARK    2  A    between atoms: C_9  and  C_10 
REMARK       I    between atoms: C_10  and  N_11 
REMARK    3  A    between atoms: N_11  and  C_12 
ROOT
HETATM    1  C   UNL     1      41.608  -8.559  12.565  1.00  0.00     0.068 A 
HETATM    2  C   UNL     1      41.465  -8.793  11.196  1.00  0.00     0.044 A 
HETATM    3  C   UNL     1      42.349  -9.644  10.519  1.00  0.00    -0.043 A 
HETATM    4  C   UNL     1      43.418 -10.240  11.228  1.00  0.00    -0.001 A 
HETATM    5  C   UNL     1      44.269 -11.144  10.474  1.00  0.00     0.069 A 
HETATM    6  C   UNL     1      43.979 -11.606   9.209  1.00  0.00     0.007 A 
HETATM    7  C   UNL     1      45.023 -12.504   8.879  1.00  0.00     0.153 A 
HETATM    8  N   UNL     1      45.931 -12.572   9.882  1.00  0.00    -0.168 NA
HETATM    9  N   UNL     1      45.449 -11.726  10.821  1.00  0.00    -0.276 N 
HETATM   10  H   UNL     1      45.976 -11.606  11.678  1.00  0.00     0.189 HD
HETATM   11  C   UNL     1      42.734 -11.209   8.498  1.00  0.00     0.048 C 
HETATM   12  C   UNL     1      42.209  -9.850   9.015  1.00  0.00     0.044 C 
HETATM   13  C   UNL     1      43.574  -9.984  12.592  1.00  0.00     0.017 A 
HETATM   14  C   UNL     1      42.669  -9.147  13.257  1.00  0.00     0.037 A 
ENDROOT
BRANCH   7  15
HETATM   15  C   UNL     1      45.148 -13.332   7.660  1.00  0.00     0.277 C 
HETATM   16  N   UNL     1      44.170 -14.307   7.606  1.00  0.00    -0.319 N 
HETATM   17  H   UNL     1      43.489 -14.217   8.357  1.00  0.00     0.169 HD
HETATM   18  O   UNL     1      45.991 -13.087   6.808  1.00  0.00    -0.266 OA
BRANCH  16  19
HETATM   19  C   UNL     1      43.928 -15.245   6.587  1.00  0.00     0.074 A 
HETATM   20  C   UNL     1      43.331 -14.967   5.350  1.00  0.00     0.144 A 
HETATM   21  F   UNL     1      43.030 -13.718   4.975  1.00  0.00    -0.204 F 
HETATM   22  C   UNL     1      43.095 -15.975   4.416  1.00  0.00     0.068 A 
HETATM   23  C   UNL     1      43.469 -17.281   4.706  1.00  0.00     0.037 A 
HETATM   24 CL   UNL     1      43.170 -18.532   3.564  1.00  0.00    -0.084 Cl
HETATM   25  C   UNL     1      44.093 -17.580   5.915  1.00  0.00     0.026 A 
HETATM   26  C   UNL     1      44.331 -16.563   6.846  1.00  0.00     0.034 A 
ENDBRANCH  16  19
ENDBRANCH   7  15
BRANCH   1  27
HETATM   27  O   UNL     1      40.661  -7.732  13.104  1.00  0.00    -0.356 OA
HETATM   28  C   UNL     1      39.302  -8.101  12.904  1.00  0.00     0.210 C 
ENDBRANCH   1  27
TORSDOF 3
ENDMDL
MODEL 3
REMARK VINA RESULT:      -8.7      1.892      2.121
REMARK  3 active torsions:
REMARK  status: ('A' for Active; 'I' for Inactive)
REMARK    1  A    between atoms: O_2  and  C_3 
REMARK    2  A    between atoms: C_9  and  C_10 
REMARK       I    between atoms: C_10  and  N_11 
REMARK    3  A    between atoms: N_11  and  C_12 
ROOT
HETATM    1  C   UNL     1      44.427 -20.254   4.775  1.00  0.00     0.068 A 
HETATM    2  C   UNL     1      44.391 -19.935   3.416  1.00  0.00     0.044 A 
HETATM    3  C   UNL     1      43.565 -18.907   2.943  1.00  0.00    -0.043 A 
HETATM    4  C   UNL     1      42.732 -18.214   3.852  1.00  0.00    -0.001 A 
HETATM    5  C   UNL     1      41.934 -17.132   3.301  1.00  0.00     0.069 A 
HETATM    6  C   UNL     1      42.094 -16.620   2.032  1.00  0.00     0.007 A 
HETATM    7  C   UNL     1      41.174 -15.549   1.930  1.00  0.00     0.153 A 
HETATM    8  N   UNL     1      40.457 -15.423   3.073  1.00  0.00    -0.168 NA
HETATM    9  N   UNL     1      40.934 -16.405   3.871  1.00  0.00    -0.276 N 
HETATM   10  H   UNL     1      40.535 -16.511   4.796  1.00  0.00     0.189 HD
HETATM   11  C   UNL     1      43.131 -17.144   1.102  1.00  0.00     0.048 C 
HETATM   12  C   UNL     1      43.500 -18.605   1.450  1.00  0.00     0.044 C 
HETATM   13  C   UNL     1      42.751 -18.551   5.207  1.00  0.00     0.017 A 
HETATM   14  C   UNL     1      43.599 -19.568   5.665  1.00  0.00     0.037 A 
ENDROOT
BRANCH   7  15
HETATM   15  C   UNL     1      40.998 -14.617   0.796  1.00  0.00     0.277 C 
HETATM   16  N   UNL     1      39.820 -14.861   0.116  1.00  0.00    -0.319 N 
HETATM   17  H   UNL     1      39.246 -15.566   0.573  1.00  0.00     0.169 HD
HETATM   18  O   UNL     1      41.798 -13.716   0.582  1.00  0.00    -0.266 OA
BRANCH  16  19
HETATM   19  C   UNL     1      39.280 -14.159  -0.976  1.00  0.00     0.074 A 
HETATM   20  C   UNL     1      39.713 -14.264  -2.305  1.00  0.00     0.144 A 
HETATM   21  F   UNL     1      40.637 -15.158  -2.680  1.00  0.00    -0.204 F 
HETATM   22  C   UNL     1      39.141 -13.494  -3.317  1.00  0.00     0.068 A 
HETATM   23  C   UNL     1      38.112 -12.612  -3.011  1.00  0.00     0.037 A 
HETATM   24 CL   UNL     1      37.410 -11.650  -4.251  1.00  0.00    -0.084 Cl
HETATM   25  C   UNL     1      37.641 -12.510  -1.704  1.00  0.00     0.026 A 
HETATM   26  C   UNL     1      38.216 -13.290  -0.694  1.00  0.00     0.034 A 
ENDBRANCH  16  19
ENDBRANCH   7  15
BRANCH   1  27
HETATM   27  O   UNL     1      45.298 -21.257   5.102  1.00  0.00    -0.356 OA
HETATM   28  C   UNL     1      44.880 -22.585   4.814  1.00  0.00     0.210 C 
ENDBRANCH   1  27
TORSDOF 3
ENDMDL
MODEL 4
REMARK VINA RESULT:      -8.6      3.859      4.722
REMARK  3 active torsions:
REMARK  status: ('A' for Active; 'I' for Inactive)
REMARK    1  A    between atoms: O_2  and  C_3 
REMARK    2  A    between atoms: C_9  and  C_10 
REMARK       I    between atoms: C_10  and  N_11 
REMARK    3  A    between atoms: N_11  and  C_12 
ROOT
HETATM    1  C   UNL     1      44.399 -21.481   3.395  1.00  0.00     0.068 A 
HETATM    2  C   UNL     1      44.473 -20.342   4.199  1.00  0.00     0.044 A 
HETATM    3  C   UNL     1      44.093 -19.088   3.701  1.00  0.00    -0.043 A 
HETATM    4  C   UNL     1      43.666 -18.976   2.357  1.00  0.00    -0.001 A 
HETATM    5  C   UNL     1      43.246 -17.655   1.921  1.00  0.00     0.069 A 
HETATM    6  C   UNL     1      43.043 -16.588   2.768  1.00  0.00     0.007 A 
HETATM    7  C   UNL     1      42.579 -15.530   1.949  1.00  0.00     0.153 A 
HETATM    8  N   UNL     1      42.527 -15.917   0.652  1.00  0.00    -0.168 NA
HETATM    9  N   UNL     1      42.950 -17.201   0.673  1.00  0.00    -0.276 N 
HETATM   10  H   UNL     1      43.001 -17.706  -0.204  1.00  0.00     0.189 HD
HETATM   11  C   UNL     1      43.236 -16.708   4.238  1.00  0.00     0.048 C 
HETATM   12  C   UNL     1      44.227 -17.847   4.576  1.00  0.00     0.044 C 
HETATM   13  C   UNL     1      43.617 -20.113   1.548  1.00  0.00     0.017 A 
HETATM   14  C   UNL     1      43.981 -21.361   2.068  1.00  0.00     0.037 A 
ENDROOT
BRANCH   7  15
HETATM   15  C   UNL     1      42.140 -14.185   2.378  1.00  0.00     0.277 C 
HETATM   16  N   UNL     1      40.767 -14.120   2.518  1.00  0.00    -0.319 N 
HETATM   17  H   UNL     1      40.320 -15.026   2.399  1.00  0.00     0.169 HD
HETATM   18  O   UNL     1      42.949 -13.302   2.629  1.00  0.00    -0.266 OA
BRANCH  16  19
HETATM   19  C   UNL     1      39.985 -13.036   2.957  1.00  0.00     0.074 A 
HETATM   20  C   UNL     1      39.680 -12.741   4.293  1.00  0.00     0.144 A 
HETATM   21  F   UNL     1      40.219 -13.426   5.309  1.00  0.00    -0.204 F 
HETATM   22  C   UNL     1      38.859 -11.664   4.628  1.00  0.00     0.068 A 
HETATM   23  C   UNL     1      38.342 -10.857   3.623  1.00  0.00     0.037 A 
HETATM   24 CL   UNL     1      37.320  -9.534   4.028  1.00  0.00    -0.084 Cl
HETATM   25  C   UNL     1      38.655 -11.108   2.290  1.00  0.00     0.026 A 
HETATM   26  C   UNL     1      39.482 -12.187   1.960  1.00  0.00     0.034 A 
ENDBRANCH  16  19
ENDBRANCH   7  15
BRANCH   1  27
HETATM   27  O   UNL     1      44.772 -22.641   4.015  1.00  0.00    -0.356 OA
HETATM   28  C   UNL     1      45.161 -22.541   5.380  1.00  0.00     0.210 C 
ENDBRANCH   1  27
TORSDOF 3
ENDMDL
MODEL 5
REMARK VINA RESULT:      -8.4      2.338      2.636
REMARK  3 active torsions:
REMARK  status: ('A' for Active; 'I' for Inactive)
REMARK    1  A    between atoms: O_2  and  C_3 
REMARK    2  A    between atoms: C_9  and  C_10 
REMARK       I    between atoms: C_10  and  N_11 
REMARK    3  A    between atoms: N_11  and  C_12 
ROOT
HETATM    1  C   UNL     1      44.449 -19.998   4.431  1.00  0.00     0.068 A 
HETATM    2  C   UNL     1      44.319 -19.598   3.099  1.00  0.00     0.044 A 
HETATM    3  C   UNL     1      43.427 -18.578   2.742  1.00  0.00    -0.043 A 
HETATM    4  C   UNL     1      42.624 -17.978   3.740  1.00  0.00    -0.001 A 
HETATM    5  C   UNL     1      41.754 -16.898   3.306  1.00  0.00     0.069 A 
HETATM    6  C   UNL     1      41.818 -16.303   2.065  1.00  0.00     0.007 A 
HETATM    7  C   UNL     1      40.853 -15.267   2.085  1.00  0.00     0.153 A 
HETATM    8  N   UNL     1      40.202 -15.242   3.273  1.00  0.00    -0.168 NA
HETATM    9  N   UNL     1      40.763 -16.251   3.978  1.00  0.00    -0.276 N 
HETATM   10  H   UNL     1      40.424 -16.430   4.916  1.00  0.00     0.189 HD
HETATM   11  C   UNL     1      42.816 -16.724   1.046  1.00  0.00     0.048 C 
HETATM   12  C   UNL     1      43.261 -18.187   1.278  1.00  0.00     0.044 C 
HETATM   13  C   UNL     1      42.737 -18.397   5.067  1.00  0.00     0.017 A 
HETATM   14  C   UNL     1      43.649 -19.403   5.409  1.00  0.00     0.037 A 
ENDROOT
BRANCH   7  15
HETATM   15  C   UNL     1      40.573 -14.275   1.025  1.00  0.00     0.277 C 
HETATM   16  N   UNL     1      39.458 -14.622   0.287  1.00  0.00    -0.319 N 
HETATM   17  H   UNL     1      38.979 -15.436   0.665  1.00  0.00     0.169 HD
HETATM   18  O   UNL     1      41.243 -13.257   0.914  1.00  0.00    -0.266 OA
BRANCH  16  19
HETATM   19  C   UNL     1      38.850 -13.910  -0.763  1.00  0.00     0.074 A 
HETATM   20  C   UNL     1      37.932 -12.862  -0.611  1.00  0.00     0.144 A 
HETATM   21  F   UNL     1      37.628 -12.357   0.591  1.00  0.00    -0.204 F 
HETATM   22  C   UNL     1      37.349 -12.242  -1.716  1.00  0.00     0.068 A 
HETATM   23  C   UNL     1      37.693 -12.657  -2.996  1.00  0.00     0.037 A 
HETATM   24 CL   UNL     1      36.970 -11.905  -4.364  1.00  0.00    -0.084 Cl
HETATM   25  C   UNL     1      38.627 -13.674  -3.177  1.00  0.00     0.026 A 
HETATM   26  C   UNL     1      39.211 -14.289  -2.064  1.00  0.00     0.034 A 
ENDBRANCH  16  19
ENDBRANCH   7  15
BRANCH   1  27
HETATM   27  O   UNL     1      45.375 -20.982   4.643  1.00  0.00    -0.356 OA
HETATM   28  C   UNL     1      44.880 -22.244   5.071  1.00  0.00     0.210 C 
ENDBRANCH   1  27
TORSDOF 3
ENDMDL
MODEL 6
REMARK VINA RESULT:      -8.4      3.653      4.476
REMARK  3 active torsions:
REMARK  status: ('A' for Active; 'I' for Inactive)
REMARK    1  A    between atoms: O_2  and  C_3 
REMARK    2  A    between atoms: C_9  and  C_10 
REMARK       I    between atoms: C_10  and  N_11 
REMARK    3  A    between atoms: N_11  and  C_12 
ROOT
HETATM    1  C   UNL     1      44.622 -20.418   3.988  1.00  0.00     0.068 A 
HETATM    2  C   UNL     1      43.990 -19.409   4.716  1.00  0.00     0.044 A 
HETATM    3  C   UNL     1      43.198 -18.449   4.071  1.00  0.00    -0.043 A 
HETATM    4  C   UNL     1      43.073 -18.486   2.663  1.00  0.00    -0.001 A 
HETATM    5  C   UNL     1      42.203 -17.488   2.065  1.00  0.00     0.069 A 
HETATM    6  C   UNL     1      41.354 -16.672   2.780  1.00  0.00     0.007 A 
HETATM    7  C   UNL     1      40.650 -15.910   1.817  1.00  0.00     0.153 A 
HETATM    8  N   UNL     1      41.066 -16.220   0.565  1.00  0.00    -0.168 NA
HETATM    9  N   UNL     1      42.013 -17.166   0.757  1.00  0.00    -0.276 N 
HETATM   10  H   UNL     1      42.480 -17.552  -0.056  1.00  0.00     0.189 HD
HETATM   11  C   UNL     1      41.254 -16.755   4.262  1.00  0.00     0.048 C 
HETATM   12  C   UNL     1      42.555 -17.325   4.875  1.00  0.00     0.044 C 
HETATM   13  C   UNL     1      43.727 -19.482   1.934  1.00  0.00     0.017 A 
HETATM   14  C   UNL     1      44.498 -20.445   2.598  1.00  0.00     0.037 A 
ENDROOT
BRANCH   7  15
HETATM   15  C   UNL     1      39.564 -14.937   2.056  1.00  0.00     0.277 C 
HETATM   16  N   UNL     1      40.043 -13.768   2.617  1.00  0.00    -0.319 N 
HETATM   17  H   UNL     1      41.059 -13.751   2.672  1.00  0.00     0.169 HD
HETATM   18  O   UNL     1      38.413 -15.170   1.712  1.00  0.00    -0.266 OA
BRANCH  16  19
HETATM   19  C   UNL     1      39.332 -12.598   2.938  1.00  0.00     0.074 A 
HETATM   20  C   UNL     1      38.633 -11.795   2.027  1.00  0.00     0.144 A 
HETATM   21  F   UNL     1      38.486 -12.145   0.743  1.00  0.00    -0.204 F 
HETATM   22  C   UNL     1      37.990 -10.627   2.435  1.00  0.00     0.068 A 
HETATM   23  C   UNL     1      38.027 -10.254   3.773  1.00  0.00     0.037 A 
HETATM   24 CL   UNL     1      37.246  -8.809   4.281  1.00  0.00    -0.084 Cl
HETATM   25  C   UNL     1      38.686 -11.051   4.705  1.00  0.00     0.026 A 
HETATM   26  C   UNL     1      39.326 -12.224   4.290  1.00  0.00     0.034 A 
ENDBRANCH  16  19
ENDBRANCH   7  15
BRANCH   1  27
HETATM   27  O   UNL     1      45.339 -21.304   4.745  1.00  0.00    -0.356 OA
HETATM   28  C   UNL     1      44.853 -22.639   4.798  1.00  0.00     0.210 C 
ENDBRANCH   1  27
TORSDOF 3
ENDMDL
MODEL 7
REMARK VINA RESULT:      -8.2      3.972      8.803
REMARK  3 active torsions:
REMARK  status: ('A' for Active; 'I' for Inactive)
REMARK    1  A    between atoms: O_2  and  C_3 
REMARK    2  A    between atoms: C_9  and  C_10 
REMARK       I    between atoms: C_10  and  N_11 
REMARK    3  A    between atoms: N_11  and  C_12 
ROOT
HETATM    1  C   UNL     1      42.542  -9.742  -1.381  1.00  0.00     0.068 A 
HETATM    2  C   UNL     1      42.374 -10.260  -0.096  1.00  0.00     0.044 A 
HETATM    3  C   UNL     1      42.109 -11.622   0.098  1.00  0.00    -0.043 A 
HETATM    4  C   UNL     1      41.974 -12.469  -1.027  1.00  0.00    -0.001 A 
HETATM    5  C   UNL     1      41.744 -13.877  -0.752  1.00  0.00     0.069 A 
HETATM    6  C   UNL     1      41.857 -14.451   0.495  1.00  0.00     0.007 A 
HETATM    7  C   UNL     1      41.619 -15.834   0.306  1.00  0.00     0.153 A 
HETATM    8  N   UNL     1      41.342 -16.097  -0.994  1.00  0.00    -0.168 NA
HETATM    9  N   UNL     1      41.412 -14.890  -1.598  1.00  0.00    -0.276 N 
HETATM   10  H   UNL     1      41.232 -14.837  -2.594  1.00  0.00     0.189 HD
HETATM   11  C   UNL     1      42.243 -13.654   1.691  1.00  0.00     0.048 C 
HETATM   12  C   UNL     1      41.879 -12.163   1.504  1.00  0.00     0.044 C 
HETATM   13  C   UNL     1      42.118 -11.944  -2.313  1.00  0.00     0.017 A 
HETATM   14  C   UNL     1      42.403 -10.583  -2.487  1.00  0.00     0.037 A 
ENDROOT
BRANCH   7  15
HETATM   15  C   UNL     1      41.699 -16.909   1.317  1.00  0.00     0.277 C 
HETATM   16  N   UNL     1      42.986 -17.398   1.438  1.00  0.00    -0.319 N 
HETATM   17  H   UNL     1      43.657 -16.868   0.886  1.00  0.00     0.169 HD
HETATM   18  O   UNL     1      40.723 -17.231   1.982  1.00  0.00    -0.266 OA
BRANCH  16  19
HETATM   19  C   UNL     1      43.468 -18.378   2.324  1.00  0.00     0.074 A 
HETATM   20  C   UNL     1      43.850 -18.156   3.654  1.00  0.00     0.144 A 
HETATM   21  F   UNL     1      43.679 -16.969   4.250  1.00  0.00    -0.204 F 
HETATM   22  C   UNL     1      44.356 -19.186   4.445  1.00  0.00     0.068 A 
HETATM   23  C   UNL     1      44.473 -20.465   3.914  1.00  0.00     0.037 A 
HETATM   24 CL   UNL     1      45.107 -21.739   4.880  1.00  0.00    -0.084 Cl
HETATM   25  C   UNL     1      44.070 -20.721   2.606  1.00  0.00     0.026 A 
HETATM   26  C   UNL     1      43.559 -19.683   1.819  1.00  0.00     0.034 A 
ENDBRANCH  16  19
ENDBRANCH   7  15
BRANCH   1  27
HETATM   27  O   UNL     1      42.824  -8.404  -1.424  1.00  0.00    -0.356 OA
HETATM   28  C   UNL     1      44.116  -8.008  -0.981  1.00  0.00     0.210 C 
ENDBRANCH   1  27
TORSDOF 3
ENDMDL
MODEL 8
REMARK VINA RESULT:      -8.0      2.746      3.491
REMARK  3 active torsions:
REMARK  status: ('A' for Active; 'I' for Inactive)
REMARK    1  A    between atoms: O_2  and  C_3 
REMARK    2  A    between atoms: C_9  and  C_10 
REMARK       I    between atoms: C_10  and  N_11 
REMARK    3  A    between atoms: N_11  and  C_12 
ROOT
HETATM    1  C   UNL     1      44.425 -20.231   4.495  1.00  0.00     0.068 A 
HETATM    2  C   UNL     1      43.959 -18.999   4.958  1.00  0.00     0.044 A 
HETATM    3  C   UNL     1      43.461 -18.041   4.066  1.00  0.00    -0.043 A 
HETATM    4  C   UNL     1      43.469 -18.315   2.678  1.00  0.00    -0.001 A 
HETATM    5  C   UNL     1      42.899 -17.295   1.815  1.00  0.00     0.069 A 
HETATM    6  C   UNL     1      42.182 -16.209   2.267  1.00  0.00     0.007 A 
HETATM    7  C   UNL     1      41.758 -15.518   1.106  1.00  0.00     0.153 A 
HETATM    8  N   UNL     1      42.216 -16.132  -0.011  1.00  0.00    -0.168 NA
HETATM    9  N   UNL     1      42.912 -17.192   0.457  1.00  0.00    -0.276 N 
HETATM   10  H   UNL     1      43.361 -17.808  -0.211  1.00  0.00     0.189 HD
HETATM   11  C   UNL     1      41.922 -15.993   3.715  1.00  0.00     0.048 C 
HETATM   12  C   UNL     1      43.002 -16.682   4.582  1.00  0.00     0.044 C 
HETATM   13  C   UNL     1      43.959 -19.538   2.215  1.00  0.00     0.017 A 
HETATM   14  C   UNL     1      44.434 -20.493   3.124  1.00  0.00     0.037 A 
ENDROOT
BRANCH   7  15
HETATM   15  C   UNL     1      40.890 -14.323   1.036  1.00  0.00     0.277 C 
HETATM   16  N   UNL     1      39.866 -14.492   0.123  1.00  0.00    -0.319 N 
HETATM   17  H   UNL     1      39.838 -15.434  -0.259  1.00  0.00     0.169 HD
HETATM   18  O   UNL     1      41.067 -13.363   1.774  1.00  0.00    -0.266 OA
BRANCH  16  19
HETATM   19  C   UNL     1      38.816 -13.609  -0.185  1.00  0.00     0.074 A 
HETATM   20  C   UNL     1      38.645 -12.942  -1.406  1.00  0.00     0.144 A 
HETATM   21  F   UNL     1      39.435 -13.183  -2.460  1.00  0.00    -0.204 F 
HETATM   22  C   UNL     1      37.591 -12.050  -1.603  1.00  0.00     0.068 A 
HETATM   23  C   UNL     1      36.681 -11.825  -0.579  1.00  0.00     0.037 A 
HETATM   24 CL   UNL     1      35.386 -10.718  -0.811  1.00  0.00    -0.084 Cl
HETATM   25  C   UNL     1      36.808 -12.498   0.634  1.00  0.00     0.026 A 
HETATM   26  C   UNL     1      37.866 -13.395   0.825  1.00  0.00     0.034 A 
ENDBRANCH  16  19
ENDBRANCH   7  15
BRANCH   1  27
HETATM   27  O   UNL     1      44.855 -21.082   5.476  1.00  0.00    -0.356 OA
HETATM   28  C   UNL     1      45.164 -22.412   5.077  1.00  0.00     0.210 C 
ENDBRANCH   1  27
TORSDOF 3
ENDMDL
MODEL 9
REMARK VINA RESULT:      -8.0      1.976      2.550
REMARK  3 active torsions:
REMARK  status: ('A' for Active; 'I' for Inactive)
REMARK    1  A    between atoms: O_2  and  C_3 
REMARK    2  A    between atoms: C_9  and  C_10 
REMARK       I    between atoms: C_10  and  N_11 
REMARK    3  A    between atoms: N_11  and  C_12 
ROOT
HETATM    1  C   UNL     1      43.440 -17.460   6.046  1.00  0.00     0.068 A 
HETATM    2  C   UNL     1      43.579 -16.178   5.512  1.00  0.00     0.044 A 
HETATM    3  C   UNL     1      43.159 -15.898   4.205  1.00  0.00    -0.043 A 
HETATM    4  C   UNL     1      42.623 -16.938   3.410  1.00  0.00    -0.001 A 
HETATM    5  C   UNL     1      42.168 -16.566   2.082  1.00  0.00     0.069 A 
HETATM    6  C   UNL     1      42.035 -15.267   1.643  1.00  0.00     0.007 A 
HETATM    7  C   UNL     1      41.505 -15.356   0.333  1.00  0.00     0.153 A 
HETATM    8  N   UNL     1      41.346 -16.650  -0.032  1.00  0.00    -0.168 NA
HETATM    9  N   UNL     1      41.770 -17.351   1.043  1.00  0.00    -0.276 N 
HETATM   10  H   UNL     1      41.749 -18.364   0.998  1.00  0.00     0.189 HD
HETATM   11  C   UNL     1      42.348 -14.109   2.523  1.00  0.00     0.048 C 
HETATM   12  C   UNL     1      43.364 -14.505   3.620  1.00  0.00     0.044 C 
HETATM   13  C   UNL     1      42.508 -18.225   3.938  1.00  0.00     0.017 A 
HETATM   14  C   UNL     1      42.914 -18.483   5.254  1.00  0.00     0.037 A 
ENDROOT
BRANCH   7  15
HETATM   15  C   UNL     1      41.102 -14.243  -0.553  1.00  0.00     0.277 C 
HETATM   16  N   UNL     1      42.196 -13.660  -1.164  1.00  0.00    -0.319 N 
HETATM   17  H   UNL     1      43.061 -14.160  -0.973  1.00  0.00     0.169 HD
HETATM   18  O   UNL     1      39.924 -13.968  -0.734  1.00  0.00    -0.266 OA
BRANCH  16  19
HETATM   19  C   UNL     1      42.215 -12.617  -2.109  1.00  0.00     0.074 A 
HETATM   20  C   UNL     1      41.752 -12.706  -3.428  1.00  0.00     0.144 A 
HETATM   21  F   UNL     1      41.126 -13.797  -3.886  1.00  0.00    -0.204 F 
HETATM   22  C   UNL     1      41.851 -11.627  -4.305  1.00  0.00     0.068 A 
HETATM   23  C   UNL     1      42.407 -10.432  -3.865  1.00  0.00     0.037 A 
HETATM   24 CL   UNL     1      42.543  -9.101  -4.944  1.00  0.00    -0.084 Cl
HETATM   25  C   UNL     1      42.846 -10.306  -2.549  1.00  0.00     0.026 A 
HETATM   26  C   UNL     1      42.740 -11.392  -1.672  1.00  0.00     0.034 A 
ENDBRANCH  16  19
ENDBRANCH   7  15
BRANCH   1  27
HETATM   27  O   UNL     1      43.864 -17.588   7.340  1.00  0.00    -0.356 OA
HETATM   28  C   UNL     1      43.971 -18.912   7.850  1.00  0.00     0.210 C 
ENDBRANCH   1  27
TORSDOF 3
ENDMDL
MODEL 10
REMARK VINA RESULT:      -8.0      5.500      8.248
REMARK  3 active torsions:
REMARK  status: ('A' for Active; 'I' for Inactive)
REMARK    1  A    between atoms: O_2  and  C_3 
REMARK    2  A    between atoms: C_9  and  C_10 
REMARK       I    between atoms: C_10  and  N_11 
REMARK    3  A    between atoms: N_11  and  C_12 
ROOT
HETATM    1  C   UNL     1      39.680 -11.005   7.370  1.00  0.00     0.068 A 
HETATM    2  C   UNL     1      39.405 -12.335   7.047  1.00  0.00     0.044 A 
HETATM    3  C   UNL     1      40.061 -12.964   5.980  1.00  0.00    -0.043 A 
HETATM    4  C   UNL     1      40.983 -12.226   5.202  1.00  0.00    -0.001 A 
HETATM    5  C   UNL     1      41.658 -12.951   4.140  1.00  0.00     0.069 A 
HETATM    6  C   UNL     1      41.615 -14.320   3.987  1.00  0.00     0.007 A 
HETATM    7  C   UNL     1      42.454 -14.611   2.885  1.00  0.00     0.153 A 
HETATM    8  N   UNL     1      42.969 -13.473   2.361  1.00  0.00    -0.168 NA
HETATM    9  N   UNL     1      42.455 -12.491   3.136  1.00  0.00    -0.276 N 
HETATM   10  H   UNL     1      42.701 -11.531   2.925  1.00  0.00     0.189 HD
HETATM   11  C   UNL     1      40.858 -15.188   4.929  1.00  0.00     0.048 C 
HETATM   12  C   UNL     1      39.713 -14.401   5.610  1.00  0.00     0.044 C 
HETATM   13  C   UNL     1      41.238 -10.888   5.511  1.00  0.00     0.017 A 
HETATM   14  C   UNL     1      40.588 -10.282   6.594  1.00  0.00     0.037 A 
ENDROOT
BRANCH   7  15
HETATM   15  C   UNL     1      42.814 -15.943   2.354  1.00  0.00     0.277 C 
HETATM   16  N   UNL     1      43.223 -16.797   3.360  1.00  0.00    -0.319 N 
HETATM   17  H   UNL     1      43.110 -16.390   4.286  1.00  0.00     0.169 HD
HETATM   18  O   UNL     1      42.676 -16.214   1.169  1.00  0.00    -0.266 OA
BRANCH  16  19
HETATM   19  C   UNL     1      43.592 -18.151   3.260  1.00  0.00     0.074 A 
HETATM   20  C   UNL     1      44.412 -18.840   4.164  1.00  0.00     0.144 A 
HETATM   21  F   UNL     1      44.842 -18.276   5.300  1.00  0.00    -0.204 F 
HETATM   22  C   UNL     1      44.756 -20.175   3.958  1.00  0.00     0.068 A 
HETATM   23  C   UNL     1      44.268 -20.846   2.845  1.00  0.00     0.037 A 
HETATM   24 CL   UNL     1      44.697 -22.490   2.578  1.00  0.00    -0.084 Cl
HETATM   25  C   UNL     1      43.424 -20.196   1.948  1.00  0.00     0.026 A 
HETATM   26  C   UNL     1      43.079 -18.857   2.162  1.00  0.00     0.034 A 
ENDBRANCH  16  19
ENDBRANCH   7  15
BRANCH   1  27
HETATM   27  O   UNL     1      38.991 -10.526   8.450  1.00  0.00    -0.356 OA
HETATM   28  C   UNL     1      39.635 -10.625   9.714  1.00  0.00     0.210 C 
ENDBRANCH   1  27
TORSDOF 3
ENDMDL
