MODEL 1
REMARK VINA RESULT:      -9.0      0.000      0.000
REMARK  5 active torsions:
REMARK  status: ('A' for Active; 'I' for Inactive)
REMARK    1  A    between atoms: C_6  and  N_7 
REMARK       I    between atoms: N_7  and  C_8 
REMARK    2  A    between atoms: C_8  and  C_9 
REMARK    3  A    between atoms: C_9  and  C_10 
REMARK    4  A    between atoms: C_12  and  N_13 
REMARK       I    between atoms: N_13  and  C_14 
REMARK       I    between atoms: C_14  and  N_15 
REMARK    5  A    between atoms: N_15  and  C_16 
ROOT
HETATM    1  C   UNL     1      41.636 -14.361   0.372  1.00  0.00     0.052 A 
HETATM    2  N   UNL     1      41.694 -14.186   1.754  1.00  0.00    -0.228 NA
HETATM    3  C   UNL     1      41.843 -12.910   2.024  1.00  0.00     0.174 A 
HETATM    4  S   UNL     1      41.918 -11.846   0.699  1.00  0.00    -0.062 SA
HETATM    5  C   UNL     1      41.747 -13.186  -0.355  1.00  0.00     0.081 A 
ENDROOT
BRANCH   1   6
HETATM    6  C   UNL     1      41.492 -15.726  -0.230  1.00  0.00     0.163 C 
BRANCH   6   7
HETATM    7  C   UNL     1      41.697 -16.938   0.669  1.00  0.00     0.227 C 
HETATM    8  N   UNL     1      42.978 -17.145   1.139  1.00  0.00    -0.327 N 
HETATM    9  H   UNL     1      43.705 -16.585   0.702  1.00  0.00     0.169 HD
HETATM   10  O   UNL     1      40.714 -17.616   0.972  1.00  0.00    -0.273 OA
BRANCH   8  11
HETATM   11  C   UNL     1      43.421 -18.148   2.027  1.00  0.00     0.036 A 
HETATM   12  C   UNL     1      43.618 -19.481   1.669  1.00  0.00     0.053 A 
HETATM   13  C   UNL     1      44.100 -20.405   2.606  1.00  0.00     0.042 A 
HETATM   14  C   UNL     1      44.396 -20.012   3.919  1.00  0.00    -0.040 A 
HETATM   15 CL   UNL     1      44.324 -22.040   2.087  1.00  0.00    -0.084 Cl
HETATM   16  C   UNL     1      44.936 -20.978   4.937  1.00  0.00     0.050 C 
HETATM   17  C   UNL     1      44.173 -18.678   4.279  1.00  0.00     0.011 A 
HETATM   18  C   UNL     1      43.683 -17.760   3.345  1.00  0.00     0.030 A 
ENDBRANCH   8  11
ENDBRANCH   6   7
ENDBRANCH   1   6
BRANCH   3  19
HETATM   19  N   UNL     1      41.929 -12.306   3.240  1.00  0.00    -0.287 N 
HETATM   20  C   UNL     1      42.155 -12.911   4.443  1.00  0.00     0.326 C 
HETATM   21  N   UNL     1      42.457 -14.246   4.420  1.00  0.00    -0.309 N 
HETATM   22  O   UNL     1      42.078 -12.208   5.448  1.00  0.00    -0.247 OA
HETATM   23  H   UNL     1      42.635 -14.634   3.498  1.00  0.00     0.170 HD
HETATM   24  H   UNL     1      41.754 -11.314   3.288  1.00  0.00     0.172 HD
BRANCH  21  25
HETATM   25  C   UNL     1      42.640 -15.111   5.518  1.00  0.00     0.036 A 
HETATM   26  C   UNL     1      41.695 -16.057   5.926  1.00  0.00     0.032 A 
HETATM   27  C   UNL     1      41.968 -16.912   7.000  1.00  0.00     0.044 A 
HETATM   28  C   UNL     1      43.184 -16.817   7.663  1.00  0.00     0.116 A 
HETATM   29  F   UNL     1      43.446 -17.644   8.683  1.00  0.00    -0.206 F 
HETATM   30  C   UNL     1      44.133 -15.881   7.276  1.00  0.00     0.044 A 
HETATM   31  C   UNL     1      43.860 -15.027   6.205  1.00  0.00     0.032 A 
ENDBRANCH  21  25
ENDBRANCH   3  19
TORSDOF 5
ENDMDL
MODEL 2
REMARK VINA RESULT:      -8.3      5.383      8.809
REMARK  5 active torsions:
REMARK  status: ('A' for Active; 'I' for Inactive)
REMARK    1  A    between atoms: C_6  and  N_7 
REMARK       I    between atoms: N_7  and  C_8 
REMARK    2  A    between atoms: C_8  and  C_9 
REMARK    3  A    between atoms: C_9  and  C_10 
REMARK    4  A    between atoms: C_12  and  N_13 
REMARK       I    between atoms: N_13  and  C_14 
REMARK       I    between atoms: C_14  and  N_15 
REMARK    5  A    between atoms: N_15  and  C_16 
ROOT
HETATM    1  C   UNL     1      44.178 -13.983   6.347  1.00  0.00     0.052 A 
HETATM    2  N   UNL     1      43.583 -15.218   6.598  1.00  0.00    -0.228 NA
HETATM    3  C   UNL     1      42.491 -15.329   5.878  1.00  0.00     0.174 A 
HETATM    4  S   UNL     1      42.096 -14.016   4.871  1.00  0.00    -0.062 SA
HETATM    5  C   UNL     1      43.494 -13.198   5.431  1.00  0.00     0.081 A 
ENDROOT
BRANCH   1   6
HETATM    6  C   UNL     1      45.435 -13.571   7.051  1.00  0.00     0.163 C 
BRANCH   6   7
HETATM    7  C   UNL     1      45.321 -12.633   8.245  1.00  0.00     0.227 C 
HETATM    8  N   UNL     1      44.085 -12.563   8.856  1.00  0.00    -0.327 N 
HETATM    9  H   UNL     1      43.317 -12.997   8.350  1.00  0.00     0.169 HD
HETATM   10  O   UNL     1      46.335 -12.050   8.631  1.00  0.00    -0.273 OA
BRANCH   8  11
HETATM   11  C   UNL     1      43.729 -11.825  10.005  1.00  0.00     0.036 A 
HETATM   12  C   UNL     1      43.067 -10.599   9.975  1.00  0.00     0.053 A 
HETATM   13  C   UNL     1      42.714  -9.953  11.168  1.00  0.00     0.042 A 
HETATM   14  C   UNL     1      43.017 -10.522  12.413  1.00  0.00    -0.040 A 
HETATM   15 CL   UNL     1      41.890  -8.437  11.051  1.00  0.00    -0.084 Cl
HETATM   16  C   UNL     1      42.630  -9.861  13.706  1.00  0.00     0.050 C 
HETATM   17  C   UNL     1      43.704 -11.741  12.436  1.00  0.00     0.011 A 
HETATM   18  C   UNL     1      44.062 -12.380  11.245  1.00  0.00     0.030 A 
ENDBRANCH   8  11
ENDBRANCH   6   7
ENDBRANCH   1   6
BRANCH   3  19
HETATM   19  N   UNL     1      41.622 -16.375   5.812  1.00  0.00    -0.287 N 
HETATM   20  C   UNL     1      41.827 -17.572   5.190  1.00  0.00     0.326 C 
HETATM   21  N   UNL     1      43.079 -17.808   4.691  1.00  0.00    -0.309 N 
HETATM   22  O   UNL     1      40.873 -18.347   5.137  1.00  0.00    -0.247 OA
HETATM   23  H   UNL     1      43.787 -17.132   4.960  1.00  0.00     0.170 HD
HETATM   24  H   UNL     1      40.703 -16.251   6.208  1.00  0.00     0.172 HD
BRANCH  21  25
HETATM   25  C   UNL     1      43.515 -18.914   3.934  1.00  0.00     0.036 A 
HETATM   26  C   UNL     1      44.358 -19.912   4.432  1.00  0.00     0.032 A 
HETATM   27  C   UNL     1      44.710 -21.005   3.631  1.00  0.00     0.044 A 
HETATM   28  C   UNL     1      44.220 -21.096   2.336  1.00  0.00     0.116 A 
HETATM   29  F   UNL     1      44.551 -22.148   1.577  1.00  0.00    -0.206 F 
HETATM   30  C   UNL     1      43.385 -20.113   1.821  1.00  0.00     0.044 A 
HETATM   31  C   UNL     1      43.034 -19.022   2.620  1.00  0.00     0.032 A 
ENDBRANCH  21  25
ENDBRANCH   3  19
TORSDOF 5
ENDMDL
MODEL 3
REMARK VINA RESULT:      -8.2      3.547      6.038
REMARK  5 active torsions:
REMARK  status: ('A' for Active; 'I' for Inactive)
REMARK    1  A    between atoms: C_6  and  N_7 
REMARK       I    between atoms: N_7  and  C_8 
REMARK    2  A    between atoms: C_8  and  C_9 
REMARK    3  A    between atoms: C_9  and  C_10 
REMARK    4  A    between atoms: C_12  and  N_13 
REMARK       I    between atoms: N_13  and  C_14 
REMARK       I    between atoms: C_14  and  N_15 
REMARK    5  A    between atoms: N_15  and  C_16 
ROOT
HETATM    1  C   UNL     1      41.454 -13.982   4.402  1.00  0.00     0.052 A 
HETATM    2  N   UNL     1      42.223 -13.792   3.254  1.00  0.00    -0.228 NA
HETATM    3  C   UNL     1      41.726 -12.796   2.558  1.00  0.00     0.174 A 
HETATM    4  S   UNL     1      40.349 -12.025   3.192  1.00  0.00    -0.062 SA
HETATM    5  C   UNL     1      40.387 -13.104   4.523  1.00  0.00     0.081 A 
ENDROOT
BRANCH   1   6
HETATM    6  C   UNL     1      41.776 -15.071   5.379  1.00  0.00     0.163 C 
BRANCH   6   7
HETATM    7  C   UNL     1      41.897 -16.497   4.857  1.00  0.00     0.227 C 
HETATM    8  N   UNL     1      43.075 -16.819   4.214  1.00  0.00    -0.327 N 
HETATM    9  H   UNL     1      43.680 -16.035   3.982  1.00  0.00     0.169 HD
HETATM   10  O   UNL     1      40.980 -17.286   5.091  1.00  0.00    -0.273 OA
BRANCH   8  11
HETATM   11  C   UNL     1      43.463 -18.072   3.696  1.00  0.00     0.036 A 
HETATM   12  C   UNL     1      44.071 -19.077   4.447  1.00  0.00     0.053 A 
HETATM   13  C   UNL     1      44.387 -20.310   3.861  1.00  0.00     0.042 A 
HETATM   14  C   UNL     1      44.099 -20.562   2.513  1.00  0.00    -0.040 A 
HETATM   15 CL   UNL     1      45.135 -21.509   4.858  1.00  0.00    -0.084 Cl
HETATM   16  C   UNL     1      44.407 -21.884   1.866  1.00  0.00     0.050 C 
HETATM   17  C   UNL     1      43.511 -19.541   1.757  1.00  0.00     0.011 A 
HETATM   18  C   UNL     1      43.205 -18.308   2.341  1.00  0.00     0.030 A 
ENDBRANCH   8  11
ENDBRANCH   6   7
ENDBRANCH   1   6
BRANCH   3  19
HETATM   19  N   UNL     1      42.177 -12.275   1.385  1.00  0.00    -0.287 N 
HETATM   20  C   UNL     1      41.816 -12.655   0.125  1.00  0.00     0.326 C 
HETATM   21  N   UNL     1      40.800 -13.565   0.018  1.00  0.00    -0.309 N 
HETATM   22  O   UNL     1      42.427 -12.144  -0.812  1.00  0.00    -0.247 OA
HETATM   23  H   UNL     1      40.303 -13.763   0.880  1.00  0.00     0.170 HD
HETATM   24  H   UNL     1      42.898 -11.570   1.428  1.00  0.00     0.172 HD
BRANCH  21  25
HETATM   25  C   UNL     1      40.309 -14.181  -1.152  1.00  0.00     0.036 A 
HETATM   26  C   UNL     1      39.141 -13.782  -1.808  1.00  0.00     0.032 A 
HETATM   27  C   UNL     1      38.743 -14.414  -2.991  1.00  0.00     0.044 A 
HETATM   28  C   UNL     1      39.514 -15.444  -3.515  1.00  0.00     0.116 A 
HETATM   29  F   UNL     1      39.136 -16.039  -4.653  1.00  0.00    -0.206 F 
HETATM   30  C   UNL     1      40.675 -15.857  -2.876  1.00  0.00     0.044 A 
HETATM   31  C   UNL     1      41.071 -15.226  -1.694  1.00  0.00     0.032 A 
ENDBRANCH  21  25
ENDBRANCH   3  19
TORSDOF 5
ENDMDL
MODEL 4
REMARK VINA RESULT:      -8.1      4.015      4.866
REMARK  5 active torsions:
REMARK  status: ('A' for Active; 'I' for Inactive)
REMARK    1  A    between atoms: C_6  and  N_7 
REMARK       I    between atoms: N_7  and  C_8 
REMARK    2  A    between atoms: C_8  and  C_9 
REMARK    3  A    between atoms: C_9  and  C_10 
REMARK    4  A    between atoms: C_12  and  N_13 
REMARK       I    between atoms: N_13  and  C_14 
REMARK       I    between atoms: C_14  and  N_15 
REMARK    5  A    between atoms: N_15  and  C_16 
ROOT
HETATM    1  C   UNL     1      41.905 -14.609   5.584  1.00  0.00     0.052 A 
HETATM    2  N   UNL     1      41.575 -13.462   6.304  1.00  0.00    -0.228 NA
HETATM    3  C   UNL     1      41.643 -12.417   5.513  1.00  0.00     0.174 A 
HETATM    4  S   UNL     1      42.087 -12.705   3.896  1.00  0.00    -0.062 SA
HETATM    5  C   UNL     1      42.216 -14.375   4.254  1.00  0.00     0.081 A 
ENDROOT
BRANCH   1   6
HETATM    6  C   UNL     1      41.933 -15.956   6.243  1.00  0.00     0.163 C 
BRANCH   6   7
HETATM    7  C   UNL     1      42.050 -17.190   5.359  1.00  0.00     0.227 C 
HETATM    8  N   UNL     1      43.330 -17.616   5.064  1.00  0.00    -0.327 N 
HETATM    9  H   UNL     1      44.077 -16.971   5.306  1.00  0.00     0.169 HD
HETATM   10  O   UNL     1      41.016 -17.765   5.015  1.00  0.00    -0.273 OA
BRANCH   8  11
HETATM   11  C   UNL     1      43.713 -18.755   4.325  1.00  0.00     0.036 A 
HETATM   12  C   UNL     1      44.255 -19.909   4.888  1.00  0.00     0.053 A 
HETATM   13  C   UNL     1      44.571 -21.012   4.083  1.00  0.00     0.042 A 
HETATM   14  C   UNL     1      44.348 -20.982   2.700  1.00  0.00    -0.040 A 
HETATM   15 CL   UNL     1      45.236 -22.411   4.855  1.00  0.00    -0.084 Cl
HETATM   16  C   UNL     1      44.656 -22.159   1.817  1.00  0.00     0.050 C 
HETATM   17  C   UNL     1      43.827 -19.812   2.136  1.00  0.00     0.011 A 
HETATM   18  C   UNL     1      43.521 -18.709   2.940  1.00  0.00     0.030 A 
ENDBRANCH   8  11
ENDBRANCH   6   7
ENDBRANCH   1   6
BRANCH   3  19
HETATM   19  N   UNL     1      41.387 -11.114   5.807  1.00  0.00    -0.287 N 
HETATM   20  C   UNL     1      41.671 -10.464   6.973  1.00  0.00     0.326 C 
HETATM   21  N   UNL     1      42.407 -11.149   7.902  1.00  0.00    -0.309 N 
HETATM   22  O   UNL     1      41.252  -9.315   7.091  1.00  0.00    -0.247 OA
HETATM   23  H   UNL     1      42.804 -12.026   7.580  1.00  0.00     0.170 HD
HETATM   24  H   UNL     1      40.883 -10.566   5.125  1.00  0.00     0.172 HD
BRANCH  21  25
HETATM   25  C   UNL     1      42.748 -10.740   9.207  1.00  0.00     0.036 A 
HETATM   26  C   UNL     1      41.859 -10.107  10.081  1.00  0.00     0.032 A 
HETATM   27  C   UNL     1      42.260  -9.771  11.378  1.00  0.00     0.044 A 
HETATM   28  C   UNL     1      43.549 -10.068  11.799  1.00  0.00     0.116 A 
HETATM   29  F   UNL     1      43.926  -9.755  13.046  1.00  0.00    -0.206 F 
HETATM   30  C   UNL     1      44.449 -10.691  10.946  1.00  0.00     0.044 A 
HETATM   31  C   UNL     1      44.048 -11.026   9.650  1.00  0.00     0.032 A 
ENDBRANCH  21  25
ENDBRANCH   3  19
TORSDOF 5
ENDMDL
MODEL 5
REMARK VINA RESULT:      -8.0      3.846      6.054
REMARK  5 active torsions:
REMARK  status: ('A' for Active; 'I' for Inactive)
REMARK    1  A    between atoms: C_6  and  N_7 
REMARK       I    between atoms: N_7  and  C_8 
REMARK    2  A    between atoms: C_8  and  C_9 
REMARK    3  A    between atoms: C_9  and  C_10 
REMARK    4  A    between atoms: C_12  and  N_13 
REMARK       I    between atoms: N_13  and  C_14 
REMARK       I    between atoms: C_14  and  N_15 
REMARK    5  A    between atoms: N_15  and  C_16 
ROOT
HETATM    1  C   UNL     1      44.160 -19.873   3.588  1.00  0.00     0.052 A 
HETATM    2  N   UNL     1      43.814 -18.902   4.526  1.00  0.00    -0.228 NA
HETATM    3  C   UNL     1      43.950 -19.397   5.734  1.00  0.00     0.174 A 
HETATM    4  S   UNL     1      44.490 -21.006   5.850  1.00  0.00    -0.062 SA
HETATM    5  C   UNL     1      44.550 -21.083   4.140  1.00  0.00     0.081 A 
ENDROOT
BRANCH   1   6
HETATM    6  C   UNL     1      44.077 -19.594   2.117  1.00  0.00     0.163 C 
BRANCH   6   7
HETATM    7  C   UNL     1      43.384 -18.317   1.662  1.00  0.00     0.227 C 
HETATM    8  N   UNL     1      42.416 -17.809   2.505  1.00  0.00    -0.327 N 
HETATM    9  H   UNL     1      42.121 -18.423   3.260  1.00  0.00     0.169 HD
HETATM   10  O   UNL     1      43.763 -17.784   0.618  1.00  0.00    -0.273 OA
BRANCH   8  11
HETATM   11  C   UNL     1      41.673 -16.619   2.351  1.00  0.00     0.036 A 
HETATM   12  C   UNL     1      42.227 -15.340   2.381  1.00  0.00     0.053 A 
HETATM   13  C   UNL     1      41.421 -14.212   2.179  1.00  0.00     0.042 A 
HETATM   14  C   UNL     1      40.046 -14.342   1.940  1.00  0.00    -0.040 A 
HETATM   15 CL   UNL     1      42.180 -12.658   2.226  1.00  0.00    -0.084 Cl
HETATM   16  C   UNL     1      39.163 -13.150   1.697  1.00  0.00     0.050 C 
HETATM   17  C   UNL     1      39.491 -15.627   1.935  1.00  0.00     0.011 A 
HETATM   18  C   UNL     1      40.296 -16.751   2.147  1.00  0.00     0.030 A 
ENDBRANCH   8  11
ENDBRANCH   6   7
ENDBRANCH   1   6
BRANCH   3  19
HETATM   19  N   UNL     1      43.732 -18.785   6.930  1.00  0.00    -0.287 N 
HETATM   20  C   UNL     1      43.172 -17.557   7.133  1.00  0.00     0.326 C 
HETATM   21  N   UNL     1      42.651 -16.923   6.038  1.00  0.00    -0.309 N 
HETATM   22  O   UNL     1      43.171 -17.125   8.284  1.00  0.00    -0.247 OA
HETATM   23  H   UNL     1      42.594 -17.487   5.196  1.00  0.00     0.170 HD
HETATM   24  H   UNL     1      44.065 -19.246   7.763  1.00  0.00     0.172 HD
BRANCH  21  25
HETATM   25  C   UNL     1      42.108 -15.624   5.968  1.00  0.00     0.036 A 
HETATM   26  C   UNL     1      42.880 -14.458   5.961  1.00  0.00     0.032 A 
HETATM   27  C   UNL     1      42.269 -13.205   5.843  1.00  0.00     0.044 A 
HETATM   28  C   UNL     1      40.887 -13.121   5.734  1.00  0.00     0.116 A 
HETATM   29  F   UNL     1      40.307 -11.920   5.611  1.00  0.00    -0.206 F 
HETATM   30  C   UNL     1      40.102 -14.265   5.744  1.00  0.00     0.044 A 
HETATM   31  C   UNL     1      40.713 -15.517   5.862  1.00  0.00     0.032 A 
ENDBRANCH  21  25
ENDBRANCH   3  19
TORSDOF 5
ENDMDL
MODEL 6
REMARK VINA RESULT:      -8.0      3.733      6.522
REMARK  5 active torsions:
REMARK  status: ('A' for Active; 'I' for Inactive)
REMARK    1  A    between atoms: C_6  and  N_7 
REMARK       I    between atoms: N_7  and  C_8 
REMARK    2  A    between atoms: C_8  and  C_9 
REMARK    3  A    between atoms: C_9  and  C_10 
REMARK    4  A    between atoms: C_12  and  N_13 
REMARK       I    between atoms: N_13  and  C_14 
REMARK       I    between atoms: C_14  and  N_15 
REMARK    5  A    between atoms: N_15  and  C_16 
ROOT
HETATM    1  C   UNL     1      42.260 -14.233   5.727  1.00  0.00     0.052 A 
HETATM    2  N   UNL     1      42.053 -15.577   6.033  1.00  0.00    -0.228 NA
HETATM    3  C   UNL     1      43.121 -16.059   6.625  1.00  0.00     0.174 A 
HETATM    4  S   UNL     1      44.418 -14.985   6.864  1.00  0.00    -0.062 SA
HETATM    5  C   UNL     1      43.502 -13.749   6.108  1.00  0.00     0.081 A 
ENDROOT
BRANCH   1   6
HETATM    6  C   UNL     1      41.211 -13.428   5.022  1.00  0.00     0.163 C 
BRANCH   6   7
HETATM    7  C   UNL     1      40.687 -13.936   3.685  1.00  0.00     0.227 C 
HETATM    8  N   UNL     1      41.531 -13.798   2.602  1.00  0.00    -0.327 N 
HETATM    9  H   UNL     1      42.347 -13.209   2.749  1.00  0.00     0.169 HD
HETATM   10  O   UNL     1      39.586 -14.488   3.659  1.00  0.00    -0.273 OA
BRANCH   8  11
HETATM   11  C   UNL     1      41.317 -14.236   1.278  1.00  0.00     0.036 A 
HETATM   12  C   UNL     1      40.854 -13.419   0.248  1.00  0.00     0.053 A 
HETATM   13  C   UNL     1      40.707 -13.925  -1.050  1.00  0.00     0.042 A 
HETATM   14  C   UNL     1      41.023 -15.259  -1.343  1.00  0.00    -0.040 A 
HETATM   15 CL   UNL     1      40.132 -12.850  -2.277  1.00  0.00    -0.084 Cl
HETATM   16  C   UNL     1      40.897 -15.822  -2.731  1.00  0.00     0.050 C 
HETATM   17  C   UNL     1      41.464 -16.082  -0.300  1.00  0.00     0.011 A 
HETATM   18  C   UNL     1      41.601 -15.576   0.997  1.00  0.00     0.030 A 
ENDBRANCH   8  11
ENDBRANCH   6   7
ENDBRANCH   1   6
BRANCH   3  19
HETATM   19  N   UNL     1      43.333 -17.317   7.099  1.00  0.00    -0.287 N 
HETATM   20  C   UNL     1      43.558 -18.444   6.363  1.00  0.00     0.326 C 
HETATM   21  N   UNL     1      43.719 -18.283   5.014  1.00  0.00    -0.309 N 
HETATM   22  O   UNL     1      43.606 -19.511   6.972  1.00  0.00    -0.247 OA
HETATM   23  H   UNL     1      43.806 -17.321   4.699  1.00  0.00     0.170 HD
HETATM   24  H   UNL     1      43.264 -17.463   8.095  1.00  0.00     0.172 HD
BRANCH  21  25
HETATM   25  C   UNL     1      43.868 -19.286   4.034  1.00  0.00     0.036 A 
HETATM   26  C   UNL     1      44.660 -20.426   4.205  1.00  0.00     0.032 A 
HETATM   27  C   UNL     1      44.721 -21.400   3.203  1.00  0.00     0.044 A 
HETATM   28  C   UNL     1      43.992 -21.233   2.033  1.00  0.00     0.116 A 
HETATM   29  F   UNL     1      44.045 -22.173   1.081  1.00  0.00    -0.206 F 
HETATM   30  C   UNL     1      43.204 -20.106   1.843  1.00  0.00     0.044 A 
HETATM   31  C   UNL     1      43.143 -19.133   2.843  1.00  0.00     0.032 A 
ENDBRANCH  21  25
ENDBRANCH   3  19
TORSDOF 5
ENDMDL
MODEL 7
REMARK VINA RESULT:      -7.9      4.708      5.552
REMARK  5 active torsions:
REMARK  status: ('A' for Active; 'I' for Inactive)
REMARK    1  A    between atoms: C_6  and  N_7 
REMARK       I    between atoms: N_7  and  C_8 
REMARK    2  A    between atoms: C_8  and  C_9 
REMARK    3  A    between atoms: C_9  and  C_10 
REMARK    4  A    between atoms: C_12  and  N_13 
REMARK       I    between atoms: N_13  and  C_14 
REMARK       I    between atoms: C_14  and  N_15 
REMARK    5  A    between atoms: N_15  and  C_16 
ROOT
HETATM    1  C   UNL     1      41.821 -13.215   5.671  1.00  0.00     0.052 A 
HETATM    2  N   UNL     1      41.844 -11.990   6.336  1.00  0.00    -0.228 NA
HETATM    3  C   UNL     1      40.619 -11.650   6.663  1.00  0.00     0.174 A 
HETATM    4  S   UNL     1      39.378 -12.727   6.224  1.00  0.00    -0.062 SA
HETATM    5  C   UNL     1      40.554 -13.756   5.520  1.00  0.00     0.081 A 
ENDROOT
BRANCH   1   6
HETATM    6  C   UNL     1      43.082 -13.841   5.157  1.00  0.00     0.163 C 
BRANCH   6   7
HETATM    7  C   UNL     1      43.135 -15.358   5.025  1.00  0.00     0.227 C 
HETATM    8  N   UNL     1      43.427 -15.856   3.772  1.00  0.00    -0.327 N 
HETATM    9  H   UNL     1      43.400 -15.181   3.010  1.00  0.00     0.169 HD
HETATM   10  O   UNL     1      42.980 -16.040   6.039  1.00  0.00    -0.273 OA
BRANCH   8  11
HETATM   11  C   UNL     1      43.593 -17.205   3.395  1.00  0.00     0.036 A 
HETATM   12  C   UNL     1      44.075 -18.202   4.242  1.00  0.00     0.053 A 
HETATM   13  C   UNL     1      44.171 -19.527   3.798  1.00  0.00     0.042 A 
HETATM   14  C   UNL     1      43.785 -19.881   2.497  1.00  0.00    -0.040 A 
HETATM   15 CL   UNL     1      44.773 -20.709   4.908  1.00  0.00    -0.084 Cl
HETATM   16  C   UNL     1      43.857 -21.299   2.003  1.00  0.00     0.050 C 
HETATM   17  C   UNL     1      43.326 -18.872   1.643  1.00  0.00     0.011 A 
HETATM   18  C   UNL     1      43.240 -17.548   2.086  1.00  0.00     0.030 A 
ENDBRANCH   8  11
ENDBRANCH   6   7
ENDBRANCH   1   6
BRANCH   3  19
HETATM   19  N   UNL     1      40.197 -10.543   7.332  1.00  0.00    -0.287 N 
HETATM   20  C   UNL     1      40.482 -10.206   8.624  1.00  0.00     0.326 C 
HETATM   21  N   UNL     1      41.390 -10.989   9.284  1.00  0.00    -0.309 N 
HETATM   22  O   UNL     1      39.907  -9.223   9.087  1.00  0.00    -0.247 OA
HETATM   23  H   UNL     1      41.885 -11.661   8.705  1.00  0.00     0.170 HD
HETATM   24  H   UNL     1      39.559  -9.920   6.859  1.00  0.00     0.172 HD
BRANCH  21  25
HETATM   25  C   UNL     1      41.780 -10.908  10.636  1.00  0.00     0.036 A 
HETATM   26  C   UNL     1      43.045 -10.486  11.056  1.00  0.00     0.032 A 
HETATM   27  C   UNL     1      43.341 -10.389  12.420  1.00  0.00     0.044 A 
HETATM   28  C   UNL     1      42.373 -10.716  13.360  1.00  0.00     0.116 A 
HETATM   29  F   UNL     1      42.658 -10.612  14.665  1.00  0.00    -0.206 F 
HETATM   30  C   UNL     1      41.114 -11.143  12.964  1.00  0.00     0.044 A 
HETATM   31  C   UNL     1      40.818 -11.240  11.602  1.00  0.00     0.032 A 
ENDBRANCH  21  25
ENDBRANCH   3  19
TORSDOF 5
ENDMDL
MODEL 8
REMARK VINA RESULT:      -7.7      4.844      7.940
REMARK  5 active torsions:
REMARK  status: ('A' for Active; 'I' for Inactive)
REMARK    1  A    between atoms: C_6  and  N_7 
REMARK       I    between atoms: N_7  and  C_8 
REMARK    2  A    between atoms: C_8  and  C_9 
REMARK    3  A    between atoms: C_9  and  C_10 
REMARK    4  A    between atoms: C_12  and  N_13 
REMARK       I    between atoms: N_13  and  C_14 
REMARK       I    between atoms: C_14  and  N_15 
REMARK    5  A    between atoms: N_15  and  C_16 
ROOT
HETATM    1  C   UNL     1      41.306 -15.431  -0.461  1.00  0.00     0.052 A 
HETATM    2  N   UNL     1      41.120 -16.351   0.570  1.00  0.00    -0.228 NA
HETATM    3  C   UNL     1      41.348 -15.765   1.722  1.00  0.00     0.174 A 
HETATM    4  S   UNL     1      41.785 -14.121   1.677  1.00  0.00    -0.062 SA
HETATM    5  C   UNL     1      41.676 -14.165  -0.033  1.00  0.00     0.081 A 
ENDROOT
BRANCH   1   6
HETATM    6  C   UNL     1      41.135 -15.829  -1.895  1.00  0.00     0.163 C 
BRANCH   6   7
HETATM    7  C   UNL     1      40.233 -14.979  -2.780  1.00  0.00     0.227 C 
HETATM    8  N   UNL     1      38.975 -14.698  -2.285  1.00  0.00    -0.327 N 
HETATM    9  H   UNL     1      38.693 -15.230  -1.466  1.00  0.00     0.169 HD
HETATM   10  O   UNL     1      40.691 -14.543  -3.837  1.00  0.00    -0.273 OA
BRANCH   8  11
HETATM   11  C   UNL     1      37.977 -13.891  -2.870  1.00  0.00     0.036 A 
HETATM   12  C   UNL     1      37.199 -14.273  -3.962  1.00  0.00     0.053 A 
HETATM   13  C   UNL     1      36.200 -13.424  -4.455  1.00  0.00     0.042 A 
HETATM   14  C   UNL     1      35.958 -12.176  -3.865  1.00  0.00    -0.040 A 
HETATM   15 CL   UNL     1      35.272 -13.970  -5.809  1.00  0.00    -0.084 Cl
HETATM   16  C   UNL     1      34.878 -11.256  -4.359  1.00  0.00     0.050 C 
HETATM   17  C   UNL     1      36.759 -11.786  -2.785  1.00  0.00     0.011 A 
HETATM   18  C   UNL     1      37.762 -12.632  -2.300  1.00  0.00     0.030 A 
ENDBRANCH   8  11
ENDBRANCH   6   7
ENDBRANCH   1   6
BRANCH   3  19
HETATM   19  N   UNL     1      41.267 -16.295   2.973  1.00  0.00    -0.287 N 
HETATM   20  C   UNL     1      41.851 -17.446   3.416  1.00  0.00     0.326 C 
HETATM   21  N   UNL     1      42.717 -18.072   2.561  1.00  0.00    -0.309 N 
HETATM   22  O   UNL     1      41.559 -17.822   4.550  1.00  0.00    -0.247 OA
HETATM   23  H   UNL     1      42.963 -17.544   1.730  1.00  0.00     0.170 HD
HETATM   24  H   UNL     1      40.669 -15.833   3.643  1.00  0.00     0.172 HD
BRANCH  21  25
HETATM   25  C   UNL     1      43.369 -19.309   2.743  1.00  0.00     0.036 A 
HETATM   26  C   UNL     1      44.215 -19.590   3.821  1.00  0.00     0.032 A 
HETATM   27  C   UNL     1      44.790 -20.858   3.956  1.00  0.00     0.044 A 
HETATM   28  C   UNL     1      44.520 -21.841   3.015  1.00  0.00     0.116 A 
HETATM   29  F   UNL     1      45.064 -23.057   3.154  1.00  0.00    -0.206 F 
HETATM   30  C   UNL     1      43.687 -21.581   1.935  1.00  0.00     0.044 A 
HETATM   31  C   UNL     1      43.112 -20.315   1.800  1.00  0.00     0.032 A 
ENDBRANCH  21  25
ENDBRANCH   3  19
TORSDOF 5
ENDMDL
MODEL 9
REMARK VINA RESULT:      -7.6      2.492      5.037
REMARK  5 active torsions:
REMARK  status: ('A' for Active; 'I' for Inactive)
REMARK    1  A    between atoms: C_6  and  N_7 
REMARK       I    between atoms: N_7  and  C_8 
REMARK    2  A    between atoms: C_8  and  C_9 
REMARK    3  A    between atoms: C_9  and  C_10 
REMARK    4  A    between atoms: C_12  and  N_13 
REMARK       I    between atoms: N_13  and  C_14 
REMARK       I    between atoms: C_14  and  N_15 
REMARK    5  A    between atoms: N_15  and  C_16 
ROOT
HETATM    1  C   UNL     1      39.404 -12.364   3.004  1.00  0.00     0.052 A 
HETATM    2  N   UNL     1      40.118 -13.250   2.199  1.00  0.00    -0.228 NA
HETATM    3  C   UNL     1      39.583 -13.277   1.001  1.00  0.00     0.174 A 
HETATM    4  S   UNL     1      38.230 -12.279   0.740  1.00  0.00    -0.062 SA
HETATM    5  C   UNL     1      38.337 -11.750   2.366  1.00  0.00     0.081 A 
ENDROOT
BRANCH   1   6
HETATM    6  C   UNL     1      39.778 -12.147   4.439  1.00  0.00     0.163 C 
BRANCH   6   7
HETATM    7  C   UNL     1      40.409 -13.303   5.204  1.00  0.00     0.227 C 
HETATM    8  N   UNL     1      41.572 -13.827   4.676  1.00  0.00    -0.327 N 
HETATM    9  H   UNL     1      41.805 -13.525   3.733  1.00  0.00     0.169 HD
HETATM   10  O   UNL     1      39.892 -13.655   6.265  1.00  0.00    -0.273 OA
BRANCH   8  11
HETATM   11  C   UNL     1      42.381 -14.850   5.214  1.00  0.00     0.036 A 
HETATM   12  C   UNL     1      42.139 -16.212   5.044  1.00  0.00     0.053 A 
HETATM   13  C   UNL     1      43.019 -17.163   5.579  1.00  0.00     0.042 A 
HETATM   14  C   UNL     1      44.158 -16.768   6.295  1.00  0.00    -0.040 A 
HETATM   15 CL   UNL     1      42.655 -18.834   5.323  1.00  0.00    -0.084 Cl
HETATM   16  C   UNL     1      45.129 -17.766   6.860  1.00  0.00     0.050 C 
HETATM   17  C   UNL     1      44.382 -15.400   6.484  1.00  0.00     0.011 A 
HETATM   18  C   UNL     1      43.498 -14.453   5.956  1.00  0.00     0.030 A 
ENDBRANCH   8  11
ENDBRANCH   6   7
ENDBRANCH   1   6
BRANCH   3  19
HETATM   19  N   UNL     1      39.977 -13.993  -0.087  1.00  0.00    -0.287 N 
HETATM   20  C   UNL     1      40.809 -15.075  -0.100  1.00  0.00     0.326 C 
HETATM   21  N   UNL     1      41.189 -15.581   1.113  1.00  0.00    -0.309 N 
HETATM   22  O   UNL     1      41.143 -15.512  -1.200  1.00  0.00    -0.247 OA
HETATM   23  H   UNL     1      40.697 -15.199   1.915  1.00  0.00     0.170 HD
HETATM   24  H   UNL     1      39.679 -13.672  -0.996  1.00  0.00     0.172 HD
BRANCH  21  25
HETATM   25  C   UNL     1      42.105 -16.622   1.368  1.00  0.00     0.036 A 
HETATM   26  C   UNL     1      43.479 -16.423   1.538  1.00  0.00     0.032 A 
HETATM   27  C   UNL     1      44.318 -17.503   1.833  1.00  0.00     0.044 A 
HETATM   28  C   UNL     1      43.783 -18.778   1.956  1.00  0.00     0.116 A 
HETATM   29  F   UNL     1      44.588 -19.807   2.249  1.00  0.00    -0.206 F 
HETATM   30  C   UNL     1      42.423 -18.997   1.786  1.00  0.00     0.044 A 
HETATM   31  C   UNL     1      41.585 -17.919   1.491  1.00  0.00     0.032 A 
ENDBRANCH  21  25
ENDBRANCH   3  19
TORSDOF 5
ENDMDL
MODEL 10
REMARK VINA RESULT:      -7.4      4.674      6.902
REMARK  5 active torsions:
REMARK  status: ('A' for Active; 'I' for Inactive)
REMARK    1  A    between atoms: C_6  and  N_7 
REMARK       I    between atoms: N_7  and  C_8 
REMARK    2  A    between atoms: C_8  and  C_9 
REMARK    3  A    between atoms: C_9  and  C_10 
REMARK    4  A    between atoms: C_12  and  N_13 
REMARK       I    between atoms: N_13  and  C_14 
REMARK       I    between atoms: C_14  and  N_15 
REMARK    5  A    between atoms: N_15  and  C_16 
ROOT
HETATM    1  C   UNL     1      41.888 -15.409   5.884  1.00  0.00     0.052 A 
HETATM    2  N   UNL     1      42.757 -14.357   6.169  1.00  0.00    -0.228 NA
HETATM    3  C   UNL     1      43.918 -14.841   6.545  1.00  0.00     0.174 A 
HETATM    4  S   UNL     1      44.068 -16.535   6.584  1.00  0.00    -0.062 SA
HETATM    5  C   UNL     1      42.441 -16.668   6.063  1.00  0.00     0.081 A 
ENDROOT
BRANCH   1   6
HETATM    6  C   UNL     1      40.476 -15.153   5.451  1.00  0.00     0.163 C 
BRANCH   6   7
HETATM    7  C   UNL     1      40.246 -14.423   4.135  1.00  0.00     0.227 C 
HETATM    8  N   UNL     1      39.879 -15.202   3.056  1.00  0.00    -0.327 N 
HETATM    9  H   UNL     1      39.973 -16.207   3.184  1.00  0.00     0.169 HD
HETATM   10  O   UNL     1      40.335 -13.194   4.122  1.00  0.00    -0.273 OA
BRANCH   8  11
HETATM   11  C   UNL     1      39.551 -14.774   1.752  1.00  0.00     0.036 A 
HETATM   12  C   UNL     1      40.449 -14.745   0.687  1.00  0.00     0.053 A 
HETATM   13  C   UNL     1      40.028 -14.343  -0.588  1.00  0.00     0.042 A 
HETATM   14  C   UNL     1      38.698 -13.964  -0.821  1.00  0.00    -0.040 A 
HETATM   15 CL   UNL     1      41.199 -14.338  -1.861  1.00  0.00    -0.084 Cl
HETATM   16  C   UNL     1      38.215 -13.551  -2.183  1.00  0.00     0.050 C 
HETATM   17  C   UNL     1      37.807 -13.971   0.258  1.00  0.00     0.011 A 
HETATM   18  C   UNL     1      38.232 -14.363   1.531  1.00  0.00     0.030 A 
ENDBRANCH   8  11
ENDBRANCH   6   7
ENDBRANCH   1   6
BRANCH   3  19
HETATM   19  N   UNL     1      45.044 -14.164   6.897  1.00  0.00    -0.287 N 
HETATM   20  C   UNL     1      45.149 -13.179   7.835  1.00  0.00     0.326 C 
HETATM   21  N   UNL     1      44.042 -12.927   8.599  1.00  0.00    -0.309 N 
HETATM   22  O   UNL     1      46.232 -12.603   7.925  1.00  0.00    -0.247 OA
HETATM   23  H   UNL     1      43.287 -13.598   8.502  1.00  0.00     0.170 HD
HETATM   24  H   UNL     1      45.891 -14.356   6.382  1.00  0.00     0.172 HD
BRANCH  21  25
HETATM   25  C   UNL     1      43.867 -11.910   9.560  1.00  0.00     0.036 A 
HETATM   26  C   UNL     1      44.615 -11.817  10.737  1.00  0.00     0.032 A 
HETATM   27  C   UNL     1      44.413 -10.751  11.621  1.00  0.00     0.044 A 
HETATM   28  C   UNL     1      43.463  -9.782  11.326  1.00  0.00     0.116 A 
HETATM   29  F   UNL     1      43.280  -8.758  12.169  1.00  0.00    -0.206 F 
HETATM   30  C   UNL     1      42.707  -9.860  10.165  1.00  0.00     0.044 A 
HETATM   31  C   UNL     1      42.908 -10.924   9.283  1.00  0.00     0.032 A 
ENDBRANCH  21  25
ENDBRANCH   3  19
TORSDOF 5
ENDMDL
