MODEL 1
REMARK VINA RESULT:      -9.6      0.000      0.000
REMARK  6 active torsions:
REMARK  status: ('A' for Active; 'I' for Inactive)
REMARK    1  A    between atoms: O_2  and  C_3 
REMARK    2  A    between atoms: C_6  and  C_7 
REMARK    3  A    between atoms: N_9  and  C_10 
REMARK    4  A    between atoms: C_17  and  C_18 
REMARK       I    between atoms: C_18  and  N_19 
REMARK    5  A    between atoms: N_19  and  N_20 
REMARK       I    between atoms: N_20  and  C_21 
REMARK    6  A    between atoms: C_21  and  C_22 
ROOT
HETATM    1  C   UNL     1      42.284 -16.494   3.195  1.00  0.00     0.105 A 
HETATM    2  N   UNL     1      42.551 -17.698   2.653  1.00  0.00    -0.166 NA
HETATM    3  N   UNL     1      43.313 -18.367   3.540  1.00  0.00    -0.244 N 
HETATM    4  C   UNL     1      43.545 -17.611   4.658  1.00  0.00     0.138 A 
HETATM    5  C   UNL     1      42.907 -16.393   4.480  1.00  0.00     0.082 A 
ENDROOT
BRANCH   5   6
HETATM    6  C   UNL     1      42.946 -15.318   5.454  1.00  0.00     0.274 C 
HETATM    7  N   UNL     1      43.882 -15.516   6.449  1.00  0.00    -0.263 N 
HETATM    8  H   UNL     1      44.418 -16.377   6.546  1.00  0.00     0.190 HD
HETATM    9  O   UNL     1      42.233 -14.321   5.410  1.00  0.00    -0.266 OA
BRANCH   7  10
HETATM   10  N   UNL     1      43.990 -14.595   7.495  1.00  0.00    -0.262 N 
HETATM   11  C   UNL     1      44.995 -13.652   7.434  1.00  0.00     0.286 C 
HETATM   12  O   UNL     1      45.798 -13.628   6.500  1.00  0.00    -0.264 OA
HETATM   13  H   UNL     1      43.279 -14.622   8.219  1.00  0.00     0.190 HD
BRANCH  11  14
HETATM   14  C   UNL     1      45.039 -12.704   8.522  1.00  0.00     0.102 A 
HETATM   15  N   UNL     1      44.027 -12.644   9.460  1.00  0.00    -0.361 N 
HETATM   16  H   UNL     1      43.212 -13.246   9.444  1.00  0.00     0.165 HD
HETATM   17  C   UNL     1      44.294 -11.674  10.387  1.00  0.00     0.088 A 
HETATM   18  C   UNL     1      45.490 -11.087  10.050  1.00  0.00     0.019 A 
HETATM   19  C   UNL     1      45.961 -11.731   8.878  1.00  0.00     0.036 A 
ENDBRANCH  11  14
ENDBRANCH   7  10
ENDBRANCH   5   6
BRANCH   1  20
HETATM   20  C   UNL     1      41.406 -15.567   2.447  1.00  0.00    -0.004 A 
HETATM   21  C   UNL     1      40.018 -15.804   2.412  1.00  0.00     0.016 A 
HETATM   22  C   UNL     1      39.132 -14.933   1.762  1.00  0.00     0.037 A 
HETATM   23  C   UNL     1      39.617 -13.798   1.122  1.00  0.00     0.068 A 
HETATM   24  C   UNL     1      40.989 -13.558   1.130  1.00  0.00     0.037 A 
HETATM   25  C   UNL     1      41.872 -14.421   1.796  1.00  0.00     0.016 A 
BRANCH  23  26
HETATM   26  O   UNL     1      38.868 -12.865   0.461  1.00  0.00    -0.356 OA
HETATM   27  C   UNL     1      37.488 -12.803   0.799  1.00  0.00     0.210 C 
ENDBRANCH  23  26
ENDBRANCH   1  20
BRANCH   3  28
HETATM   28  C   UNL     1      43.757 -19.692   3.272  1.00  0.00     0.058 A 
HETATM   29  C   UNL     1      43.502 -20.263   2.016  1.00  0.00     0.031 A 
HETATM   30  C   UNL     1      43.920 -21.566   1.736  1.00  0.00     0.002 A 
HETATM   31  C   UNL     1      44.594 -22.307   2.704  1.00  0.00     0.000 A 
HETATM   32  C   UNL     1      44.853 -21.747   3.954  1.00  0.00     0.002 A 
HETATM   33  C   UNL     1      44.438 -20.443   4.242  1.00  0.00     0.031 A 
ENDBRANCH   3  28
TORSDOF 6
ENDMDL
MODEL 2
REMARK VINA RESULT:      -8.9      2.105      5.883
REMARK  6 active torsions:
REMARK  status: ('A' for Active; 'I' for Inactive)
REMARK    1  A    between atoms: O_2  and  C_3 
REMARK    2  A    between atoms: C_6  and  C_7 
REMARK    3  A    between atoms: N_9  and  C_10 
REMARK    4  A    between atoms: C_17  and  C_18 
REMARK       I    between atoms: C_18  and  N_19 
REMARK    5  A    between atoms: N_19  and  N_20 
REMARK       I    between atoms: N_20  and  C_21 
REMARK    6  A    between atoms: C_21  and  C_22 
ROOT
HETATM    1  C   UNL     1      42.888 -16.549   3.356  1.00  0.00     0.105 A 
HETATM    2  N   UNL     1      42.605 -16.432   2.044  1.00  0.00    -0.166 NA
HETATM    3  N   UNL     1      42.111 -15.193   1.858  1.00  0.00    -0.244 N 
HETATM    4  C   UNL     1      42.070 -14.498   3.037  1.00  0.00     0.138 A 
HETATM    5  C   UNL     1      42.555 -15.332   4.032  1.00  0.00     0.082 A 
ENDROOT
BRANCH   5   6
HETATM    6  C   UNL     1      42.645 -14.946   5.428  1.00  0.00     0.274 C 
HETATM    7  N   UNL     1      43.213 -13.702   5.615  1.00  0.00    -0.263 N 
HETATM    8  H   UNL     1      43.621 -13.156   4.857  1.00  0.00     0.190 HD
HETATM    9  O   UNL     1      42.253 -15.638   6.362  1.00  0.00    -0.266 OA
BRANCH   7  10
HETATM   10  N   UNL     1      43.426 -13.222   6.911  1.00  0.00    -0.262 N 
HETATM   11  C   UNL     1      44.717 -13.197   7.395  1.00  0.00     0.286 C 
HETATM   12  O   UNL     1      45.663 -13.606   6.721  1.00  0.00    -0.264 OA
HETATM   13  H   UNL     1      42.623 -12.851   7.411  1.00  0.00     0.190 HD
BRANCH  11  14
HETATM   14  C   UNL     1      44.882 -12.659   8.725  1.00  0.00     0.102 A 
HETATM   15  N   UNL     1      44.050 -13.039   9.758  1.00  0.00    -0.361 N 
HETATM   16  H   UNL     1      43.290 -13.702   9.652  1.00  0.00     0.165 HD
HETATM   17  C   UNL     1      44.405 -12.400  10.916  1.00  0.00     0.088 A 
HETATM   18  C   UNL     1      45.477 -11.588  10.635  1.00  0.00     0.019 A 
HETATM   19  C   UNL     1      45.780 -11.747   9.260  1.00  0.00     0.036 A 
ENDBRANCH  11  14
ENDBRANCH   7  10
ENDBRANCH   5   6
BRANCH   1  20
HETATM   20  C   UNL     1      43.504 -17.807   3.832  1.00  0.00    -0.004 A 
HETATM   21  C   UNL     1      43.574 -18.916   2.965  1.00  0.00     0.016 A 
HETATM   22  C   UNL     1      44.191 -20.116   3.342  1.00  0.00     0.037 A 
HETATM   23  C   UNL     1      44.754 -20.241   4.608  1.00  0.00     0.068 A 
HETATM   24  C   UNL     1      44.677 -19.162   5.486  1.00  0.00     0.037 A 
HETATM   25  C   UNL     1      44.075 -17.955   5.100  1.00  0.00     0.016 A 
BRANCH  23  26
HETATM   26  O   UNL     1      45.390 -21.346   5.101  1.00  0.00    -0.356 OA
HETATM   27  C   UNL     1      44.845 -22.607   4.735  1.00  0.00     0.210 C 
ENDBRANCH  23  26
ENDBRANCH   1  20
BRANCH   3  28
HETATM   28  C   UNL     1      41.725 -14.745   0.563  1.00  0.00     0.058 A 
HETATM   29  C   UNL     1      41.740 -13.371   0.277  1.00  0.00     0.031 A 
HETATM   30  C   UNL     1      41.354 -12.909  -0.983  1.00  0.00     0.002 A 
HETATM   31  C   UNL     1      40.953 -13.812  -1.966  1.00  0.00     0.000 A 
HETATM   32  C   UNL     1      40.938 -15.178  -1.691  1.00  0.00     0.002 A 
HETATM   33  C   UNL     1      41.323 -15.648  -0.431  1.00  0.00     0.031 A 
ENDBRANCH   3  28
TORSDOF 6
ENDMDL
MODEL 3
REMARK VINA RESULT:      -8.7      2.079      2.382
REMARK  6 active torsions:
REMARK  status: ('A' for Active; 'I' for Inactive)
REMARK    1  A    between atoms: O_2  and  C_3 
REMARK    2  A    between atoms: C_6  and  C_7 
REMARK    3  A    between atoms: N_9  and  C_10 
REMARK    4  A    between atoms: C_17  and  C_18 
REMARK       I    between atoms: C_18  and  N_19 
REMARK    5  A    between atoms: N_19  and  N_20 
REMARK       I    between atoms: N_20  and  C_21 
REMARK    6  A    between atoms: C_21  and  C_22 
ROOT
HETATM    1  C   UNL     1      42.120 -16.403   2.458  1.00  0.00     0.105 A 
HETATM    2  N   UNL     1      42.313 -17.705   2.167  1.00  0.00    -0.166 NA
HETATM    3  N   UNL     1      43.265 -18.156   3.007  1.00  0.00    -0.244 N 
HETATM    4  C   UNL     1      43.694 -17.162   3.845  1.00  0.00     0.138 A 
HETATM    5  C   UNL     1      42.990 -16.012   3.525  1.00  0.00     0.082 A 
ENDROOT
BRANCH   5   6
HETATM    6  C   UNL     1      43.190 -14.739   4.192  1.00  0.00     0.274 C 
HETATM    7  N   UNL     1      42.459 -14.612   5.357  1.00  0.00    -0.263 N 
HETATM    8  H   UNL     1      41.773 -15.301   5.662  1.00  0.00     0.190 HD
HETATM    9  O   UNL     1      43.935 -13.855   3.784  1.00  0.00    -0.266 OA
BRANCH   7  10
HETATM   10  N   UNL     1      42.499 -13.413   6.076  1.00  0.00    -0.262 N 
HETATM   11  C   UNL     1      41.446 -12.534   5.939  1.00  0.00     0.286 C 
HETATM   12  O   UNL     1      40.501 -12.776   5.187  1.00  0.00    -0.264 OA
HETATM   13  H   UNL     1      43.274 -13.278   6.719  1.00  0.00     0.190 HD
BRANCH  11  14
HETATM   14  C   UNL     1      41.522 -11.329   6.730  1.00  0.00     0.102 A 
HETATM   15  N   UNL     1      41.952 -11.360   8.042  1.00  0.00    -0.361 N 
HETATM   16  H   UNL     1      42.234 -12.208   8.519  1.00  0.00     0.165 HD
HETATM   17  C   UNL     1      41.940 -10.101   8.578  1.00  0.00     0.088 A 
HETATM   18  C   UNL     1      41.490  -9.236   7.608  1.00  0.00     0.019 A 
HETATM   19  C   UNL     1      41.226 -10.004   6.447  1.00  0.00     0.036 A 
ENDBRANCH  11  14
ENDBRANCH   7  10
ENDBRANCH   5   6
BRANCH   1  20
HETATM   20  C   UNL     1      41.075 -15.665   1.714  1.00  0.00    -0.004 A 
HETATM   21  C   UNL     1      39.806 -15.484   2.299  1.00  0.00     0.016 A 
HETATM   22  C   UNL     1      38.793 -14.752   1.664  1.00  0.00     0.037 A 
HETATM   23  C   UNL     1      39.025 -14.182   0.417  1.00  0.00     0.068 A 
HETATM   24  C   UNL     1      40.267 -14.368  -0.186  1.00  0.00     0.037 A 
HETATM   25  C   UNL     1      41.285 -15.086   0.459  1.00  0.00     0.016 A 
BRANCH  23  26
HETATM   26  O   UNL     1      38.134 -13.441  -0.307  1.00  0.00    -0.356 OA
HETATM   27  C   UNL     1      37.210 -12.656   0.436  1.00  0.00     0.210 C 
ENDBRANCH  23  26
ENDBRANCH   1  20
BRANCH   3  28
HETATM   28  C   UNL     1      43.691 -19.514   2.968  1.00  0.00     0.058 A 
HETATM   29  C   UNL     1      43.364 -20.307   1.858  1.00  0.00     0.031 A 
HETATM   30  C   UNL     1      43.764 -21.644   1.804  1.00  0.00     0.002 A 
HETATM   31  C   UNL     1      44.492 -22.199   2.855  1.00  0.00     0.000 A 
HETATM   32  C   UNL     1      44.823 -21.417   3.960  1.00  0.00     0.002 A 
HETATM   33  C   UNL     1      44.427 -20.077   4.021  1.00  0.00     0.031 A 
ENDBRANCH   3  28
TORSDOF 6
ENDMDL
MODEL 4
REMARK VINA RESULT:      -8.3      2.246      2.564
REMARK  6 active torsions:
REMARK  status: ('A' for Active; 'I' for Inactive)
REMARK    1  A    between atoms: O_2  and  C_3 
REMARK    2  A    between atoms: C_6  and  C_7 
REMARK    3  A    between atoms: N_9  and  C_10 
REMARK    4  A    between atoms: C_17  and  C_18 
REMARK       I    between atoms: C_18  and  N_19 
REMARK    5  A    between atoms: N_19  and  N_20 
REMARK       I    between atoms: N_20  and  C_21 
REMARK    6  A    between atoms: C_21  and  C_22 
ROOT
HETATM    1  C   UNL     1      41.442 -16.289   2.788  1.00  0.00     0.105 A 
HETATM    2  N   UNL     1      41.979 -17.415   2.277  1.00  0.00    -0.166 NA
HETATM    3  N   UNL     1      42.619 -18.037   3.286  1.00  0.00    -0.244 N 
HETATM    4  C   UNL     1      42.503 -17.330   4.452  1.00  0.00     0.138 A 
HETATM    5  C   UNL     1      41.759 -16.193   4.181  1.00  0.00     0.082 A 
ENDROOT
BRANCH   5   6
HETATM    6  C   UNL     1      41.444 -15.185   5.176  1.00  0.00     0.274 C 
HETATM    7  N   UNL     1      42.393 -14.186   5.261  1.00  0.00    -0.263 N 
HETATM    8  H   UNL     1      43.274 -14.210   4.750  1.00  0.00     0.190 HD
HETATM    9  O   UNL     1      40.436 -15.196   5.875  1.00  0.00    -0.266 OA
BRANCH   7  10
HETATM   10  N   UNL     1      42.259 -13.179   6.221  1.00  0.00    -0.262 N 
HETATM   11  C   UNL     1      41.801 -11.944   5.813  1.00  0.00     0.286 C 
HETATM   12  O   UNL     1      41.538 -11.715   4.632  1.00  0.00    -0.264 OA
HETATM   13  H   UNL     1      42.441 -13.427   7.189  1.00  0.00     0.190 HD
BRANCH  11  14
HETATM   14  C   UNL     1      41.647 -10.952   6.851  1.00  0.00     0.102 A 
HETATM   15  N   UNL     1      41.843 -11.271   8.179  1.00  0.00    -0.361 N 
HETATM   16  H   UNL     1      42.100 -12.197   8.502  1.00  0.00     0.165 HD
HETATM   17  C   UNL     1      41.643 -10.171   8.968  1.00  0.00     0.088 A 
HETATM   18  C   UNL     1      41.306  -9.121   8.148  1.00  0.00     0.019 A 
HETATM   19  C   UNL     1      41.307  -9.608   6.817  1.00  0.00     0.036 A 
ENDBRANCH  11  14
ENDBRANCH   7  10
ENDBRANCH   5   6
BRANCH   1  20
HETATM   20  C   UNL     1      40.626 -15.434   1.899  1.00  0.00    -0.004 A 
HETATM   21  C   UNL     1      39.237 -15.340   2.112  1.00  0.00     0.016 A 
HETATM   22  C   UNL     1      38.420 -14.507   1.334  1.00  0.00     0.037 A 
HETATM   23  C   UNL     1      38.977 -13.746   0.312  1.00  0.00     0.068 A 
HETATM   24  C   UNL     1      40.346 -13.842   0.073  1.00  0.00     0.037 A 
HETATM   25  C   UNL     1      41.164 -14.662   0.865  1.00  0.00     0.016 A 
BRANCH  23  26
HETATM   26  O   UNL     1      38.303 -12.891  -0.514  1.00  0.00    -0.356 OA
HETATM   27  C   UNL     1      39.073 -11.868  -1.133  1.00  0.00     0.210 C 
ENDBRANCH  23  26
ENDBRANCH   1  20
BRANCH   3  28
HETATM   28  C   UNL     1      43.285 -19.277   3.075  1.00  0.00     0.058 A 
HETATM   29  C   UNL     1      44.161 -19.764   4.058  1.00  0.00     0.031 A 
HETATM   30  C   UNL     1      44.833 -20.973   3.867  1.00  0.00     0.002 A 
HETATM   31  C   UNL     1      44.637 -21.704   2.697  1.00  0.00     0.000 A 
HETATM   32  C   UNL     1      43.768 -21.229   1.718  1.00  0.00     0.002 A 
HETATM   33  C   UNL     1      43.091 -20.020   1.901  1.00  0.00     0.031 A 
ENDBRANCH   3  28
TORSDOF 6
ENDMDL
MODEL 5
REMARK VINA RESULT:      -8.3      3.243      7.535
REMARK  6 active torsions:
REMARK  status: ('A' for Active; 'I' for Inactive)
REMARK    1  A    between atoms: O_2  and  C_3 
REMARK    2  A    between atoms: C_6  and  C_7 
REMARK    3  A    between atoms: N_9  and  C_10 
REMARK    4  A    between atoms: C_17  and  C_18 
REMARK       I    between atoms: C_18  and  N_19 
REMARK    5  A    between atoms: N_19  and  N_20 
REMARK       I    between atoms: N_20  and  C_21 
REMARK    6  A    between atoms: C_21  and  C_22 
ROOT
HETATM    1  C   UNL     1      41.298 -15.865   3.642  1.00  0.00     0.105 A 
HETATM    2  N   UNL     1      42.168 -16.828   4.003  1.00  0.00    -0.166 NA
HETATM    3  N   UNL     1      42.196 -17.727   3.000  1.00  0.00    -0.244 N 
HETATM    4  C   UNL     1      41.352 -17.359   1.987  1.00  0.00     0.138 A 
HETATM    5  C   UNL     1      40.746 -16.169   2.357  1.00  0.00     0.082 A 
ENDROOT
BRANCH   5   6
HETATM    6  C   UNL     1      39.767 -15.479   1.538  1.00  0.00     0.274 C 
HETATM    7  N   UNL     1      40.149 -15.357   0.216  1.00  0.00    -0.263 N 
HETATM    8  H   UNL     1      41.068 -15.632  -0.125  1.00  0.00     0.190 HD
HETATM    9  O   UNL     1      38.697 -15.049   1.956  1.00  0.00    -0.266 OA
BRANCH   7  10
HETATM   10  N   UNL     1      39.335 -14.658  -0.680  1.00  0.00    -0.262 N 
HETATM   11  C   UNL     1      39.907 -13.658  -1.438  1.00  0.00     0.286 C 
HETATM   12  O   UNL     1      41.097 -13.363  -1.319  1.00  0.00    -0.264 OA
HETATM   13  H   UNL     1      38.373 -14.967  -0.779  1.00  0.00     0.190 HD
BRANCH  11  14
HETATM   14  C   UNL     1      39.030 -12.993  -2.373  1.00  0.00     0.102 A 
HETATM   15  N   UNL     1      39.414 -11.830  -3.011  1.00  0.00    -0.361 N 
HETATM   16  H   UNL     1      40.311 -11.382  -2.868  1.00  0.00     0.165 HD
HETATM   17  C   UNL     1      38.419 -11.394  -3.844  1.00  0.00     0.088 A 
HETATM   18  C   UNL     1      37.371 -12.277  -3.745  1.00  0.00     0.019 A 
HETATM   19  C   UNL     1      37.750 -13.282  -2.821  1.00  0.00     0.036 A 
ENDBRANCH  11  14
ENDBRANCH   7  10
ENDBRANCH   5   6
BRANCH   1  20
HETATM   20  C   UNL     1      41.115 -14.709   4.548  1.00  0.00    -0.004 A 
HETATM   21  C   UNL     1      42.174 -13.797   4.730  1.00  0.00     0.016 A 
HETATM   22  C   UNL     1      42.043 -12.657   5.534  1.00  0.00     0.037 A 
HETATM   23  C   UNL     1      40.843 -12.401   6.187  1.00  0.00     0.068 A 
HETATM   24  C   UNL     1      39.791 -13.302   6.035  1.00  0.00     0.037 A 
HETATM   25  C   UNL     1      39.918 -14.433   5.215  1.00  0.00     0.016 A 
BRANCH  23  26
HETATM   26  O   UNL     1      40.576 -11.329   6.992  1.00  0.00    -0.356 OA
HETATM   27  C   UNL     1      41.696 -10.567   7.424  1.00  0.00     0.210 C 
ENDBRANCH  23  26
ENDBRANCH   1  20
BRANCH   3  28
HETATM   28  C   UNL     1      43.039 -18.872   3.066  1.00  0.00     0.058 A 
HETATM   29  C   UNL     1      43.839 -19.074   4.201  1.00  0.00     0.031 A 
HETATM   30  C   UNL     1      44.682 -20.185   4.280  1.00  0.00     0.002 A 
HETATM   31  C   UNL     1      44.732 -21.101   3.231  1.00  0.00     0.000 A 
HETATM   32  C   UNL     1      43.939 -20.909   2.102  1.00  0.00     0.002 A 
HETATM   33  C   UNL     1      43.092 -19.799   2.014  1.00  0.00     0.031 A 
ENDBRANCH   3  28
TORSDOF 6
ENDMDL
MODEL 6
REMARK VINA RESULT:      -8.2      2.997      6.271
REMARK  6 active torsions:
REMARK  status: ('A' for Active; 'I' for Inactive)
REMARK    1  A    between atoms: O_2  and  C_3 
REMARK    2  A    between atoms: C_6  and  C_7 
REMARK    3  A    between atoms: N_9  and  C_10 
REMARK    4  A    between atoms: C_17  and  C_18 
REMARK       I    between atoms: C_18  and  N_19 
REMARK    5  A    between atoms: N_19  and  N_20 
REMARK       I    between atoms: N_20  and  C_21 
REMARK    6  A    between atoms: C_21  and  C_22 
ROOT
HETATM    1  C   UNL     1      42.556 -15.983   1.858  1.00  0.00     0.105 A 
HETATM    2  N   UNL     1      42.024 -16.090   0.625  1.00  0.00    -0.166 NA
HETATM    3  N   UNL     1      41.671 -14.848   0.242  1.00  0.00    -0.244 N 
HETATM    4  C   UNL     1      41.969 -13.930   1.213  1.00  0.00     0.138 A 
HETATM    5  C   UNL     1      42.536 -14.615   2.276  1.00  0.00     0.082 A 
ENDROOT
BRANCH   5   6
HETATM    6  C   UNL     1      42.966 -13.973   3.504  1.00  0.00     0.274 C 
HETATM    7  N   UNL     1      41.956 -13.849   4.438  1.00  0.00    -0.263 N 
HETATM    8  H   UNL     1      40.986 -14.091   4.245  1.00  0.00     0.190 HD
HETATM    9  O   UNL     1      44.109 -13.580   3.715  1.00  0.00    -0.266 OA
BRANCH   7  10
HETATM   10  N   UNL     1      42.204 -13.192   5.647  1.00  0.00    -0.262 N 
HETATM   11  C   UNL     1      41.697 -11.921   5.816  1.00  0.00     0.286 C 
HETATM   12  O   UNL     1      41.062 -11.359   4.923  1.00  0.00    -0.264 OA
HETATM   13  H   UNL     1      42.691 -13.711   6.372  1.00  0.00     0.190 HD
BRANCH  11  14
HETATM   14  C   UNL     1      41.953 -11.303   7.096  1.00  0.00     0.102 A 
HETATM   15  N   UNL     1      42.937 -11.781   7.936  1.00  0.00    -0.361 N 
HETATM   16  H   UNL     1      43.528 -12.575   7.715  1.00  0.00     0.165 HD
HETATM   17  C   UNL     1      42.990 -11.034   9.082  1.00  0.00     0.088 A 
HETATM   18  C   UNL     1      42.025 -10.060   8.993  1.00  0.00     0.019 A 
HETATM   19  C   UNL     1      41.370 -10.226   7.748  1.00  0.00     0.036 A 
ENDBRANCH  11  14
ENDBRANCH   7  10
ENDBRANCH   5   6
BRANCH   1  20
HETATM   20  C   UNL     1      43.086 -17.206   2.502  1.00  0.00    -0.004 A 
HETATM   21  C   UNL     1      43.279 -18.368   1.730  1.00  0.00     0.016 A 
HETATM   22  C   UNL     1      43.825 -19.539   2.272  1.00  0.00     0.037 A 
HETATM   23  C   UNL     1      44.189 -19.579   3.614  1.00  0.00     0.068 A 
HETATM   24  C   UNL     1      43.987 -18.446   4.399  1.00  0.00     0.037 A 
HETATM   25  C   UNL     1      43.457 -17.269   3.849  1.00  0.00     0.016 A 
BRANCH  23  26
HETATM   26  O   UNL     1      44.737 -20.647   4.268  1.00  0.00    -0.356 OA
HETATM   27  C   UNL     1      44.627 -21.910   3.623  1.00  0.00     0.210 C 
ENDBRANCH  23  26
ENDBRANCH   1  20
BRANCH   3  28
HETATM   28  C   UNL     1      41.087 -14.614  -1.035  1.00  0.00     0.058 A 
HETATM   29  C   UNL     1      40.997 -15.669  -1.956  1.00  0.00     0.031 A 
HETATM   30  C   UNL     1      40.437 -15.458  -3.218  1.00  0.00     0.002 A 
HETATM   31  C   UNL     1      39.963 -14.196  -3.570  1.00  0.00     0.000 A 
HETATM   32  C   UNL     1      40.046 -13.144  -2.660  1.00  0.00     0.002 A 
HETATM   33  C   UNL     1      40.605 -13.347  -1.395  1.00  0.00     0.031 A 
ENDBRANCH   3  28
TORSDOF 6
ENDMDL
MODEL 7
REMARK VINA RESULT:      -8.2      3.027      7.345
REMARK  6 active torsions:
REMARK  status: ('A' for Active; 'I' for Inactive)
REMARK    1  A    between atoms: O_2  and  C_3 
REMARK    2  A    between atoms: C_6  and  C_7 
REMARK    3  A    between atoms: N_9  and  C_10 
REMARK    4  A    between atoms: C_17  and  C_18 
REMARK       I    between atoms: C_18  and  N_19 
REMARK    5  A    between atoms: N_19  and  N_20 
REMARK       I    between atoms: N_20  and  C_21 
REMARK    6  A    between atoms: C_21  and  C_22 
ROOT
HETATM    1  C   UNL     1      41.957 -15.957   3.061  1.00  0.00     0.105 A 
HETATM    2  N   UNL     1      42.501 -17.081   3.567  1.00  0.00    -0.166 NA
HETATM    3  N   UNL     1      42.799 -17.877   2.523  1.00  0.00    -0.244 N 
HETATM    4  C   UNL     1      42.457 -17.283   1.338  1.00  0.00     0.138 A 
HETATM    5  C   UNL     1      41.905 -16.046   1.634  1.00  0.00     0.082 A 
ENDROOT
BRANCH   5   6
HETATM    6  C   UNL     1      41.404 -15.130   0.625  1.00  0.00     0.274 C 
HETATM    7  N   UNL     1      40.144 -15.460   0.165  1.00  0.00    -0.263 N 
HETATM    8  H   UNL     1      39.661 -16.316   0.432  1.00  0.00     0.190 HD
HETATM    9  O   UNL     1      42.018 -14.151   0.216  1.00  0.00    -0.266 OA
BRANCH   7  10
HETATM   10  N   UNL     1      39.558 -14.706  -0.855  1.00  0.00    -0.262 N 
HETATM   11  C   UNL     1      38.425 -13.976  -0.559  1.00  0.00     0.286 C 
HETATM   12  O   UNL     1      37.921 -14.000   0.564  1.00  0.00    -0.264 OA
HETATM   13  H   UNL     1      40.034 -14.680  -1.752  1.00  0.00     0.190 HD
BRANCH  11  14
HETATM   14  C   UNL     1      37.882 -13.189  -1.641  1.00  0.00     0.102 A 
HETATM   15  N   UNL     1      37.238 -11.992  -1.400  1.00  0.00    -0.361 N 
HETATM   16  H   UNL     1      37.110 -11.599  -0.474  1.00  0.00     0.165 HD
HETATM   17  C   UNL     1      36.815 -11.433  -2.576  1.00  0.00     0.088 A 
HETATM   18  C   UNL     1      37.180 -12.277  -3.597  1.00  0.00     0.019 A 
HETATM   19  C   UNL     1      37.849 -13.382  -3.014  1.00  0.00     0.036 A 
ENDBRANCH  11  14
ENDBRANCH   7  10
ENDBRANCH   5   6
BRANCH   1  20
HETATM   20  C   UNL     1      41.586 -14.874   3.998  1.00  0.00    -0.004 A 
HETATM   21  C   UNL     1      40.236 -14.707   4.364  1.00  0.00     0.016 A 
HETATM   22  C   UNL     1      39.830 -13.732   5.286  1.00  0.00     0.037 A 
HETATM   23  C   UNL     1      40.772 -12.889   5.865  1.00  0.00     0.068 A 
HETATM   24  C   UNL     1      42.110 -13.025   5.499  1.00  0.00     0.037 A 
HETATM   25  C   UNL     1      42.516 -14.014   4.590  1.00  0.00     0.016 A 
BRANCH  23  26
HETATM   26  O   UNL     1      40.518 -11.905   6.779  1.00  0.00    -0.356 OA
HETATM   27  C   UNL     1      41.619 -11.084   7.149  1.00  0.00     0.210 C 
ENDBRANCH  23  26
ENDBRANCH   1  20
BRANCH   3  28
HETATM   28  C   UNL     1      43.407 -19.148   2.721  1.00  0.00     0.058 A 
HETATM   29  C   UNL     1      43.226 -20.156   1.761  1.00  0.00     0.031 A 
HETATM   30  C   UNL     1      43.806 -21.414   1.941  1.00  0.00     0.002 A 
HETATM   31  C   UNL     1      44.569 -21.676   3.077  1.00  0.00     0.000 A 
HETATM   32  C   UNL     1      44.756 -20.680   4.034  1.00  0.00     0.002 A 
HETATM   33  C   UNL     1      44.179 -19.418   3.861  1.00  0.00     0.031 A 
ENDBRANCH   3  28
TORSDOF 6
ENDMDL
MODEL 8
REMARK VINA RESULT:      -8.1      2.538      8.777
REMARK  6 active torsions:
REMARK  status: ('A' for Active; 'I' for Inactive)
REMARK    1  A    between atoms: O_2  and  C_3 
REMARK    2  A    between atoms: C_6  and  C_7 
REMARK    3  A    between atoms: N_9  and  C_10 
REMARK    4  A    between atoms: C_17  and  C_18 
REMARK       I    between atoms: C_18  and  N_19 
REMARK    5  A    between atoms: N_19  and  N_20 
REMARK       I    between atoms: N_20  and  C_21 
REMARK    6  A    between atoms: C_21  and  C_22 
ROOT
HETATM    1  C   UNL     1      43.623 -15.013   6.007  1.00  0.00     0.105 A 
HETATM    2  N   UNL     1      44.201 -14.464   7.094  1.00  0.00    -0.166 NA
HETATM    3  N   UNL     1      43.743 -13.201   7.185  1.00  0.00    -0.244 N 
HETATM    4  C   UNL     1      42.869 -12.920   6.169  1.00  0.00     0.138 A 
HETATM    5  C   UNL     1      42.765 -14.055   5.381  1.00  0.00     0.082 A 
ENDROOT
BRANCH   5   6
HETATM    6  C   UNL     1      41.938 -14.130   4.191  1.00  0.00     0.274 C 
HETATM    7  N   UNL     1      42.634 -13.877   3.025  1.00  0.00    -0.263 N 
HETATM    8  H   UNL     1      43.605 -13.569   3.013  1.00  0.00     0.190 HD
HETATM    9  O   UNL     1      40.741 -14.399   4.197  1.00  0.00    -0.266 OA
BRANCH   7  10
HETATM   10  N   UNL     1      41.957 -13.851   1.803  1.00  0.00    -0.262 N 
HETATM   11  C   UNL     1      42.010 -14.972   1.002  1.00  0.00     0.286 C 
HETATM   12  O   UNL     1      42.654 -15.968   1.333  1.00  0.00    -0.264 OA
HETATM   13  H   UNL     1      41.401 -13.027   1.593  1.00  0.00     0.190 HD
BRANCH  11  14
HETATM   14  C   UNL     1      41.264 -14.903  -0.233  1.00  0.00     0.102 A 
HETATM   15  N   UNL     1      41.598 -15.692  -1.315  1.00  0.00    -0.361 N 
HETATM   16  H   UNL     1      42.366 -16.353  -1.312  1.00  0.00     0.165 HD
HETATM   17  C   UNL     1      40.749 -15.449  -2.361  1.00  0.00     0.088 A 
HETATM   18  C   UNL     1      39.854 -14.486  -1.961  1.00  0.00     0.019 A 
HETATM   19  C   UNL     1      40.175 -14.139  -0.625  1.00  0.00     0.036 A 
ENDBRANCH  11  14
ENDBRANCH   7  10
ENDBRANCH   5   6
BRANCH   1  20
HETATM   20  C   UNL     1      43.911 -16.432   5.701  1.00  0.00    -0.004 A 
HETATM   21  C   UNL     1      44.720 -17.180   6.579  1.00  0.00     0.016 A 
HETATM   22  C   UNL     1      44.985 -18.540   6.368  1.00  0.00     0.037 A 
HETATM   23  C   UNL     1      44.448 -19.190   5.262  1.00  0.00     0.068 A 
HETATM   24  C   UNL     1      43.663 -18.461   4.372  1.00  0.00     0.037 A 
HETATM   25  C   UNL     1      43.383 -17.104   4.595  1.00  0.00     0.016 A 
BRANCH  23  26
HETATM   26  O   UNL     1      44.619 -20.507   4.941  1.00  0.00    -0.356 OA
HETATM   27  C   UNL     1      44.772 -20.808   3.560  1.00  0.00     0.210 C 
ENDBRANCH  23  26
ENDBRANCH   1  20
BRANCH   3  28
HETATM   28  C   UNL     1      44.155 -12.347   8.247  1.00  0.00     0.058 A 
HETATM   29  C   UNL     1      45.469 -12.433   8.729  1.00  0.00     0.031 A 
HETATM   30  C   UNL     1      45.891 -11.612   9.778  1.00  0.00     0.002 A 
HETATM   31  C   UNL     1      45.006 -10.702  10.352  1.00  0.00     0.000 A 
HETATM   32  C   UNL     1      43.699 -10.609   9.878  1.00  0.00     0.002 A 
HETATM   33  C   UNL     1      43.270 -11.427   8.828  1.00  0.00     0.031 A 
ENDBRANCH   3  28
TORSDOF 6
ENDMDL
MODEL 9
REMARK VINA RESULT:      -8.1      2.532      8.600
REMARK  6 active torsions:
REMARK  status: ('A' for Active; 'I' for Inactive)
REMARK    1  A    between atoms: O_2  and  C_3 
REMARK    2  A    between atoms: C_6  and  C_7 
REMARK    3  A    between atoms: N_9  and  C_10 
REMARK    4  A    between atoms: C_17  and  C_18 
REMARK       I    between atoms: C_18  and  N_19 
REMARK    5  A    between atoms: N_19  and  N_20 
REMARK       I    between atoms: N_20  and  C_21 
REMARK    6  A    between atoms: C_21  and  C_22 
ROOT
HETATM    1  C   UNL     1      43.874 -15.857   6.475  1.00  0.00     0.105 A 
HETATM    2  N   UNL     1      44.655 -15.192   7.349  1.00  0.00    -0.166 NA
HETATM    3  N   UNL     1      44.324 -13.890   7.258  1.00  0.00    -0.244 N 
HETATM    4  C   UNL     1      43.333 -13.697   6.334  1.00  0.00     0.138 A 
HETATM    5  C   UNL     1      43.013 -14.935   5.798  1.00  0.00     0.082 A 
ENDROOT
BRANCH   5   6
HETATM    6  C   UNL     1      42.011 -15.127   4.766  1.00  0.00     0.274 C 
HETATM    7  N   UNL     1      41.242 -14.004   4.535  1.00  0.00    -0.263 N 
HETATM    8  H   UNL     1      41.304 -13.160   5.103  1.00  0.00     0.190 HD
HETATM    9  O   UNL     1      41.854 -16.172   4.143  1.00  0.00    -0.266 OA
BRANCH   7  10
HETATM   10  N   UNL     1      40.192 -14.057   3.613  1.00  0.00    -0.262 N 
HETATM   11  C   UNL     1      39.831 -12.894   2.966  1.00  0.00     0.286 C 
HETATM   12  O   UNL     1      40.395 -11.826   3.204  1.00  0.00    -0.264 OA
HETATM   13  H   UNL     1      39.789 -14.968   3.415  1.00  0.00     0.190 HD
BRANCH  11  14
HETATM   14  C   UNL     1      38.765 -13.015   1.999  1.00  0.00     0.102 A 
HETATM   15  N   UNL     1      38.434 -14.236   1.448  1.00  0.00    -0.361 N 
HETATM   16  H   UNL     1      38.904 -15.103   1.681  1.00  0.00     0.165 HD
HETATM   17  C   UNL     1      37.397 -14.095   0.566  1.00  0.00     0.088 A 
HETATM   18  C   UNL     1      37.051 -12.765   0.534  1.00  0.00     0.019 A 
HETATM   19  C   UNL     1      37.908 -12.083   1.432  1.00  0.00     0.036 A 
ENDBRANCH  11  14
ENDBRANCH   7  10
ENDBRANCH   5   6
BRANCH   1  20
HETATM   20  C   UNL     1      43.990 -17.330   6.409  1.00  0.00    -0.004 A 
HETATM   21  C   UNL     1      43.643 -18.104   7.535  1.00  0.00     0.016 A 
HETATM   22  C   UNL     1      43.684 -19.505   7.516  1.00  0.00     0.037 A 
HETATM   23  C   UNL     1      44.083 -20.172   6.363  1.00  0.00     0.068 A 
HETATM   24  C   UNL     1      44.450 -19.424   5.246  1.00  0.00     0.037 A 
HETATM   25  C   UNL     1      44.390 -18.022   5.262  1.00  0.00     0.016 A 
BRANCH  23  26
HETATM   26  O   UNL     1      44.162 -21.528   6.204  1.00  0.00    -0.356 OA
HETATM   27  C   UNL     1      44.940 -21.993   5.109  1.00  0.00     0.210 C 
ENDBRANCH  23  26
ENDBRANCH   1  20
BRANCH   3  28
HETATM   28  C   UNL     1      44.964 -12.913   8.072  1.00  0.00     0.058 A 
HETATM   29  C   UNL     1      46.265 -12.495   7.752  1.00  0.00     0.031 A 
HETATM   30  C   UNL     1      46.915 -11.546   8.544  1.00  0.00     0.002 A 
HETATM   31  C   UNL     1      46.274 -11.007   9.657  1.00  0.00     0.000 A 
HETATM   32  C   UNL     1      44.981 -11.415   9.981  1.00  0.00     0.002 A 
HETATM   33  C   UNL     1      44.323 -12.365   9.193  1.00  0.00     0.031 A 
ENDBRANCH   3  28
TORSDOF 6
ENDMDL
MODEL 10
REMARK VINA RESULT:      -8.1      2.230      7.144
REMARK  6 active torsions:
REMARK  status: ('A' for Active; 'I' for Inactive)
REMARK    1  A    between atoms: O_2  and  C_3 
REMARK    2  A    between atoms: C_6  and  C_7 
REMARK    3  A    between atoms: N_9  and  C_10 
REMARK    4  A    between atoms: C_17  and  C_18 
REMARK       I    between atoms: C_18  and  N_19 
REMARK    5  A    between atoms: N_19  and  N_20 
REMARK       I    between atoms: N_20  and  C_21 
REMARK    6  A    between atoms: C_21  and  C_22 
ROOT
HETATM    1  C   UNL     1      42.852 -16.743   4.270  1.00  0.00     0.105 A 
HETATM    2  N   UNL     1      43.579 -17.877   4.313  1.00  0.00    -0.166 NA
HETATM    3  N   UNL     1      43.121 -18.674   3.329  1.00  0.00    -0.244 N 
HETATM    4  C   UNL     1      42.103 -18.071   2.641  1.00  0.00     0.138 A 
HETATM    5  C   UNL     1      41.890 -16.827   3.214  1.00  0.00     0.082 A 
ENDROOT
BRANCH   5   6
HETATM    6  C   UNL     1      40.869 -15.900   2.761  1.00  0.00     0.274 C 
HETATM    7  N   UNL     1      40.666 -15.935   1.395  1.00  0.00    -0.263 N 
HETATM    8  H   UNL     1      41.246 -16.481   0.760  1.00  0.00     0.190 HD
HETATM    9  O   UNL     1      40.232 -15.159   3.502  1.00  0.00    -0.266 OA
BRANCH   7  10
HETATM   10  N   UNL     1      39.758 -15.051   0.805  1.00  0.00    -0.262 N 
HETATM   11  C   UNL     1      40.156 -14.362  -0.321  1.00  0.00     0.286 C 
HETATM   12  O   UNL     1      41.288 -14.494  -0.789  1.00  0.00    -0.264 OA
HETATM   13  H   UNL     1      38.822 -15.010   1.196  1.00  0.00     0.190 HD
BRANCH  11  14
HETATM   14  C   UNL     1      39.168 -13.489  -0.910  1.00  0.00     0.102 A 
HETATM   15  N   UNL     1      39.225 -13.142  -2.245  1.00  0.00    -0.361 N 
HETATM   16  H   UNL     1      39.945 -13.468  -2.880  1.00  0.00     0.165 HD
HETATM   17  C   UNL     1      38.184 -12.313  -2.567  1.00  0.00     0.088 A 
HETATM   18  C   UNL     1      37.441 -12.110  -1.428  1.00  0.00     0.019 A 
HETATM   19  C   UNL     1      38.056 -12.847  -0.385  1.00  0.00     0.036 A 
ENDBRANCH  11  14
ENDBRANCH   7  10
ENDBRANCH   5   6
BRANCH   1  20
HETATM   20  C   UNL     1      43.188 -15.658   5.217  1.00  0.00    -0.004 A 
HETATM   21  C   UNL     1      43.949 -15.951   6.366  1.00  0.00     0.016 A 
HETATM   22  C   UNL     1      44.341 -14.957   7.272  1.00  0.00     0.037 A 
HETATM   23  C   UNL     1      43.973 -13.633   7.054  1.00  0.00     0.068 A 
HETATM   24  C   UNL     1      43.203 -13.327   5.934  1.00  0.00     0.037 A 
HETATM   25  C   UNL     1      42.827 -14.322   5.018  1.00  0.00     0.016 A 
BRANCH  23  26
HETATM   26  O   UNL     1      44.291 -12.568   7.848  1.00  0.00    -0.356 OA
HETATM   27  C   UNL     1      45.549 -12.623   8.509  1.00  0.00     0.210 C 
ENDBRANCH  23  26
ENDBRANCH   1  20
BRANCH   3  28
HETATM   28  C   UNL     1      43.696 -19.955   3.096  1.00  0.00     0.058 A 
HETATM   29  C   UNL     1      43.501 -20.583   1.857  1.00  0.00     0.031 A 
HETATM   30  C   UNL     1      44.048 -21.845   1.612  1.00  0.00     0.002 A 
HETATM   31  C   UNL     1      44.791 -22.488   2.599  1.00  0.00     0.000 A 
HETATM   32  C   UNL     1      44.992 -21.870   3.832  1.00  0.00     0.002 A 
HETATM   33  C   UNL     1      44.448 -20.607   4.085  1.00  0.00     0.031 A 
ENDBRANCH   3  28
TORSDOF 6
ENDMDL
