MODEL 1
REMARK VINA RESULT:      -8.2      0.000      0.000
REMARK  4 active torsions:
REMARK  status: ('A' for Active; 'I' for Inactive)
REMARK    1  A    between atoms: O_2  and  C_3 
REMARK    2  A    between atoms: C_7  and  N_8 
REMARK       I    between atoms: N_8  and  C_9 
REMARK    3  A    between atoms: C_9  and  C_10 
REMARK    4  A    between atoms: C_12  and  C_13 
ROOT
HETATM    1  N   UNL     1      42.031 -14.915   3.911  1.00  0.00    -0.320 N 
HETATM    2  C   UNL     1      42.957 -15.824   4.390  1.00  0.00     0.256 C 
HETATM    3  O   UNL     1      43.474 -15.798   5.502  1.00  0.00    -0.267 OA
HETATM    4  H   UNL     1      41.751 -14.975   2.940  1.00  0.00     0.169 HD
ENDROOT
BRANCH   2   5
HETATM    5  C   UNL     1      43.353 -16.918   3.449  1.00  0.00     0.033 A 
HETATM    6  C   UNL     1      43.669 -18.215   3.884  1.00  0.00     0.029 A 
HETATM    7  C   UNL     1      44.054 -19.207   2.967  1.00  0.00    -0.023 A 
HETATM    8  C   UNL     1      44.143 -18.871   1.608  1.00  0.00     0.012 A 
HETATM    9  C   UNL     1      43.848 -17.579   1.171  1.00  0.00     0.002 A 
HETATM   10  C   UNL     1      43.455 -16.606   2.087  1.00  0.00     0.017 A 
BRANCH   7  11
HETATM   11  C   UNL     1      44.364 -20.553   3.437  1.00  0.00    -0.002 A 
HETATM   12  C   UNL     1      44.315 -21.690   2.654  1.00  0.00     0.153 A 
HETATM   13  O   UNL     1      44.639 -22.794   3.376  1.00  0.00    -0.334 OA
HETATM   14  C   UNL     1      44.897 -22.377   4.639  1.00  0.00     0.142 A 
HETATM   15  C   UNL     1      44.741 -21.013   4.732  1.00  0.00     0.038 A 
ENDBRANCH   7  11
ENDBRANCH   2   5
BRANCH   1  16
HETATM   16  C   UNL     1      41.422 -13.857   4.625  1.00  0.00     0.077 A 
HETATM   17  C   UNL     1      41.849 -12.532   4.597  1.00  0.00     0.077 A 
HETATM   18  C   UNL     1      41.193 -11.566   5.367  1.00  0.00     0.152 A 
HETATM   19  C   UNL     1      40.107 -11.900   6.182  1.00  0.00     0.109 A 
HETATM   20  F   UNL     1      41.645 -10.307   5.291  1.00  0.00    -0.203 F 
HETATM   21  C   UNL     1      39.670 -13.226   6.202  1.00  0.00     0.084 A 
HETATM   22  C   UNL     1      40.324 -14.183   5.431  1.00  0.00     0.145 A 
HETATM   23  F   UNL     1      39.898 -15.456   5.477  1.00  0.00    -0.204 F 
BRANCH  19  24
HETATM   24  O   UNL     1      39.390 -11.064   6.993  1.00  0.00    -0.353 OA
HETATM   25  C   UNL     1      39.398 -11.352   8.387  1.00  0.00     0.210 C 
ENDBRANCH  19  24
ENDBRANCH   1  16
TORSDOF 4
ENDMDL
MODEL 2
REMARK VINA RESULT:      -8.1      2.784      3.542
REMARK  4 active torsions:
REMARK  status: ('A' for Active; 'I' for Inactive)
REMARK    1  A    between atoms: O_2  and  C_3 
REMARK    2  A    between atoms: C_7  and  N_8 
REMARK       I    between atoms: N_8  and  C_9 
REMARK    3  A    between atoms: C_9  and  C_10 
REMARK    4  A    between atoms: C_12  and  C_13 
ROOT
HETATM    1  N   UNL     1      41.866 -15.889   3.252  1.00  0.00    -0.320 N 
HETATM    2  C   UNL     1      42.164 -16.213   4.562  1.00  0.00     0.256 C 
HETATM    3  O   UNL     1      41.697 -15.669   5.557  1.00  0.00    -0.267 OA
HETATM    4  H   UNL     1      42.392 -16.336   2.510  1.00  0.00     0.169 HD
ENDROOT
BRANCH   2   5
HETATM    5  C   UNL     1      43.153 -17.319   4.758  1.00  0.00     0.033 A 
HETATM    6  C   UNL     1      43.215 -18.440   3.914  1.00  0.00     0.029 A 
HETATM    7  C   UNL     1      44.147 -19.465   4.146  1.00  0.00    -0.023 A 
HETATM    8  C   UNL     1      45.002 -19.360   5.254  1.00  0.00     0.012 A 
HETATM    9  C   UNL     1      44.934 -18.258   6.106  1.00  0.00     0.002 A 
HETATM   10  C   UNL     1      44.014 -17.241   5.860  1.00  0.00     0.017 A 
BRANCH   7  11
HETATM   11  C   UNL     1      44.205 -20.614   3.249  1.00  0.00    -0.002 A 
HETATM   12  C   UNL     1      44.669 -21.866   3.605  1.00  0.00     0.153 A 
HETATM   13  O   UNL     1      44.616 -22.723   2.553  1.00  0.00    -0.334 OA
HETATM   14  C   UNL     1      44.119 -22.026   1.502  1.00  0.00     0.142 A 
HETATM   15  C   UNL     1      43.853 -20.729   1.873  1.00  0.00     0.038 A 
ENDBRANCH   7  11
ENDBRANCH   2   5
BRANCH   1  16
HETATM   16  C   UNL     1      40.901 -14.960   2.798  1.00  0.00     0.077 A 
HETATM   17  C   UNL     1      40.980 -13.582   2.982  1.00  0.00     0.077 A 
HETATM   18  C   UNL     1      39.953 -12.752   2.521  1.00  0.00     0.152 A 
HETATM   19  C   UNL     1      38.829 -13.276   1.875  1.00  0.00     0.109 A 
HETATM   20  F   UNL     1      40.089 -11.433   2.720  1.00  0.00    -0.203 F 
HETATM   21  C   UNL     1      38.755 -14.657   1.678  1.00  0.00     0.084 A 
HETATM   22  C   UNL     1      39.781 -15.478   2.136  1.00  0.00     0.145 A 
HETATM   23  F   UNL     1      39.682 -16.805   1.952  1.00  0.00    -0.204 F 
BRANCH  19  24
HETATM   24  O   UNL     1      37.752 -12.585   1.391  1.00  0.00    -0.353 OA
HETATM   25  C   UNL     1      37.497 -12.679  -0.007  1.00  0.00     0.210 C 
ENDBRANCH  19  24
ENDBRANCH   1  16
TORSDOF 4
ENDMDL
MODEL 3
REMARK VINA RESULT:      -7.9      4.076      5.045
REMARK  4 active torsions:
REMARK  status: ('A' for Active; 'I' for Inactive)
REMARK    1  A    between atoms: O_2  and  C_3 
REMARK    2  A    between atoms: C_7  and  N_8 
REMARK       I    between atoms: N_8  and  C_9 
REMARK    3  A    between atoms: C_9  and  C_10 
REMARK    4  A    between atoms: C_12  and  C_13 
ROOT
HETATM    1  N   UNL     1      41.078 -15.884   1.783  1.00  0.00    -0.320 N 
HETATM    2  C   UNL     1      41.976 -15.428   2.731  1.00  0.00     0.256 C 
HETATM    3  O   UNL     1      42.198 -14.252   2.997  1.00  0.00    -0.267 OA
HETATM    4  H   UNL     1      41.054 -16.875   1.576  1.00  0.00     0.169 HD
ENDROOT
BRANCH   2   5
HETATM    5  C   UNL     1      42.738 -16.479   3.474  1.00  0.00     0.033 A 
HETATM    6  C   UNL     1      42.985 -17.756   2.944  1.00  0.00     0.029 A 
HETATM    7  C   UNL     1      43.689 -18.719   3.685  1.00  0.00    -0.023 A 
HETATM    8  C   UNL     1      44.123 -18.390   4.978  1.00  0.00     0.012 A 
HETATM    9  C   UNL     1      43.866 -17.129   5.518  1.00  0.00     0.002 A 
HETATM   10  C   UNL     1      43.177 -16.177   4.770  1.00  0.00     0.017 A 
BRANCH   7  11
HETATM   11  C   UNL     1      43.947 -20.035   3.111  1.00  0.00    -0.002 A 
HETATM   12  C   UNL     1      44.682 -21.031   3.725  1.00  0.00     0.153 A 
HETATM   13  O   UNL     1      44.763 -22.134   2.938  1.00  0.00    -0.334 OA
HETATM   14  C   UNL     1      44.080 -21.857   1.801  1.00  0.00     0.142 A 
HETATM   15  C   UNL     1      43.562 -20.584   1.853  1.00  0.00     0.038 A 
ENDBRANCH   7  11
ENDBRANCH   2   5
BRANCH   1  16
HETATM   16  C   UNL     1      40.171 -15.110   1.022  1.00  0.00     0.077 A 
HETATM   17  C   UNL     1      38.876 -14.788   1.419  1.00  0.00     0.077 A 
HETATM   18  C   UNL     1      38.048 -14.042   0.575  1.00  0.00     0.152 A 
HETATM   19  C   UNL     1      38.488 -13.609  -0.680  1.00  0.00     0.109 A 
HETATM   20  F   UNL     1      36.815 -13.755   1.017  1.00  0.00    -0.203 F 
HETATM   21  C   UNL     1      39.790 -13.922  -1.075  1.00  0.00     0.084 A 
HETATM   22  C   UNL     1      40.613 -14.662  -0.229  1.00  0.00     0.145 A 
HETATM   23  F   UNL     1      41.856 -14.966  -0.635  1.00  0.00    -0.204 F 
BRANCH  19  24
HETATM   24  O   UNL     1      37.781 -12.892  -1.606  1.00  0.00    -0.353 OA
HETATM   25  C   UNL     1      37.746 -13.407  -2.933  1.00  0.00     0.210 C 
ENDBRANCH  19  24
ENDBRANCH   1  16
TORSDOF 4
ENDMDL
MODEL 4
REMARK VINA RESULT:      -7.8      4.740      6.003
REMARK  4 active torsions:
REMARK  status: ('A' for Active; 'I' for Inactive)
REMARK    1  A    between atoms: O_2  and  C_3 
REMARK    2  A    between atoms: C_7  and  N_8 
REMARK       I    between atoms: N_8  and  C_9 
REMARK    3  A    between atoms: C_9  and  C_10 
REMARK    4  A    between atoms: C_12  and  C_13 
ROOT
HETATM    1  N   UNL     1      42.077 -15.708   0.284  1.00  0.00    -0.320 N 
HETATM    2  C   UNL     1      41.456 -16.168   1.430  1.00  0.00     0.256 C 
HETATM    3  O   UNL     1      40.278 -15.995   1.724  1.00  0.00    -0.267 OA
HETATM    4  H   UNL     1      43.080 -15.821   0.197  1.00  0.00     0.169 HD
ENDROOT
BRANCH   2   5
HETATM    5  C   UNL     1      42.319 -16.932   2.385  1.00  0.00     0.033 A 
HETATM    6  C   UNL     1      42.707 -18.263   2.159  1.00  0.00     0.029 A 
HETATM    7  C   UNL     1      43.503 -18.948   3.092  1.00  0.00    -0.023 A 
HETATM    8  C   UNL     1      43.884 -18.286   4.268  1.00  0.00     0.012 A 
HETATM    9  C   UNL     1      43.487 -16.969   4.508  1.00  0.00     0.002 A 
HETATM   10  C   UNL     1      42.708 -16.295   3.570  1.00  0.00     0.017 A 
BRANCH   7  11
HETATM   11  C   UNL     1      43.907 -20.325   2.832  1.00  0.00    -0.002 A 
HETATM   12  C   UNL     1      43.600 -21.031   1.684  1.00  0.00     0.153 A 
HETATM   13  O   UNL     1      44.098 -22.294   1.740  1.00  0.00    -0.334 OA
HETATM   14  C   UNL     1      44.729 -22.415   2.933  1.00  0.00     0.142 A 
HETATM   15  C   UNL     1      44.640 -21.240   3.642  1.00  0.00     0.038 A 
ENDBRANCH   7  11
ENDBRANCH   2   5
BRANCH   1  16
HETATM   16  C   UNL     1      41.471 -15.053  -0.813  1.00  0.00     0.077 A 
HETATM   17  C   UNL     1      40.964 -15.697  -1.939  1.00  0.00     0.077 A 
HETATM   18  C   UNL     1      40.412 -14.952  -2.986  1.00  0.00     0.152 A 
HETATM   19  C   UNL     1      40.359 -13.555  -2.935  1.00  0.00     0.109 A 
HETATM   20  F   UNL     1      39.933 -15.628  -4.039  1.00  0.00    -0.203 F 
HETATM   21  C   UNL     1      40.856 -12.909  -1.802  1.00  0.00     0.084 A 
HETATM   22  C   UNL     1      41.401 -13.656  -0.761  1.00  0.00     0.145 A 
HETATM   23  F   UNL     1      41.889 -13.013   0.313  1.00  0.00    -0.204 F 
BRANCH  19  24
HETATM   24  O   UNL     1      39.865 -12.708  -3.889  1.00  0.00    -0.353 OA
HETATM   25  C   UNL     1      38.709 -11.951  -3.546  1.00  0.00     0.210 C 
ENDBRANCH  19  24
ENDBRANCH   1  16
TORSDOF 4
ENDMDL
MODEL 5
REMARK VINA RESULT:      -7.7      4.725      6.338
REMARK  4 active torsions:
REMARK  status: ('A' for Active; 'I' for Inactive)
REMARK    1  A    between atoms: O_2  and  C_3 
REMARK    2  A    between atoms: C_7  and  N_8 
REMARK       I    between atoms: N_8  and  C_9 
REMARK    3  A    between atoms: C_9  and  C_10 
REMARK    4  A    between atoms: C_12  and  C_13 
ROOT
HETATM    1  N   UNL     1      42.116 -16.228   0.409  1.00  0.00    -0.320 N 
HETATM    2  C   UNL     1      41.474 -16.902   1.432  1.00  0.00     0.256 C 
HETATM    3  O   UNL     1      40.275 -16.849   1.681  1.00  0.00    -0.267 OA
HETATM    4  H   UNL     1      43.127 -16.265   0.364  1.00  0.00     0.169 HD
ENDROOT
BRANCH   2   5
HETATM    5  C   UNL     1      42.342 -17.754   2.305  1.00  0.00     0.033 A 
HETATM    6  C   UNL     1      42.469 -17.541   3.688  1.00  0.00     0.029 A 
HETATM    7  C   UNL     1      43.310 -18.353   4.466  1.00  0.00    -0.023 A 
HETATM    8  C   UNL     1      44.041 -19.369   3.832  1.00  0.00     0.012 A 
HETATM    9  C   UNL     1      43.933 -19.575   2.456  1.00  0.00     0.002 A 
HETATM   10  C   UNL     1      43.087 -18.771   1.696  1.00  0.00     0.017 A 
BRANCH   7  11
HETATM   11  C   UNL     1      43.418 -18.124   5.903  1.00  0.00    -0.002 A 
HETATM   12  C   UNL     1      44.284 -18.798   6.743  1.00  0.00     0.153 A 
HETATM   13  O   UNL     1      44.141 -18.380   8.027  1.00  0.00    -0.334 OA
HETATM   14  C   UNL     1      43.173 -17.431   8.027  1.00  0.00     0.142 A 
HETATM   15  C   UNL     1      42.695 -17.238   6.752  1.00  0.00     0.038 A 
ENDBRANCH   7  11
ENDBRANCH   2   5
BRANCH   1  16
HETATM   16  C   UNL     1      41.519 -15.446  -0.606  1.00  0.00     0.077 A 
HETATM   17  C   UNL     1      41.001 -15.952  -1.796  1.00  0.00     0.077 A 
HETATM   18  C   UNL     1      40.460 -15.086  -2.750  1.00  0.00     0.152 A 
HETATM   19  C   UNL     1      40.428 -13.703  -2.543  1.00  0.00     0.109 A 
HETATM   20  F   UNL     1      39.970 -15.633  -3.872  1.00  0.00    -0.203 F 
HETATM   21  C   UNL     1      40.935 -13.196  -1.346  1.00  0.00     0.084 A 
HETATM   22  C   UNL     1      41.470 -14.062  -0.397  1.00  0.00     0.145 A 
HETATM   23  F   UNL     1      41.968 -13.551   0.741  1.00  0.00    -0.204 F 
BRANCH  19  24
HETATM   24  O   UNL     1      39.946 -12.747  -3.395  1.00  0.00    -0.353 OA
HETATM   25  C   UNL     1      40.893 -11.849  -3.963  1.00  0.00     0.210 C 
ENDBRANCH  19  24
ENDBRANCH   1  16
TORSDOF 4
ENDMDL
MODEL 6
REMARK VINA RESULT:      -7.7      4.303      5.464
REMARK  4 active torsions:
REMARK  status: ('A' for Active; 'I' for Inactive)
REMARK    1  A    between atoms: O_2  and  C_3 
REMARK    2  A    between atoms: C_7  and  N_8 
REMARK       I    between atoms: N_8  and  C_9 
REMARK    3  A    between atoms: C_9  and  C_10 
REMARK    4  A    between atoms: C_12  and  C_13 
ROOT
HETATM    1  N   UNL     1      41.038 -16.058   1.929  1.00  0.00    -0.320 N 
HETATM    2  C   UNL     1      41.277 -17.392   1.658  1.00  0.00     0.256 C 
HETATM    3  O   UNL     1      40.726 -18.054   0.786  1.00  0.00    -0.267 OA
HETATM    4  H   UNL     1      41.476 -15.642   2.743  1.00  0.00     0.169 HD
ENDROOT
BRANCH   2   5
HETATM    5  C   UNL     1      42.292 -18.068   2.526  1.00  0.00     0.033 A 
HETATM    6  C   UNL     1      42.393 -17.828   3.906  1.00  0.00     0.029 A 
HETATM    7  C   UNL     1      43.373 -18.471   4.679  1.00  0.00    -0.023 A 
HETATM    8  C   UNL     1      44.270 -19.342   4.042  1.00  0.00     0.012 A 
HETATM    9  C   UNL     1      44.187 -19.572   2.668  1.00  0.00     0.002 A 
HETATM   10  C   UNL     1      43.203 -18.938   1.912  1.00  0.00     0.017 A 
BRANCH   7  11
HETATM   11  C   UNL     1      43.451 -18.218   6.113  1.00  0.00    -0.002 A 
HETATM   12  C   UNL     1      42.581 -17.407   6.817  1.00  0.00     0.153 A 
HETATM   13  O   UNL     1      42.920 -17.353   8.131  1.00  0.00    -0.334 OA
HETATM   14  C   UNL     1      44.020 -18.130   8.287  1.00  0.00     0.142 A 
HETATM   15  C   UNL     1      44.389 -18.681   7.081  1.00  0.00     0.038 A 
ENDBRANCH   7  11
ENDBRANCH   2   5
BRANCH   1  16
HETATM   16  C   UNL     1      40.210 -15.172   1.202  1.00  0.00     0.077 A 
HETATM   17  C   UNL     1      38.872 -14.917   1.495  1.00  0.00     0.077 A 
HETATM   18  C   UNL     1      38.131 -14.045   0.691  1.00  0.00     0.152 A 
HETATM   19  C   UNL     1      38.703 -13.416  -0.419  1.00  0.00     0.109 A 
HETATM   20  F   UNL     1      36.851 -13.833   1.028  1.00  0.00    -0.203 F 
HETATM   21  C   UNL     1      40.047 -13.661  -0.707  1.00  0.00     0.084 A 
HETATM   22  C   UNL     1      40.782 -14.528   0.099  1.00  0.00     0.145 A 
HETATM   23  F   UNL     1      42.069 -14.762  -0.206  1.00  0.00    -0.204 F 
BRANCH  19  24
HETATM   24  O   UNL     1      38.093 -12.559  -1.294  1.00  0.00    -0.353 OA
HETATM   25  C   UNL     1      38.760 -12.309  -2.527  1.00  0.00     0.210 C 
ENDBRANCH  19  24
ENDBRANCH   1  16
TORSDOF 4
ENDMDL
MODEL 7
REMARK VINA RESULT:      -7.6      1.944      2.297
REMARK  4 active torsions:
REMARK  status: ('A' for Active; 'I' for Inactive)
REMARK    1  A    between atoms: O_2  and  C_3 
REMARK    2  A    between atoms: C_7  and  N_8 
REMARK       I    between atoms: N_8  and  C_9 
REMARK    3  A    between atoms: C_9  and  C_10 
REMARK    4  A    between atoms: C_12  and  C_13 
ROOT
HETATM    1  N   UNL     1      41.250 -14.985   3.619  1.00  0.00    -0.320 N 
HETATM    2  C   UNL     1      42.609 -15.085   3.387  1.00  0.00     0.256 C 
HETATM    3  O   UNL     1      43.426 -14.182   3.526  1.00  0.00    -0.267 OA
HETATM    4  H   UNL     1      40.657 -15.767   3.370  1.00  0.00     0.169 HD
ENDROOT
BRANCH   2   5
HETATM    5  C   UNL     1      43.100 -16.418   2.915  1.00  0.00     0.033 A 
HETATM    6  C   UNL     1      43.406 -17.469   3.795  1.00  0.00     0.029 A 
HETATM    7  C   UNL     1      43.881 -18.698   3.309  1.00  0.00    -0.023 A 
HETATM    8  C   UNL     1      44.070 -18.850   1.927  1.00  0.00     0.012 A 
HETATM    9  C   UNL     1      43.784 -17.803   1.048  1.00  0.00     0.002 A 
HETATM   10  C   UNL     1      43.302 -16.592   1.540  1.00  0.00     0.017 A 
BRANCH   7  11
HETATM   11  C   UNL     1      44.180 -19.782   4.239  1.00  0.00    -0.002 A 
HETATM   12  C   UNL     1      43.929 -19.744   5.597  1.00  0.00     0.153 A 
HETATM   13  O   UNL     1      44.332 -20.893   6.199  1.00  0.00    -0.334 OA
HETATM   14  C   UNL     1      44.854 -21.683   5.231  1.00  0.00     0.142 A 
HETATM   15  C   UNL     1      44.788 -21.050   4.011  1.00  0.00     0.038 A 
ENDBRANCH   7  11
ENDBRANCH   2   5
BRANCH   1  16
HETATM   16  C   UNL     1      40.553 -13.879   4.159  1.00  0.00     0.077 A 
HETATM   17  C   UNL     1      40.172 -13.756   5.493  1.00  0.00     0.077 A 
HETATM   18  C   UNL     1      39.456 -12.633   5.918  1.00  0.00     0.152 A 
HETATM   19  C   UNL     1      39.102 -11.615   5.026  1.00  0.00     0.109 A 
HETATM   20  F   UNL     1      39.125 -12.568   7.215  1.00  0.00    -0.203 F 
HETATM   21  C   UNL     1      39.495 -11.731   3.692  1.00  0.00     0.084 A 
HETATM   22  C   UNL     1      40.210 -12.850   3.274  1.00  0.00     0.145 A 
HETATM   23  F   UNL     1      40.563 -12.949   1.981  1.00  0.00    -0.204 F 
BRANCH  19  24
HETATM   24  O   UNL     1      38.394 -10.478   5.304  1.00  0.00    -0.353 OA
HETATM   25  C   UNL     1      37.954  -9.703   4.193  1.00  0.00     0.210 C 
ENDBRANCH  19  24
ENDBRANCH   1  16
TORSDOF 4
ENDMDL
MODEL 8
REMARK VINA RESULT:      -7.5      4.312      8.054
REMARK  4 active torsions:
REMARK  status: ('A' for Active; 'I' for Inactive)
REMARK    1  A    between atoms: O_2  and  C_3 
REMARK    2  A    between atoms: C_7  and  N_8 
REMARK       I    between atoms: N_8  and  C_9 
REMARK    3  A    between atoms: C_9  and  C_10 
REMARK    4  A    between atoms: C_12  and  C_13 
ROOT
HETATM    1  N   UNL     1      42.057 -17.408   2.294  1.00  0.00    -0.320 N 
HETATM    2  C   UNL     1      41.165 -16.485   2.806  1.00  0.00     0.256 C 
HETATM    3  O   UNL     1      40.932 -16.299   3.996  1.00  0.00    -0.267 OA
HETATM    4  H   UNL     1      42.090 -17.546   1.291  1.00  0.00     0.169 HD
ENDROOT
BRANCH   2   5
HETATM    5  C   UNL     1      40.423 -15.659   1.802  1.00  0.00     0.033 A 
HETATM    6  C   UNL     1      40.975 -15.293   0.564  1.00  0.00     0.029 A 
HETATM    7  C   UNL     1      40.250 -14.501  -0.342  1.00  0.00    -0.023 A 
HETATM    8  C   UNL     1      38.969 -14.060   0.024  1.00  0.00     0.012 A 
HETATM    9  C   UNL     1      38.421 -14.406   1.260  1.00  0.00     0.002 A 
HETATM   10  C   UNL     1      39.144 -15.202   2.145  1.00  0.00     0.017 A 
BRANCH   7  11
HETATM   11  C   UNL     1      40.837 -14.143  -1.629  1.00  0.00    -0.002 A 
HETATM   12  C   UNL     1      40.446 -14.671  -2.845  1.00  0.00     0.153 A 
HETATM   13  O   UNL     1      41.188 -14.158  -3.860  1.00  0.00    -0.334 OA
HETATM   14  C   UNL     1      42.071 -13.293  -3.304  1.00  0.00     0.142 A 
HETATM   15  C   UNL     1      41.901 -13.248  -1.940  1.00  0.00     0.038 A 
ENDBRANCH   7  11
ENDBRANCH   2   5
BRANCH   1  16
HETATM   16  C   UNL     1      42.946 -18.234   3.021  1.00  0.00     0.077 A 
HETATM   17  C   UNL     1      43.636 -17.840   4.166  1.00  0.00     0.077 A 
HETATM   18  C   UNL     1      44.517 -18.726   4.793  1.00  0.00     0.152 A 
HETATM   19  C   UNL     1      44.734 -20.014   4.292  1.00  0.00     0.109 A 
HETATM   20  F   UNL     1      45.146 -18.293   5.895  1.00  0.00    -0.203 F 
HETATM   21  C   UNL     1      44.033 -20.413   3.152  1.00  0.00     0.084 A 
HETATM   22  C   UNL     1      43.154 -19.529   2.534  1.00  0.00     0.145 A 
HETATM   23  F   UNL     1      42.503 -19.928   1.428  1.00  0.00    -0.204 F 
BRANCH  19  24
HETATM   24  O   UNL     1      45.575 -20.969   4.794  1.00  0.00    -0.353 OA
HETATM   25  C   UNL     1      44.989 -22.207   5.182  1.00  0.00     0.210 C 
ENDBRANCH  19  24
ENDBRANCH   1  16
TORSDOF 4
ENDMDL
MODEL 9
REMARK VINA RESULT:      -7.5      4.666      8.660
REMARK  4 active torsions:
REMARK  status: ('A' for Active; 'I' for Inactive)
REMARK    1  A    between atoms: O_2  and  C_3 
REMARK    2  A    between atoms: C_7  and  N_8 
REMARK       I    between atoms: N_8  and  C_9 
REMARK    3  A    between atoms: C_9  and  C_10 
REMARK    4  A    between atoms: C_12  and  C_13 
ROOT
HETATM    1  N   UNL     1      41.921 -17.687   2.395  1.00  0.00    -0.320 N 
HETATM    2  C   UNL     1      42.188 -16.551   1.655  1.00  0.00     0.256 C 
HETATM    3  O   UNL     1      43.303 -16.143   1.348  1.00  0.00    -0.267 OA
HETATM    4  H   UNL     1      40.965 -17.868   2.676  1.00  0.00     0.169 HD
ENDROOT
BRANCH   2   5
HETATM    5  C   UNL     1      40.998 -15.761   1.208  1.00  0.00     0.033 A 
HETATM    6  C   UNL     1      40.951 -15.090  -0.025  1.00  0.00     0.029 A 
HETATM    7  C   UNL     1      39.820 -14.344  -0.396  1.00  0.00    -0.023 A 
HETATM    8  C   UNL     1      38.744 -14.261   0.501  1.00  0.00     0.012 A 
HETATM    9  C   UNL     1      38.791 -14.911   1.735  1.00  0.00     0.002 A 
HETATM   10  C   UNL     1      39.913 -15.657   2.088  1.00  0.00     0.017 A 
BRANCH   7  11
HETATM   11  C   UNL     1      39.786 -13.666  -1.687  1.00  0.00    -0.002 A 
HETATM   12  C   UNL     1      40.839 -13.625  -2.581  1.00  0.00     0.153 A 
HETATM   13  O   UNL     1      40.513 -12.904  -3.685  1.00  0.00    -0.334 OA
HETATM   14  C   UNL     1      39.242 -12.468  -3.510  1.00  0.00     0.142 A 
HETATM   15  C   UNL     1      38.751 -12.904  -2.301  1.00  0.00     0.038 A 
ENDBRANCH   7  11
ENDBRANCH   2   5
BRANCH   1  16
HETATM   16  C   UNL     1      42.851 -18.651   2.849  1.00  0.00     0.077 A 
HETATM   17  C   UNL     1      43.328 -19.713   2.083  1.00  0.00     0.077 A 
HETATM   18  C   UNL     1      44.224 -20.631   2.639  1.00  0.00     0.152 A 
HETATM   19  C   UNL     1      44.657 -20.515   3.964  1.00  0.00     0.109 A 
HETATM   20  F   UNL     1      44.655 -21.626   1.851  1.00  0.00    -0.203 F 
HETATM   21  C   UNL     1      44.189 -19.445   4.728  1.00  0.00     0.084 A 
HETATM   22  C   UNL     1      43.299 -18.531   4.169  1.00  0.00     0.145 A 
HETATM   23  F   UNL     1      42.848 -17.518   4.927  1.00  0.00    -0.204 F 
BRANCH  19  24
HETATM   24  O   UNL     1      45.512 -21.347   4.633  1.00  0.00    -0.353 OA
HETATM   25  C   UNL     1      44.988 -22.595   5.075  1.00  0.00     0.210 C 
ENDBRANCH  19  24
ENDBRANCH   1  16
TORSDOF 4
ENDMDL
MODEL 10
REMARK VINA RESULT:      -7.3      5.345      8.150
REMARK  4 active torsions:
REMARK  status: ('A' for Active; 'I' for Inactive)
REMARK    1  A    between atoms: O_2  and  C_3 
REMARK    2  A    between atoms: C_7  and  N_8 
REMARK       I    between atoms: N_8  and  C_9 
REMARK    3  A    between atoms: C_9  and  C_10 
REMARK    4  A    between atoms: C_12  and  C_13 
ROOT
HETATM    1  N   UNL     1      41.800 -16.103   1.003  1.00  0.00    -0.320 N 
HETATM    2  C   UNL     1      41.938 -14.728   0.973  1.00  0.00     0.256 C 
HETATM    3  O   UNL     1      42.381 -14.034   1.881  1.00  0.00    -0.267 OA
HETATM    4  H   UNL     1      41.324 -16.560   0.234  1.00  0.00     0.169 HD
ENDROOT
BRANCH   2   5
HETATM    5  C   UNL     1      41.490 -14.049  -0.284  1.00  0.00     0.033 A 
HETATM    6  C   UNL     1      40.463 -14.558  -1.096  1.00  0.00     0.029 A 
HETATM    7  C   UNL     1      40.087 -13.897  -2.278  1.00  0.00    -0.023 A 
HETATM    8  C   UNL     1      40.774 -12.731  -2.646  1.00  0.00     0.012 A 
HETATM    9  C   UNL     1      41.807 -12.229  -1.852  1.00  0.00     0.002 A 
HETATM   10  C   UNL     1      42.163 -12.886  -0.676  1.00  0.00     0.017 A 
BRANCH   7  11
HETATM   11  C   UNL     1      39.009 -14.434  -3.101  1.00  0.00    -0.002 A 
HETATM   12  C   UNL     1      39.142 -15.497  -3.975  1.00  0.00     0.153 A 
HETATM   13  O   UNL     1      37.970 -15.753  -4.612  1.00  0.00    -0.334 OA
HETATM   14  C   UNL     1      37.068 -14.851  -4.155  1.00  0.00     0.142 A 
HETATM   15  C   UNL     1      37.652 -14.018  -3.229  1.00  0.00     0.038 A 
ENDBRANCH   7  11
ENDBRANCH   2   5
BRANCH   1  16
HETATM   16  C   UNL     1      42.235 -16.984   2.021  1.00  0.00     0.077 A 
HETATM   17  C   UNL     1      41.583 -17.174   3.237  1.00  0.00     0.077 A 
HETATM   18  C   UNL     1      42.115 -18.048   4.189  1.00  0.00     0.152 A 
HETATM   19  C   UNL     1      43.305 -18.743   3.955  1.00  0.00     0.109 A 
HETATM   20  F   UNL     1      41.438 -18.196   5.337  1.00  0.00    -0.203 F 
HETATM   21  C   UNL     1      43.954 -18.563   2.731  1.00  0.00     0.084 A 
HETATM   22  C   UNL     1      43.418 -17.694   1.784  1.00  0.00     0.145 A 
HETATM   23  F   UNL     1      44.067 -17.523   0.620  1.00  0.00    -0.204 F 
BRANCH  19  24
HETATM   24  O   UNL     1      43.941 -19.610   4.801  1.00  0.00    -0.353 OA
HETATM   25  C   UNL     1      44.766 -19.039   5.812  1.00  0.00     0.210 C 
ENDBRANCH  19  24
ENDBRANCH   1  16
TORSDOF 4
ENDMDL
