MODEL 1
REMARK VINA RESULT:      -9.4      0.000      0.000
REMARK  8 active torsions:
REMARK  status: ('A' for Active; 'I' for Inactive)
REMARK    1  A    between atoms: N_9  and  N_10 
REMARK    2  A    between atoms: C_11  and  C_12 
REMARK    3  A    between atoms: C_14  and  O_15 
REMARK    4  A    between atoms: C_19  and  N_20 
REMARK    5  A    between atoms: C_21  and  C_22 
REMARK       I    between atoms: C_22  and  N_23 
REMARK    6  A    between atoms: N_23  and  C_24 
REMARK    7  A    between atoms: C_24  and  C_25 
REMARK    8  A    between atoms: C_25  and  C_26 
ROOT
HETATM    1  C   UNL     1      39.286 -11.658   3.242  1.00  0.00     0.002 A 
HETATM    2  C   UNL     1      40.299 -11.659   4.203  1.00  0.00     0.034 A 
HETATM    3  C   UNL     1      41.055 -12.795   4.464  1.00  0.00     0.086 A 
HETATM    4  C   UNL     1      40.778 -13.980   3.731  1.00  0.00     0.088 A 
HETATM    5  N   UNL     1      41.457 -15.120   3.908  1.00  0.00    -0.225 NA
HETATM    6  C   UNL     1      42.438 -15.015   4.836  1.00  0.00     0.183 A 
HETATM    7  C   UNL     1      42.737 -13.871   5.560  1.00  0.00     0.125 A 
HETATM    8  N   UNL     1      42.023 -12.722   5.398  1.00  0.00    -0.242 NA
HETATM    9  N   UNL     1      43.308 -16.010   5.236  1.00  0.00    -0.197 N 
HETATM   10  C   UNL     1      44.176 -15.480   6.190  1.00  0.00     0.143 A 
HETATM   11  C   UNL     1      43.809 -14.163   6.442  1.00  0.00     0.110 A 
HETATM   12  C   UNL     1      39.764 -13.967   2.782  1.00  0.00     0.034 A 
HETATM   13  C   UNL     1      39.016 -12.818   2.530  1.00  0.00     0.002 A 
ENDROOT
BRANCH  11  14
HETATM   14  C   UNL     1      44.376 -13.330   7.493  1.00  0.00     0.257 C 
HETATM   15  N   UNL     1      43.505 -12.408   8.033  1.00  0.00    -0.356 N 
HETATM   16  H   UNL     1      42.566 -12.353   7.641  1.00  0.00     0.162 HD
HETATM   17  O   UNL     1      45.506 -13.509   7.943  1.00  0.00    -0.267 OA
BRANCH  15  18
HETATM   18  C   UNL     1      43.747 -11.851   9.347  1.00  0.00     0.127 C 
BRANCH  18  19
HETATM   19  C   UNL     1      42.644 -10.893   9.818  1.00  0.00     0.053 C 
BRANCH  19  20
HETATM   20  C   UNL     1      42.570 -10.530  11.296  1.00  0.00    -0.082 C 
HETATM   21  C   UNL     1      41.343 -11.075  12.003  1.00  0.00     0.034 C 
HETATM   22  C   UNL     1      41.096 -10.458  13.383  1.00  0.00     0.005 C 
HETATM   23  C   UNL     1      42.390 -10.372  14.180  1.00  0.00     0.004 C 
HETATM   24  C   UNL     1      43.421  -9.520  13.443  1.00  0.00     0.027 C 
HETATM   25  C   UNL     1      43.480  -9.797  11.968  1.00  0.00    -0.024 C 
ENDBRANCH  19  20
ENDBRANCH  18  19
ENDBRANCH  15  18
ENDBRANCH  11  14
BRANCH  10  26
HETATM   26  N   UNL     1      45.138 -16.235   6.793  1.00  0.00    -0.383 N 
HETATM   27  H   UNL     1      44.902 -16.761   7.633  1.00  0.00     0.157 HD
HETATM   28  H   UNL     1      46.083 -15.837   6.838  1.00  0.00     0.157 HD
ENDBRANCH  10  26
BRANCH   9  29
HETATM   29  N   UNL     1      43.183 -17.325   4.873  1.00  0.00    -0.176 NA
HETATM   30  C   UNL     1      44.022 -17.725   3.976  1.00  0.00     0.150 C 
BRANCH  30  31
HETATM   31  C   UNL     1      44.034 -19.139   3.547  1.00  0.00    -0.014 A 
HETATM   32  C   UNL     1      44.577 -20.122   4.384  1.00  0.00     0.049 A 
HETATM   33  C   UNL     1      44.593 -21.444   3.955  1.00  0.00     0.066 A 
HETATM   34  C   UNL     1      44.072 -21.797   2.716  1.00  0.00     0.036 A 
HETATM   35  C   UNL     1      43.529 -20.814   1.884  1.00  0.00     0.004 A 
HETATM   36  C   UNL     1      43.512 -19.480   2.297  1.00  0.00     0.013 A 
BRANCH  33  37
HETATM   37  O   UNL     1      45.119 -22.434   4.731  1.00  0.00    -0.361 OA
HETATM   38  H   UNL     1      45.283 -22.076   5.621  1.00  0.00     0.217 HD
ENDBRANCH  33  37
ENDBRANCH  30  31
ENDBRANCH   9  29
TORSDOF 8
ENDMDL
MODEL 2
REMARK VINA RESULT:      -9.3      1.801      2.352
REMARK  8 active torsions:
REMARK  status: ('A' for Active; 'I' for Inactive)
REMARK    1  A    between atoms: N_9  and  N_10 
REMARK    2  A    between atoms: C_11  and  C_12 
REMARK    3  A    between atoms: C_14  and  O_15 
REMARK    4  A    between atoms: C_19  and  N_20 
REMARK    5  A    between atoms: C_21  and  C_22 
REMARK       I    between atoms: C_22  and  N_23 
REMARK    6  A    between atoms: N_23  and  C_24 
REMARK    7  A    between atoms: C_24  and  C_25 
REMARK    8  A    between atoms: C_25  and  C_26 
ROOT
HETATM    1  C   UNL     1      41.533 -12.712   0.205  1.00  0.00     0.002 A 
HETATM    2  C   UNL     1      41.870 -12.501   1.544  1.00  0.00     0.034 A 
HETATM    3  C   UNL     1      42.243 -13.550   2.376  1.00  0.00     0.086 A 
HETATM    4  C   UNL     1      42.276 -14.865   1.839  1.00  0.00     0.088 A 
HETATM    5  N   UNL     1      42.630 -15.936   2.561  1.00  0.00    -0.225 NA
HETATM    6  C   UNL     1      42.967 -15.630   3.835  1.00  0.00     0.183 A 
HETATM    7  C   UNL     1      42.953 -14.356   4.384  1.00  0.00     0.125 A 
HETATM    8  N   UNL     1      42.563 -13.274   3.655  1.00  0.00    -0.242 NA
HETATM    9  N   UNL     1      43.377 -16.510   4.817  1.00  0.00    -0.197 N 
HETATM   10  C   UNL     1      43.651 -15.783   5.975  1.00  0.00     0.143 A 
HETATM   11  C   UNL     1      43.350 -14.446   5.743  1.00  0.00     0.110 A 
HETATM   12  C   UNL     1      41.934 -15.062   0.507  1.00  0.00     0.034 A 
HETATM   13  C   UNL     1      41.564 -13.998  -0.315  1.00  0.00     0.002 A 
ENDROOT
BRANCH  11  14
HETATM   14  C   UNL     1      43.352 -13.406   6.762  1.00  0.00     0.257 C 
HETATM   15  N   UNL     1      44.382 -13.493   7.674  1.00  0.00    -0.356 N 
HETATM   16  H   UNL     1      45.025 -14.278   7.593  1.00  0.00     0.162 HD
HETATM   17  O   UNL     1      42.565 -12.461   6.745  1.00  0.00    -0.267 OA
BRANCH  15  18
HETATM   18  C   UNL     1      44.792 -12.328   8.431  1.00  0.00     0.127 C 
BRANCH  18  19
HETATM   19  C   UNL     1      44.391 -12.389   9.911  1.00  0.00     0.053 C 
BRANCH  19  20
HETATM   20  C   UNL     1      43.589 -11.235  10.500  1.00  0.00    -0.082 C 
HETATM   21  C   UNL     1      44.163 -10.682  11.792  1.00  0.00     0.034 C 
HETATM   22  C   UNL     1      43.208  -9.756  12.550  1.00  0.00     0.005 C 
HETATM   23  C   UNL     1      42.532  -8.776  11.602  1.00  0.00     0.004 C 
HETATM   24  C   UNL     1      41.739  -9.523  10.532  1.00  0.00     0.027 C 
HETATM   25  C   UNL     1      42.466 -10.711   9.970  1.00  0.00    -0.024 C 
ENDBRANCH  19  20
ENDBRANCH  18  19
ENDBRANCH  15  18
ENDBRANCH  11  14
BRANCH  10  26
HETATM   26  N   UNL     1      44.056 -16.385   7.130  1.00  0.00    -0.383 N 
HETATM   27  H   UNL     1      44.223 -15.812   7.956  1.00  0.00     0.157 HD
HETATM   28  H   UNL     1      44.735 -17.150   7.044  1.00  0.00     0.157 HD
ENDBRANCH  10  26
BRANCH   9  29
HETATM   29  N   UNL     1      43.326 -17.872   4.690  1.00  0.00    -0.176 NA
HETATM   30  C   UNL     1      44.356 -18.407   4.122  1.00  0.00     0.150 C 
BRANCH  30  31
HETATM   31  C   UNL     1      44.453 -19.874   3.985  1.00  0.00    -0.014 A 
HETATM   32  C   UNL     1      44.301 -20.473   2.728  1.00  0.00     0.049 A 
HETATM   33  C   UNL     1      44.380 -21.857   2.622  1.00  0.00     0.066 A 
HETATM   34  C   UNL     1      44.614 -22.645   3.743  1.00  0.00     0.036 A 
HETATM   35  C   UNL     1      44.769 -22.043   4.995  1.00  0.00     0.004 A 
HETATM   36  C   UNL     1      44.684 -20.655   5.120  1.00  0.00     0.013 A 
BRANCH  33  37
HETATM   37  O   UNL     1      44.229 -22.485   1.422  1.00  0.00    -0.361 OA
HETATM   38  H   UNL     1      44.802 -23.271   1.409  1.00  0.00     0.217 HD
ENDBRANCH  33  37
ENDBRANCH  30  31
ENDBRANCH   9  29
TORSDOF 8
ENDMDL
MODEL 3
REMARK VINA RESULT:      -9.2      3.490      6.856
REMARK  8 active torsions:
REMARK  status: ('A' for Active; 'I' for Inactive)
REMARK    1  A    between atoms: N_9  and  N_10 
REMARK    2  A    between atoms: C_11  and  C_12 
REMARK    3  A    between atoms: C_14  and  O_15 
REMARK    4  A    between atoms: C_19  and  N_20 
REMARK    5  A    between atoms: C_21  and  C_22 
REMARK       I    between atoms: C_22  and  N_23 
REMARK    6  A    between atoms: N_23  and  C_24 
REMARK    7  A    between atoms: C_24  and  C_25 
REMARK    8  A    between atoms: C_25  and  C_26 
ROOT
HETATM    1  C   UNL     1      44.839 -21.777   3.490  1.00  0.00     0.002 A 
HETATM    2  C   UNL     1      44.458 -20.685   4.271  1.00  0.00     0.034 A 
HETATM    3  C   UNL     1      43.694 -19.647   3.749  1.00  0.00     0.086 A 
HETATM    4  C   UNL     1      43.300 -19.712   2.386  1.00  0.00     0.088 A 
HETATM    5  N   UNL     1      42.557 -18.764   1.799  1.00  0.00    -0.225 NA
HETATM    6  C   UNL     1      42.211 -17.762   2.641  1.00  0.00     0.183 A 
HETATM    7  C   UNL     1      42.574 -17.678   3.977  1.00  0.00     0.125 A 
HETATM    8  N   UNL     1      43.354 -18.628   4.562  1.00  0.00    -0.242 NA
HETATM    9  N   UNL     1      41.451 -16.651   2.336  1.00  0.00    -0.197 N 
HETATM   10  C   UNL     1      41.309 -15.882   3.491  1.00  0.00     0.143 A 
HETATM   11  C   UNL     1      42.039 -16.478   4.514  1.00  0.00     0.110 A 
HETATM   12  C   UNL     1      43.689 -20.802   1.619  1.00  0.00     0.034 A 
HETATM   13  C   UNL     1      44.455 -21.835   2.158  1.00  0.00     0.002 A 
ENDROOT
BRANCH  11  14
HETATM   14  C   UNL     1      42.266 -15.886   5.825  1.00  0.00     0.257 C 
HETATM   15  N   UNL     1      43.478 -16.204   6.399  1.00  0.00    -0.356 N 
HETATM   16  H   UNL     1      44.092 -16.842   5.896  1.00  0.00     0.162 HD
HETATM   17  O   UNL     1      41.490 -15.078   6.330  1.00  0.00    -0.267 OA
BRANCH  15  18
HETATM   18  C   UNL     1      44.042 -15.363   7.435  1.00  0.00     0.127 C 
BRANCH  18  19
HETATM   19  C   UNL     1      44.951 -14.252   6.892  1.00  0.00     0.053 C 
BRANCH  19  20
HETATM   20  C   UNL     1      45.258 -13.056   7.786  1.00  0.00    -0.082 C 
HETATM   21  C   UNL     1      44.078 -12.592   8.620  1.00  0.00     0.034 C 
HETATM   22  C   UNL     1      44.276 -11.218   9.267  1.00  0.00     0.005 C 
HETATM   23  C   UNL     1      45.664 -11.100   9.880  1.00  0.00     0.004 C 
HETATM   24  C   UNL     1      46.742 -11.297   8.816  1.00  0.00     0.027 C 
HETATM   25  C   UNL     1      46.446 -12.426   7.870  1.00  0.00    -0.024 C 
ENDBRANCH  19  20
ENDBRANCH  18  19
ENDBRANCH  15  18
ENDBRANCH  11  14
BRANCH  10  26
HETATM   26  N   UNL     1      40.625 -14.703   3.497  1.00  0.00    -0.383 N 
HETATM   27  H   UNL     1      40.288 -14.330   4.383  1.00  0.00     0.157 HD
HETATM   28  H   UNL     1      39.960 -14.546   2.732  1.00  0.00     0.157 HD
ENDBRANCH  10  26
BRANCH   9  29
HETATM   29  N   UNL     1      41.081 -16.305   1.064  1.00  0.00    -0.176 NA
HETATM   30  C   UNL     1      41.769 -15.346   0.537  1.00  0.00     0.150 C 
BRANCH  30  31
HETATM   31  C   UNL     1      41.512 -14.924  -0.856  1.00  0.00    -0.014 A 
HETATM   32  C   UNL     1      41.843 -13.627  -1.268  1.00  0.00     0.049 A 
HETATM   33  C   UNL     1      41.579 -13.244  -2.578  1.00  0.00     0.066 A 
HETATM   34  C   UNL     1      41.001 -14.133  -3.477  1.00  0.00     0.036 A 
HETATM   35  C   UNL     1      40.674 -15.427  -3.062  1.00  0.00     0.004 A 
HETATM   36  C   UNL     1      40.926 -15.825  -1.748  1.00  0.00     0.013 A 
BRANCH  33  37
HETATM   37  O   UNL     1      41.876 -11.990  -3.022  1.00  0.00    -0.361 OA
HETATM   38  H   UNL     1      41.282 -11.357  -2.582  1.00  0.00     0.217 HD
ENDBRANCH  33  37
ENDBRANCH  30  31
ENDBRANCH   9  29
TORSDOF 8
ENDMDL
MODEL 4
REMARK VINA RESULT:      -9.1      1.703      2.408
REMARK  8 active torsions:
REMARK  status: ('A' for Active; 'I' for Inactive)
REMARK    1  A    between atoms: N_9  and  N_10 
REMARK    2  A    between atoms: C_11  and  C_12 
REMARK    3  A    between atoms: C_14  and  O_15 
REMARK    4  A    between atoms: C_19  and  N_20 
REMARK    5  A    between atoms: C_21  and  C_22 
REMARK       I    between atoms: C_22  and  N_23 
REMARK    6  A    between atoms: N_23  and  C_24 
REMARK    7  A    between atoms: C_24  and  C_25 
REMARK    8  A    between atoms: C_25  and  C_26 
ROOT
HETATM    1  C   UNL     1      37.570 -12.695   1.017  1.00  0.00     0.002 A 
HETATM    2  C   UNL     1      38.235 -12.090   2.085  1.00  0.00     0.034 A 
HETATM    3  C   UNL     1      39.191 -12.772   2.829  1.00  0.00     0.086 A 
HETATM    4  C   UNL     1      39.488 -14.117   2.485  1.00  0.00     0.088 A 
HETATM    5  N   UNL     1      40.399 -14.850   3.138  1.00  0.00    -0.225 NA
HETATM    6  C   UNL     1      41.011 -14.171   4.136  1.00  0.00     0.183 A 
HETATM    7  C   UNL     1      40.747 -12.856   4.489  1.00  0.00     0.125 A 
HETATM    8  N   UNL     1      39.799 -12.124   3.841  1.00  0.00    -0.242 NA
HETATM    9  N   UNL     1      41.991 -14.649   4.982  1.00  0.00    -0.197 N 
HETATM   10  C   UNL     1      42.367 -13.623   5.848  1.00  0.00     0.143 A 
HETATM   11  C   UNL     1      41.573 -12.510   5.590  1.00  0.00     0.110 A 
HETATM   12  C   UNL     1      38.817 -14.709   1.423  1.00  0.00     0.034 A 
HETATM   13  C   UNL     1      37.862 -14.011   0.685  1.00  0.00     0.002 A 
ENDROOT
BRANCH  11  14
HETATM   14  C   UNL     1      41.557 -11.297   6.395  1.00  0.00     0.257 C 
HETATM   15  N   UNL     1      41.552 -11.508   7.757  1.00  0.00    -0.356 N 
HETATM   16  H   UNL     1      41.521 -12.470   8.090  1.00  0.00     0.162 HD
HETATM   17  O   UNL     1      41.655 -10.175   5.903  1.00  0.00    -0.267 OA
BRANCH  15  18
HETATM   18  C   UNL     1      41.995 -10.468   8.662  1.00  0.00     0.127 C 
BRANCH  18  19
HETATM   19  C   UNL     1      42.999 -10.961   9.714  1.00  0.00     0.053 C 
BRANCH  19  20
HETATM   20  C   UNL     1      42.775 -10.582  11.173  1.00  0.00    -0.082 C 
HETATM   21  C   UNL     1      41.486 -11.126  11.760  1.00  0.00     0.034 C 
HETATM   22  C   UNL     1      41.098 -10.495  13.101  1.00  0.00     0.005 C 
HETATM   23  C   UNL     1      42.305 -10.391  14.023  1.00  0.00     0.004 C 
HETATM   24  C   UNL     1      43.400  -9.541  13.382  1.00  0.00     0.027 C 
HETATM   25  C   UNL     1      43.608  -9.835  11.924  1.00  0.00    -0.024 C 
ENDBRANCH  19  20
ENDBRANCH  18  19
ENDBRANCH  15  18
ENDBRANCH  11  14
BRANCH  10  26
HETATM   26  N   UNL     1      43.306 -13.802   6.821  1.00  0.00    -0.383 N 
HETATM   27  H   UNL     1      43.166 -13.365   7.731  1.00  0.00     0.157 HD
HETATM   28  H   UNL     1      44.289 -13.783   6.528  1.00  0.00     0.157 HD
ENDBRANCH  10  26
BRANCH   9  29
HETATM   29  N   UNL     1      42.365 -15.965   5.051  1.00  0.00    -0.176 NA
HETATM   30  C   UNL     1      43.135 -16.364   4.093  1.00  0.00     0.150 C 
BRANCH  30  31
HETATM   31  C   UNL     1      43.662 -17.745   4.088  1.00  0.00    -0.014 A 
HETATM   32  C   UNL     1      43.519 -18.546   2.948  1.00  0.00     0.049 A 
HETATM   33  C   UNL     1      44.008 -19.847   2.969  1.00  0.00     0.066 A 
HETATM   34  C   UNL     1      44.638 -20.353   4.099  1.00  0.00     0.036 A 
HETATM   35  C   UNL     1      44.781 -19.550   5.234  1.00  0.00     0.004 A 
HETATM   36  C   UNL     1      44.289 -18.243   5.232  1.00  0.00     0.013 A 
BRANCH  33  37
HETATM   37  O   UNL     1      43.884 -20.667   1.887  1.00  0.00    -0.361 OA
HETATM   38  H   UNL     1      43.259 -21.379   2.108  1.00  0.00     0.217 HD
ENDBRANCH  33  37
ENDBRANCH  30  31
ENDBRANCH   9  29
TORSDOF 8
ENDMDL
MODEL 5
REMARK VINA RESULT:      -9.0      4.751      6.626
REMARK  8 active torsions:
REMARK  status: ('A' for Active; 'I' for Inactive)
REMARK    1  A    between atoms: N_9  and  N_10 
REMARK    2  A    between atoms: C_11  and  C_12 
REMARK    3  A    between atoms: C_14  and  O_15 
REMARK    4  A    between atoms: C_19  and  N_20 
REMARK    5  A    between atoms: C_21  and  C_22 
REMARK       I    between atoms: C_22  and  N_23 
REMARK    6  A    between atoms: N_23  and  C_24 
REMARK    7  A    between atoms: C_24  and  C_25 
REMARK    8  A    between atoms: C_25  and  C_26 
ROOT
HETATM    1  C   UNL     1      40.350 -13.722  -3.059  1.00  0.00     0.002 A 
HETATM    2  C   UNL     1      40.635 -13.188  -1.801  1.00  0.00     0.034 A 
HETATM    3  C   UNL     1      41.087 -13.986  -0.756  1.00  0.00     0.086 A 
HETATM    4  C   UNL     1      41.258 -15.377  -0.987  1.00  0.00     0.088 A 
HETATM    5  N   UNL     1      41.696 -16.222  -0.045  1.00  0.00    -0.225 NA
HETATM    6  C   UNL     1      41.974 -15.609   1.130  1.00  0.00     0.183 A 
HETATM    7  C   UNL     1      41.826 -14.254   1.381  1.00  0.00     0.125 A 
HETATM    8  N   UNL     1      41.351 -13.403   0.429  1.00  0.00    -0.242 NA
HETATM    9  N   UNL     1      42.443 -16.206   2.283  1.00  0.00    -0.197 N 
HETATM   10  C   UNL     1      42.621 -15.218   3.251  1.00  0.00     0.143 A 
HETATM   11  C   UNL     1      42.199 -14.001   2.727  1.00  0.00     0.110 A 
HETATM   12  C   UNL     1      40.967 -15.896  -2.242  1.00  0.00     0.034 A 
HETATM   13  C   UNL     1      40.515 -15.082  -3.280  1.00  0.00     0.002 A 
ENDROOT
BRANCH  11  14
HETATM   14  C   UNL     1      42.079 -12.766   3.489  1.00  0.00     0.257 C 
HETATM   15  N   UNL     1      41.667 -11.674   2.757  1.00  0.00    -0.356 N 
HETATM   16  H   UNL     1      41.518 -11.798   1.757  1.00  0.00     0.162 HD
HETATM   17  O   UNL     1      42.224 -12.725   4.709  1.00  0.00    -0.267 OA
BRANCH  15  18
HETATM   18  C   UNL     1      41.066 -10.533   3.416  1.00  0.00     0.127 C 
BRANCH  18  19
HETATM   19  C   UNL     1      39.535 -10.503   3.311  1.00  0.00     0.053 C 
BRANCH  19  20
HETATM   20  C   UNL     1      38.876 -11.061   2.055  1.00  0.00    -0.082 C 
HETATM   21  C   UNL     1      38.277 -12.443   2.237  1.00  0.00     0.034 C 
HETATM   22  C   UNL     1      37.906 -13.138   0.923  1.00  0.00     0.005 C 
HETATM   23  C   UNL     1      37.191 -12.177  -0.017  1.00  0.00     0.004 C 
HETATM   24  C   UNL     1      38.079 -10.976  -0.335  1.00  0.00     0.027 C 
HETATM   25  C   UNL     1      38.802 -10.433   0.865  1.00  0.00    -0.024 C 
ENDBRANCH  19  20
ENDBRANCH  18  19
ENDBRANCH  15  18
ENDBRANCH  11  14
BRANCH  10  26
HETATM   26  N   UNL     1      43.055 -15.507   4.511  1.00  0.00    -0.383 N 
HETATM   27  H   UNL     1      43.116 -14.758   5.198  1.00  0.00     0.157 HD
HETATM   28  H   UNL     1      43.829 -16.175   4.595  1.00  0.00     0.157 HD
ENDBRANCH  10  26
BRANCH   9  29
HETATM   29  N   UNL     1      42.526 -17.561   2.462  1.00  0.00    -0.176 NA
HETATM   30  C   UNL     1      43.719 -18.051   2.386  1.00  0.00     0.150 C 
BRANCH  30  31
HETATM   31  C   UNL     1      43.950 -19.490   2.627  1.00  0.00    -0.014 A 
HETATM   32  C   UNL     1      44.470 -19.922   3.853  1.00  0.00     0.049 A 
HETATM   33  C   UNL     1      44.695 -21.279   4.054  1.00  0.00     0.066 A 
HETATM   34  C   UNL     1      44.404 -22.204   3.058  1.00  0.00     0.036 A 
HETATM   35  C   UNL     1      43.882 -21.769   1.837  1.00  0.00     0.004 A 
HETATM   36  C   UNL     1      43.657 -20.409   1.616  1.00  0.00     0.013 A 
BRANCH  33  37
HETATM   37  O   UNL     1      45.208 -21.746   5.227  1.00  0.00    -0.361 OA
HETATM   38  H   UNL     1      45.877 -22.423   5.025  1.00  0.00     0.217 HD
ENDBRANCH  33  37
ENDBRANCH  30  31
ENDBRANCH   9  29
TORSDOF 8
ENDMDL
MODEL 6
REMARK VINA RESULT:      -9.0      1.020      1.241
REMARK  8 active torsions:
REMARK  status: ('A' for Active; 'I' for Inactive)
REMARK    1  A    between atoms: N_9  and  N_10 
REMARK    2  A    between atoms: C_11  and  C_12 
REMARK    3  A    between atoms: C_14  and  O_15 
REMARK    4  A    between atoms: C_19  and  N_20 
REMARK    5  A    between atoms: C_21  and  C_22 
REMARK       I    between atoms: C_22  and  N_23 
REMARK    6  A    between atoms: N_23  and  C_24 
REMARK    7  A    between atoms: C_24  and  C_25 
REMARK    8  A    between atoms: C_25  and  C_26 
ROOT
HETATM    1  C   UNL     1      39.134 -10.373   4.803  1.00  0.00     0.002 A 
HETATM    2  C   UNL     1      40.236 -10.589   5.633  1.00  0.00     0.034 A 
HETATM    3  C   UNL     1      40.953 -11.778   5.597  1.00  0.00     0.086 A 
HETATM    4  C   UNL     1      40.544 -12.792   4.691  1.00  0.00     0.088 A 
HETATM    5  N   UNL     1      41.178 -13.967   4.580  1.00  0.00    -0.225 NA
HETATM    6  C   UNL     1      42.249 -14.072   5.400  1.00  0.00     0.183 A 
HETATM    7  C   UNL     1      42.677 -13.096   6.288  1.00  0.00     0.125 A 
HETATM    8  N   UNL     1      42.011 -11.916   6.420  1.00  0.00    -0.242 NA
HETATM    9  N   UNL     1      43.101 -15.153   5.514  1.00  0.00    -0.197 N 
HETATM   10  C   UNL     1      44.086 -14.842   6.452  1.00  0.00     0.143 A 
HETATM   11  C   UNL     1      43.814 -13.585   6.982  1.00  0.00     0.110 A 
HETATM   12  C   UNL     1      39.444 -12.567   3.874  1.00  0.00     0.034 A 
HETATM   13  C   UNL     1      38.735 -11.367   3.921  1.00  0.00     0.002 A 
ENDROOT
BRANCH  11  14
HETATM   14  C   UNL     1      44.524 -12.986   8.103  1.00  0.00     0.257 C 
HETATM   15  N   UNL     1      43.722 -12.329   9.010  1.00  0.00    -0.356 N 
HETATM   16  H   UNL     1      42.723 -12.279   8.815  1.00  0.00     0.162 HD
HETATM   17  O   UNL     1      45.729 -13.149   8.286  1.00  0.00    -0.267 OA
BRANCH  15  18
HETATM   18  C   UNL     1      44.181 -12.096  10.363  1.00  0.00     0.127 C 
BRANCH  18  19
HETATM   19  C   UNL     1      44.041 -10.636  10.814  1.00  0.00     0.053 C 
BRANCH  19  20
HETATM   20  C   UNL     1      43.287 -10.337  12.104  1.00  0.00    -0.082 C 
HETATM   21  C   UNL     1      41.997 -11.121  12.260  1.00  0.00     0.034 C 
HETATM   22  C   UNL     1      41.085 -10.602  13.375  1.00  0.00     0.005 C 
HETATM   23  C   UNL     1      41.884 -10.300  14.635  1.00  0.00     0.004 C 
HETATM   24  C   UNL     1      42.956  -9.250  14.354  1.00  0.00     0.027 C 
HETATM   25  C   UNL     1      43.679  -9.468  13.056  1.00  0.00    -0.024 C 
ENDBRANCH  19  20
ENDBRANCH  18  19
ENDBRANCH  15  18
ENDBRANCH  11  14
BRANCH  10  26
HETATM   26  N   UNL     1      45.062 -15.729   6.798  1.00  0.00    -0.383 N 
HETATM   27  H   UNL     1      46.007 -15.590   6.443  1.00  0.00     0.157 HD
HETATM   28  H   UNL     1      44.801 -16.720   6.829  1.00  0.00     0.157 HD
ENDBRANCH  10  26
BRANCH   9  29
HETATM   29  N   UNL     1      42.873 -16.369   4.929  1.00  0.00    -0.176 NA
HETATM   30  C   UNL     1      43.779 -16.750   4.089  1.00  0.00     0.150 C 
BRANCH  30  31
HETATM   31  C   UNL     1      43.683 -18.074   3.440  1.00  0.00    -0.014 A 
HETATM   32  C   UNL     1      44.345 -19.177   3.993  1.00  0.00     0.049 A 
HETATM   33  C   UNL     1      44.255 -20.410   3.359  1.00  0.00     0.066 A 
HETATM   34  C   UNL     1      43.513 -20.558   2.193  1.00  0.00     0.036 A 
HETATM   35  C   UNL     1      42.851 -19.456   1.645  1.00  0.00     0.004 A 
HETATM   36  C   UNL     1      42.938 -18.208   2.266  1.00  0.00     0.013 A 
BRANCH  33  37
HETATM   37  O   UNL     1      44.890 -21.509   3.855  1.00  0.00    -0.361 OA
HETATM   38  H   UNL     1      45.194 -22.055   3.109  1.00  0.00     0.217 HD
ENDBRANCH  33  37
ENDBRANCH  30  31
ENDBRANCH   9  29
TORSDOF 8
ENDMDL
MODEL 7
REMARK VINA RESULT:      -8.9      2.141      2.984
REMARK  8 active torsions:
REMARK  status: ('A' for Active; 'I' for Inactive)
REMARK    1  A    between atoms: N_9  and  N_10 
REMARK    2  A    between atoms: C_11  and  C_12 
REMARK    3  A    between atoms: C_14  and  O_15 
REMARK    4  A    between atoms: C_19  and  N_20 
REMARK    5  A    between atoms: C_21  and  C_22 
REMARK       I    between atoms: C_22  and  N_23 
REMARK    6  A    between atoms: N_23  and  C_24 
REMARK    7  A    between atoms: C_24  and  C_25 
REMARK    8  A    between atoms: C_25  and  C_26 
ROOT
HETATM    1  C   UNL     1      38.269 -12.225  -0.297  1.00  0.00     0.002 A 
HETATM    2  C   UNL     1      38.470 -12.032   1.071  1.00  0.00     0.034 A 
HETATM    3  C   UNL     1      39.128 -12.975   1.851  1.00  0.00     0.086 A 
HETATM    4  C   UNL     1      39.601 -14.161   1.229  1.00  0.00     0.088 A 
HETATM    5  N   UNL     1      40.253 -15.122   1.897  1.00  0.00    -0.225 NA
HETATM    6  C   UNL     1      40.426 -14.833   3.209  1.00  0.00     0.183 A 
HETATM    7  C   UNL     1      39.983 -13.681   3.840  1.00  0.00     0.125 A 
HETATM    8  N   UNL     1      39.294 -12.720   3.163  1.00  0.00    -0.242 NA
HETATM    9  N   UNL     1      41.059 -15.618   4.152  1.00  0.00    -0.197 N 
HETATM   10  C   UNL     1      41.042 -14.942   5.372  1.00  0.00     0.143 A 
HETATM   11  C   UNL     1      40.335 -13.755   5.213  1.00  0.00     0.110 A 
HETATM   12  C   UNL     1      39.392 -14.343  -0.131  1.00  0.00     0.034 A 
HETATM   13  C   UNL     1      38.731 -13.386  -0.901  1.00  0.00     0.002 A 
ENDROOT
BRANCH  11  14
HETATM   14  C   UNL     1      39.965 -12.858   6.298  1.00  0.00     0.257 C 
HETATM   15  N   UNL     1      40.998 -12.089   6.790  1.00  0.00    -0.356 N 
HETATM   16  H   UNL     1      41.926 -12.229   6.395  1.00  0.00     0.162 HD
HETATM   17  O   UNL     1      38.802 -12.714   6.671  1.00  0.00    -0.267 OA
BRANCH  15  18
HETATM   18  C   UNL     1      40.722 -10.863   7.510  1.00  0.00     0.127 C 
BRANCH  18  19
HETATM   19  C   UNL     1      41.969 -10.236   8.149  1.00  0.00     0.053 C 
BRANCH  19  20
HETATM   20  C   UNL     1      42.326 -10.616   9.582  1.00  0.00    -0.082 C 
HETATM   21  C   UNL     1      43.816 -10.768   9.825  1.00  0.00     0.034 C 
HETATM   22  C   UNL     1      44.162 -11.452  11.151  1.00  0.00     0.005 C 
HETATM   23  C   UNL     1      43.315 -10.898  12.287  1.00  0.00     0.004 C 
HETATM   24  C   UNL     1      41.829 -11.110  12.003  1.00  0.00     0.027 C 
HETATM   25  C   UNL     1      41.445 -10.811  10.582  1.00  0.00    -0.024 C 
ENDBRANCH  19  20
ENDBRANCH  18  19
ENDBRANCH  15  18
ENDBRANCH  11  14
BRANCH  10  26
HETATM   26  N   UNL     1      41.574 -15.480   6.506  1.00  0.00    -0.383 N 
HETATM   27  H   UNL     1      41.137 -16.304   6.916  1.00  0.00     0.157 HD
HETATM   28  H   UNL     1      41.910 -14.824   7.219  1.00  0.00     0.157 HD
ENDBRANCH  10  26
BRANCH   9  29
HETATM   29  N   UNL     1      41.453 -16.910   3.930  1.00  0.00    -0.176 NA
HETATM   30  C   UNL     1      42.646 -17.042   3.452  1.00  0.00     0.150 C 
BRANCH  30  31
HETATM   31  C   UNL     1      43.214 -18.388   3.230  1.00  0.00    -0.014 A 
HETATM   32  C   UNL     1      43.984 -18.999   4.228  1.00  0.00     0.049 A 
HETATM   33  C   UNL     1      44.522 -20.258   3.994  1.00  0.00     0.066 A 
HETATM   34  C   UNL     1      44.299 -20.916   2.789  1.00  0.00     0.036 A 
HETATM   35  C   UNL     1      43.527 -20.305   1.797  1.00  0.00     0.004 A 
HETATM   36  C   UNL     1      42.986 -19.036   2.013  1.00  0.00     0.013 A 
BRANCH  33  37
HETATM   37  O   UNL     1      45.285 -20.888   4.931  1.00  0.00    -0.361 OA
HETATM   38  H   UNL     1      45.338 -20.321   5.720  1.00  0.00     0.217 HD
ENDBRANCH  33  37
ENDBRANCH  30  31
ENDBRANCH   9  29
TORSDOF 8
ENDMDL
MODEL 8
REMARK VINA RESULT:      -8.9      5.107     10.106
REMARK  8 active torsions:
REMARK  status: ('A' for Active; 'I' for Inactive)
REMARK    1  A    between atoms: N_9  and  N_10 
REMARK    2  A    between atoms: C_11  and  C_12 
REMARK    3  A    between atoms: C_14  and  O_15 
REMARK    4  A    between atoms: C_19  and  N_20 
REMARK    5  A    between atoms: C_21  and  C_22 
REMARK       I    between atoms: C_22  and  N_23 
REMARK    6  A    between atoms: N_23  and  C_24 
REMARK    7  A    between atoms: C_24  and  C_25 
REMARK    8  A    between atoms: C_25  and  C_26 
ROOT
HETATM    1  C   UNL     1      38.838 -11.208   4.857  1.00  0.00     0.002 A 
HETATM    2  C   UNL     1      39.466 -12.395   4.473  1.00  0.00     0.034 A 
HETATM    3  C   UNL     1      39.552 -12.776   3.139  1.00  0.00     0.086 A 
HETATM    4  C   UNL     1      38.981 -11.928   2.152  1.00  0.00     0.088 A 
HETATM    5  N   UNL     1      39.022 -12.208   0.843  1.00  0.00    -0.225 NA
HETATM    6  C   UNL     1      39.676 -13.360   0.566  1.00  0.00     0.183 A 
HETATM    7  C   UNL     1      40.250 -14.202   1.507  1.00  0.00     0.125 A 
HETATM    8  N   UNL     1      40.179 -13.929   2.839  1.00  0.00    -0.242 NA
HETATM    9  N   UNL     1      39.887 -13.912  -0.682  1.00  0.00    -0.197 N 
HETATM   10  C   UNL     1      40.623 -15.086  -0.527  1.00  0.00     0.143 A 
HETATM   11  C   UNL     1      40.820 -15.312   0.831  1.00  0.00     0.110 A 
HETATM   12  C   UNL     1      38.356 -10.753   2.547  1.00  0.00     0.034 A 
HETATM   13  C   UNL     1      38.280 -10.385   3.890  1.00  0.00     0.002 A 
ENDROOT
BRANCH  11  14
HETATM   14  C   UNL     1      41.404 -16.520   1.396  1.00  0.00     0.257 C 
HETATM   15  N   UNL     1      42.206 -16.313   2.497  1.00  0.00    -0.356 N 
HETATM   16  H   UNL     1      42.358 -15.354   2.803  1.00  0.00     0.162 HD
HETATM   17  O   UNL     1      41.116 -17.645   0.993  1.00  0.00    -0.267 OA
BRANCH  15  18
HETATM   18  C   UNL     1      42.471 -17.393   3.425  1.00  0.00     0.127 C 
BRANCH  18  19
HETATM   19  C   UNL     1      43.883 -17.979   3.294  1.00  0.00     0.053 C 
BRANCH  19  20
HETATM   20  C   UNL     1      44.038 -19.488   3.144  1.00  0.00    -0.082 C 
HETATM   21  C   UNL     1      43.537 -20.030   1.819  1.00  0.00     0.034 C 
HETATM   22  C   UNL     1      43.391 -21.554   1.785  1.00  0.00     0.005 C 
HETATM   23  C   UNL     1      44.602 -22.231   2.412  1.00  0.00     0.004 C 
HETATM   24  C   UNL     1      44.774 -21.789   3.864  1.00  0.00     0.027 C 
HETATM   25  C   UNL     1      44.563 -20.316   4.069  1.00  0.00    -0.024 C 
ENDBRANCH  19  20
ENDBRANCH  18  19
ENDBRANCH  15  18
ENDBRANCH  11  14
BRANCH  10  26
HETATM   26  N   UNL     1      40.967 -15.871  -1.588  1.00  0.00    -0.383 N 
HETATM   27  H   UNL     1      41.911 -16.254  -1.636  1.00  0.00     0.157 HD
HETATM   28  H   UNL     1      40.615 -15.590  -2.509  1.00  0.00     0.157 HD
ENDBRANCH  10  26
BRANCH   9  29
HETATM   29  N   UNL     1      39.296 -13.453  -1.829  1.00  0.00    -0.176 NA
HETATM   30  C   UNL     1      38.112 -13.918  -2.057  1.00  0.00     0.150 C 
BRANCH  30  31
HETATM   31  C   UNL     1      37.342 -13.451  -3.228  1.00  0.00    -0.014 A 
HETATM   32  C   UNL     1      36.603 -14.363  -3.992  1.00  0.00     0.049 A 
HETATM   33  C   UNL     1      35.898 -13.906  -5.098  1.00  0.00     0.066 A 
HETATM   34  C   UNL     1      35.912 -12.560  -5.446  1.00  0.00     0.036 A 
HETATM   35  C   UNL     1      36.648 -11.652  -4.680  1.00  0.00     0.004 A 
HETATM   36  C   UNL     1      37.369 -12.096  -3.569  1.00  0.00     0.013 A 
BRANCH  33  37
HETATM   37  O   UNL     1      35.172 -14.757  -5.877  1.00  0.00    -0.361 OA
HETATM   38  H   UNL     1      34.776 -15.438  -5.306  1.00  0.00     0.217 HD
ENDBRANCH  33  37
ENDBRANCH  30  31
ENDBRANCH   9  29
TORSDOF 8
ENDMDL
MODEL 9
REMARK VINA RESULT:      -8.7      4.452      7.952
REMARK  8 active torsions:
REMARK  status: ('A' for Active; 'I' for Inactive)
REMARK    1  A    between atoms: N_9  and  N_10 
REMARK    2  A    between atoms: C_11  and  C_12 
REMARK    3  A    between atoms: C_14  and  O_15 
REMARK    4  A    between atoms: C_19  and  N_20 
REMARK    5  A    between atoms: C_21  and  C_22 
REMARK       I    between atoms: C_22  and  N_23 
REMARK    6  A    between atoms: N_23  and  C_24 
REMARK    7  A    between atoms: C_24  and  C_25 
REMARK    8  A    between atoms: C_25  and  C_26 
ROOT
HETATM    1  C   UNL     1      39.073 -11.711   5.458  1.00  0.00     0.002 A 
HETATM    2  C   UNL     1      39.055 -11.841   4.068  1.00  0.00     0.034 A 
HETATM    3  C   UNL     1      39.743 -12.860   3.422  1.00  0.00     0.086 A 
HETATM    4  C   UNL     1      40.481 -13.786   4.206  1.00  0.00     0.088 A 
HETATM    5  N   UNL     1      41.168 -14.805   3.673  1.00  0.00    -0.225 NA
HETATM    6  C   UNL     1      41.067 -14.867   2.325  1.00  0.00     0.183 A 
HETATM    7  C   UNL     1      40.347 -13.983   1.535  1.00  0.00     0.125 A 
HETATM    8  N   UNL     1      39.675 -12.931   2.078  1.00  0.00    -0.242 NA
HETATM    9  N   UNL     1      41.654 -15.799   1.493  1.00  0.00    -0.197 N 
HETATM   10  C   UNL     1      41.276 -15.520   0.180  1.00  0.00     0.143 A 
HETATM   11  C   UNL     1      40.500 -14.365   0.177  1.00  0.00     0.110 A 
HETATM   12  C   UNL     1      40.495 -13.644   5.587  1.00  0.00     0.034 A 
HETATM   13  C   UNL     1      39.798 -12.616   6.221  1.00  0.00     0.002 A 
ENDROOT
BRANCH  11  14
HETATM   14  C   UNL     1      40.054 -13.669  -1.021  1.00  0.00     0.257 C 
HETATM   15  N   UNL     1      38.921 -12.902  -0.855  1.00  0.00    -0.356 N 
HETATM   16  H   UNL     1      38.470 -12.909   0.058  1.00  0.00     0.162 HD
HETATM   17  O   UNL     1      40.699 -13.673  -2.068  1.00  0.00    -0.267 OA
BRANCH  15  18
HETATM   18  C   UNL     1      38.626 -11.820  -1.772  1.00  0.00     0.127 C 
BRANCH  18  19
HETATM   19  C   UNL     1      39.189 -10.465  -1.319  1.00  0.00     0.053 C 
BRANCH  19  20
HETATM   20  C   UNL     1      40.683 -10.205  -1.473  1.00  0.00    -0.082 C 
HETATM   21  C   UNL     1      41.449 -10.226  -0.164  1.00  0.00     0.034 C 
HETATM   22  C   UNL     1      42.868  -9.657  -0.264  1.00  0.00     0.005 C 
HETATM   23  C   UNL     1      43.577 -10.179  -1.506  1.00  0.00     0.004 C 
HETATM   24  C   UNL     1      42.807  -9.795  -2.767  1.00  0.00     0.027 C 
HETATM   25  C   UNL     1      41.321  -9.972  -2.637  1.00  0.00    -0.024 C 
ENDBRANCH  19  20
ENDBRANCH  18  19
ENDBRANCH  15  18
ENDBRANCH  11  14
BRANCH  10  26
HETATM   26  N   UNL     1      41.721 -16.259  -0.875  1.00  0.00    -0.383 N 
HETATM   27  H   UNL     1      42.246 -17.114  -0.696  1.00  0.00     0.157 HD
HETATM   28  H   UNL     1      42.084 -15.744  -1.685  1.00  0.00     0.157 HD
ENDBRANCH  10  26
BRANCH   9  29
HETATM   29  N   UNL     1      42.590 -16.709   1.907  1.00  0.00    -0.176 NA
HETATM   30  C   UNL     1      42.121 -17.873   2.217  1.00  0.00     0.150 C 
BRANCH  30  31
HETATM   31  C   UNL     1      43.036 -18.962   2.615  1.00  0.00    -0.014 A 
HETATM   32  C   UNL     1      43.166 -20.100   1.808  1.00  0.00     0.049 A 
HETATM   33  C   UNL     1      44.020 -21.120   2.208  1.00  0.00     0.066 A 
HETATM   34  C   UNL     1      44.747 -21.019   3.388  1.00  0.00     0.036 A 
HETATM   35  C   UNL     1      44.617 -19.881   4.189  1.00  0.00     0.004 A 
HETATM   36  C   UNL     1      43.757 -18.850   3.806  1.00  0.00     0.013 A 
BRANCH  33  37
HETATM   37  O   UNL     1      44.172 -22.250   1.460  1.00  0.00    -0.361 OA
HETATM   38  H   UNL     1      45.094 -22.550   1.535  1.00  0.00     0.217 HD
ENDBRANCH  33  37
ENDBRANCH  30  31
ENDBRANCH   9  29
TORSDOF 8
ENDMDL
MODEL 10
REMARK VINA RESULT:      -8.7      3.227      4.943
REMARK  8 active torsions:
REMARK  status: ('A' for Active; 'I' for Inactive)
REMARK    1  A    between atoms: N_9  and  N_10 
REMARK    2  A    between atoms: C_11  and  C_12 
REMARK    3  A    between atoms: C_14  and  O_15 
REMARK    4  A    between atoms: C_19  and  N_20 
REMARK    5  A    between atoms: C_21  and  C_22 
REMARK       I    between atoms: C_22  and  N_23 
REMARK    6  A    between atoms: N_23  and  C_24 
REMARK    7  A    between atoms: C_24  and  C_25 
REMARK    8  A    between atoms: C_25  and  C_26 
ROOT
HETATM    1  C   UNL     1      40.831 -12.923  -0.989  1.00  0.00     0.002 A 
HETATM    2  C   UNL     1      41.159 -12.657   0.342  1.00  0.00     0.034 A 
HETATM    3  C   UNL     1      41.585 -13.662   1.202  1.00  0.00     0.086 A 
HETATM    4  C   UNL     1      41.682 -14.989   0.703  1.00  0.00     0.088 A 
HETATM    5  N   UNL     1      42.090 -16.020   1.454  1.00  0.00    -0.225 NA
HETATM    6  C   UNL     1      42.414 -15.661   2.718  1.00  0.00     0.183 A 
HETATM    7  C   UNL     1      42.338 -14.374   3.229  1.00  0.00     0.125 A 
HETATM    8  N   UNL     1      41.893 -13.334   2.471  1.00  0.00    -0.242 NA
HETATM    9  N   UNL     1      42.868 -16.491   3.723  1.00  0.00    -0.197 N 
HETATM   10  C   UNL     1      43.109 -15.719   4.859  1.00  0.00     0.143 A 
HETATM   11  C   UNL     1      42.741 -14.405   4.590  1.00  0.00     0.110 A 
HETATM   12  C   UNL     1      41.348 -15.240  -0.622  1.00  0.00     0.034 A 
HETATM   13  C   UNL     1      40.925 -14.220  -1.473  1.00  0.00     0.002 A 
ENDROOT
BRANCH  11  14
HETATM   14  C   UNL     1      42.693 -13.338   5.578  1.00  0.00     0.257 C 
HETATM   15  N   UNL     1      41.671 -12.431   5.400  1.00  0.00    -0.356 N 
HETATM   16  H   UNL     1      41.064 -12.549   4.591  1.00  0.00     0.162 HD
HETATM   17  O   UNL     1      43.435 -13.309   6.558  1.00  0.00    -0.267 OA
BRANCH  15  18
HETATM   18  C   UNL     1      41.209 -11.618   6.506  1.00  0.00     0.127 C 
BRANCH  18  19
HETATM   19  C   UNL     1      39.857 -10.940   6.244  1.00  0.00     0.053 C 
BRANCH  19  20
HETATM   20  C   UNL     1      39.445 -10.663   4.803  1.00  0.00    -0.082 C 
HETATM   21  C   UNL     1      40.013  -9.375   4.236  1.00  0.00     0.034 C 
HETATM   22  C   UNL     1      39.358  -8.930   2.926  1.00  0.00     0.005 C 
HETATM   23  C   UNL     1      39.190 -10.106   1.974  1.00  0.00     0.004 C 
HETATM   24  C   UNL     1      38.323 -11.192   2.608  1.00  0.00     0.027 C 
HETATM   25  C   UNL     1      38.651 -11.451   4.051  1.00  0.00    -0.024 C 
ENDBRANCH  19  20
ENDBRANCH  18  19
ENDBRANCH  15  18
ENDBRANCH  11  14
BRANCH  10  26
HETATM   26  N   UNL     1      43.544 -16.267   6.029  1.00  0.00    -0.383 N 
HETATM   27  H   UNL     1      44.318 -15.827   6.525  1.00  0.00     0.157 HD
HETATM   28  H   UNL     1      43.585 -17.291   6.077  1.00  0.00     0.157 HD
ENDBRANCH  10  26
BRANCH   9  29
HETATM   29  N   UNL     1      42.885 -17.858   3.635  1.00  0.00    -0.176 NA
HETATM   30  C   UNL     1      44.000 -18.365   3.225  1.00  0.00     0.150 C 
BRANCH  30  31
HETATM   31  C   UNL     1      44.168 -19.831   3.150  1.00  0.00    -0.014 A 
HETATM   32  C   UNL     1      44.693 -20.534   4.242  1.00  0.00     0.049 A 
HETATM   33  C   UNL     1      44.857 -21.911   4.146  1.00  0.00     0.066 A 
HETATM   34  C   UNL     1      44.502 -22.591   2.987  1.00  0.00     0.036 A 
HETATM   35  C   UNL     1      43.976 -21.887   1.901  1.00  0.00     0.004 A 
HETATM   36  C   UNL     1      43.812 -20.502   1.978  1.00  0.00     0.013 A 
BRANCH  33  37
HETATM   37  O   UNL     1      45.372 -22.636   5.178  1.00  0.00    -0.361 OA
HETATM   38  H   UNL     1      45.498 -23.554   4.880  1.00  0.00     0.217 HD
ENDBRANCH  33  37
ENDBRANCH  30  31
ENDBRANCH   9  29
TORSDOF 8
ENDMDL
