MODEL 1
REMARK VINA RESULT:      -8.8      0.000      0.000
REMARK  8 active torsions:
REMARK  status: ('A' for Active; 'I' for Inactive)
REMARK    1  A    between atoms: C_5  and  O_6 
REMARK    2  A    between atoms: O_6  and  C_7 
REMARK    3  A    between atoms: C_7  and  C_8 
REMARK    4  A    between atoms: C_8  and  C_9 
REMARK    5  A    between atoms: C_9  and  C_10 
REMARK    6  A    between atoms: C_10  and  N_11 
REMARK       I    between atoms: N_11  and  C_12 
REMARK    7  A    between atoms: C_12  and  C_13 
REMARK    8  A    between atoms: C_17  and  C_18 
ROOT
HETATM    1  N   UNL     1      43.906 -13.322   7.886  1.00  0.00    -0.345 N 
HETATM    2  C   UNL     1      44.827 -12.661   8.658  1.00  0.00     0.270 C 
HETATM    3  O   UNL     1      45.987 -12.484   8.297  1.00  0.00    -0.266 OA
HETATM    4  H   UNL     1      42.943 -13.371   8.177  1.00  0.00     0.163 HD
ENDROOT
BRANCH   2   5
HETATM    5  C   UNL     1      44.337 -12.183   9.921  1.00  0.00     0.120 A 
HETATM    6  N   UNL     1      44.182 -13.016  10.993  1.00  0.00    -0.272 N 
HETATM    7  H   UNL     1      44.387 -14.010  11.024  1.00  0.00     0.189 HD
HETATM    8  N   UNL     1      43.696 -12.418  12.091  1.00  0.00    -0.174 NA
HETATM    9  C   UNL     1      43.536 -11.133  11.735  1.00  0.00     0.089 A 
HETATM   10  C   UNL     1      43.925 -10.947  10.379  1.00  0.00     0.071 A 
BRANCH   9  11
HETATM   11  C   UNL     1      43.016 -10.131  12.671  1.00  0.00    -0.003 A 
HETATM   12  C   UNL     1      42.447 -10.519  13.895  1.00  0.00     0.053 A 
HETATM   13  C   UNL     1      41.985  -9.533  14.743  1.00  0.00     0.106 A 
HETATM   14  C   UNL     1      42.066  -8.199  14.422  1.00  0.00     0.105 A 
HETATM   15  O   UNL     1      41.411  -9.741  15.959  1.00  0.00    -0.323 OA
HETATM   16  O   UNL     1      41.555  -7.399  15.395  1.00  0.00    -0.323 OA
HETATM   17  C   UNL     1      42.610  -7.775  13.232  1.00  0.00     0.040 A 
HETATM   18  C   UNL     1      41.137  -8.383  16.364  1.00  0.00     0.352 A 
HETATM   19  C   UNL     1      43.087  -8.754  12.351  1.00  0.00     0.017 A 
ENDBRANCH   9  11
ENDBRANCH   2   5
BRANCH   1  20
HETATM   20  C   UNL     1      44.251 -13.809   6.577  1.00  0.00     0.217 C 
BRANCH  20  21
HETATM   21  C   UNL     1      44.498 -15.251   6.635  1.00  0.00    -0.085 C 
BRANCH  21  22
HETATM   22  C   UNL     1      44.713 -16.534   6.708  1.00  0.00    -0.078 C 
BRANCH  22  23
HETATM   23  C   UNL     1      44.966 -18.030   6.793  1.00  0.00     0.269 C 
BRANCH  23  24
HETATM   24  O   UNL     1      43.823 -18.717   6.290  1.00  0.00    -0.338 OA
BRANCH  24  25
HETATM   25  C   UNL     1      44.023 -19.510   5.197  1.00  0.00     0.087 A 
HETATM   26  C   UNL     1      44.589 -20.778   5.170  1.00  0.00     0.153 A 
HETATM   27  N   UNL     1      44.753 -21.518   4.045  1.00  0.00    -0.263 NA
HETATM   28  C   UNL     1      44.335 -20.975   2.878  1.00  0.00     0.030 A 
HETATM   29  C   UNL     1      44.514 -21.794   1.634  1.00  0.00     0.070 C 
HETATM   30  C   UNL     1      43.762 -19.710   2.807  1.00  0.00     0.029 A 
HETATM   31  C   UNL     1      43.607 -18.976   3.982  1.00  0.00     0.040 A 
ENDBRANCH  24  25
ENDBRANCH  23  24
ENDBRANCH  22  23
ENDBRANCH  21  22
ENDBRANCH  20  21
ENDBRANCH   1  20
TORSDOF 8
ENDMDL
MODEL 2
REMARK VINA RESULT:      -8.3      2.867     12.388
REMARK  8 active torsions:
REMARK  status: ('A' for Active; 'I' for Inactive)
REMARK    1  A    between atoms: C_5  and  O_6 
REMARK    2  A    between atoms: O_6  and  C_7 
REMARK    3  A    between atoms: C_7  and  C_8 
REMARK    4  A    between atoms: C_8  and  C_9 
REMARK    5  A    between atoms: C_9  and  C_10 
REMARK    6  A    between atoms: C_10  and  N_11 
REMARK       I    between atoms: N_11  and  C_12 
REMARK    7  A    between atoms: C_12  and  C_13 
REMARK    8  A    between atoms: C_17  and  C_18 
ROOT
HETATM    1  N   UNL     1      41.386 -13.276   6.097  1.00  0.00    -0.345 N 
HETATM    2  C   UNL     1      42.442 -13.639   5.300  1.00  0.00     0.270 C 
HETATM    3  O   UNL     1      43.021 -12.842   4.568  1.00  0.00    -0.266 OA
HETATM    4  H   UNL     1      40.993 -13.936   6.749  1.00  0.00     0.163 HD
ENDROOT
BRANCH   2   5
HETATM    5  C   UNL     1      42.827 -15.020   5.386  1.00  0.00     0.120 A 
HETATM    6  N   UNL     1      43.059 -15.628   6.588  1.00  0.00    -0.272 N 
HETATM    7  H   UNL     1      42.986 -15.203   7.507  1.00  0.00     0.189 HD
HETATM    8  N   UNL     1      43.427 -16.914   6.493  1.00  0.00    -0.174 NA
HETATM    9  C   UNL     1      43.427 -17.172   5.175  1.00  0.00     0.089 A 
HETATM   10  C   UNL     1      43.057 -16.007   4.447  1.00  0.00     0.071 A 
BRANCH   9  11
HETATM   11  C   UNL     1      43.781 -18.493   4.646  1.00  0.00    -0.003 A 
HETATM   12  C   UNL     1      43.464 -18.845   3.324  1.00  0.00     0.053 A 
HETATM   13  C   UNL     1      43.832 -20.097   2.874  1.00  0.00     0.106 A 
HETATM   14  C   UNL     1      44.491 -20.995   3.679  1.00  0.00     0.105 A 
HETATM   15  O   UNL     1      43.601 -20.589   1.628  1.00  0.00    -0.323 OA
HETATM   16  O   UNL     1      44.760 -22.165   3.040  1.00  0.00    -0.323 OA
HETATM   17  C   UNL     1      44.817 -20.694   4.981  1.00  0.00     0.040 A 
HETATM   18  C   UNL     1      44.188 -21.902   1.742  1.00  0.00     0.352 A 
HETATM   19  C   UNL     1      44.455 -19.431   5.465  1.00  0.00     0.017 A 
ENDBRANCH   9  11
ENDBRANCH   2   5
BRANCH   1  20
HETATM   20  C   UNL     1      40.930 -11.912   6.145  1.00  0.00     0.217 C 
BRANCH  20  21
HETATM   21  C   UNL     1      41.474 -11.251   7.332  1.00  0.00    -0.085 C 
BRANCH  21  22
HETATM   22  C   UNL     1      41.948 -10.643   8.384  1.00  0.00    -0.078 C 
BRANCH  22  23
HETATM   23  C   UNL     1      42.498  -9.935   9.611  1.00  0.00     0.269 C 
BRANCH  23  24
HETATM   24  O   UNL     1      42.842 -10.913  10.589  1.00  0.00    -0.338 OA
BRANCH  24  25
HETATM   25  C   UNL     1      42.561 -10.599  11.887  1.00  0.00     0.087 A 
HETATM   26  C   UNL     1      41.466 -11.013  12.634  1.00  0.00     0.153 A 
HETATM   27  N   UNL     1      41.249 -10.668  13.927  1.00  0.00    -0.263 NA
HETATM   28  C   UNL     1      42.165  -9.867  14.519  1.00  0.00     0.030 A 
HETATM   29  C   UNL     1      41.927  -9.488  15.950  1.00  0.00     0.070 C 
HETATM   30  C   UNL     1      43.290  -9.399  13.848  1.00  0.00     0.029 A 
HETATM   31  C   UNL     1      43.484  -9.772  12.520  1.00  0.00     0.040 A 
ENDBRANCH  24  25
ENDBRANCH  23  24
ENDBRANCH  22  23
ENDBRANCH  21  22
ENDBRANCH  20  21
ENDBRANCH   1  20
TORSDOF 8
ENDMDL
MODEL 3
REMARK VINA RESULT:      -8.2      3.162     12.363
REMARK  8 active torsions:
REMARK  status: ('A' for Active; 'I' for Inactive)
REMARK    1  A    between atoms: C_5  and  O_6 
REMARK    2  A    between atoms: O_6  and  C_7 
REMARK    3  A    between atoms: C_7  and  C_8 
REMARK    4  A    between atoms: C_8  and  C_9 
REMARK    5  A    between atoms: C_9  and  C_10 
REMARK    6  A    between atoms: C_10  and  N_11 
REMARK       I    between atoms: N_11  and  C_12 
REMARK    7  A    between atoms: C_12  and  C_13 
REMARK    8  A    between atoms: C_17  and  C_18 
ROOT
HETATM    1  N   UNL     1      41.833 -13.121   4.356  1.00  0.00    -0.345 N 
HETATM    2  C   UNL     1      42.626 -13.736   3.421  1.00  0.00     0.270 C 
HETATM    3  O   UNL     1      43.014 -13.167   2.405  1.00  0.00    -0.266 OA
HETATM    4  H   UNL     1      41.607 -13.592   5.217  1.00  0.00     0.163 HD
ENDROOT
BRANCH   2   5
HETATM    5  C   UNL     1      42.976 -15.098   3.716  1.00  0.00     0.120 A 
HETATM    6  N   UNL     1      43.269 -15.505   4.988  1.00  0.00    -0.272 N 
HETATM    7  H   UNL     1      43.269 -14.930   5.824  1.00  0.00     0.189 HD
HETATM    8  N   UNL     1      43.593 -16.803   5.091  1.00  0.00    -0.174 NA
HETATM    9  C   UNL     1      43.497 -17.277   3.838  1.00  0.00     0.089 A 
HETATM   10  C   UNL     1      43.115 -16.236   2.947  1.00  0.00     0.071 A 
BRANCH   9  11
HETATM   11  C   UNL     1      43.777 -18.681   3.520  1.00  0.00    -0.003 A 
HETATM   12  C   UNL     1      44.252 -19.560   4.509  1.00  0.00     0.053 A 
HETATM   13  C   UNL     1      44.487 -20.873   4.157  1.00  0.00     0.106 A 
HETATM   14  C   UNL     1      44.271 -21.336   2.880  1.00  0.00     0.105 A 
HETATM   15  O   UNL     1      44.944 -21.846   4.991  1.00  0.00    -0.323 OA
HETATM   16  O   UNL     1      44.564 -22.657   2.750  1.00  0.00    -0.323 OA
HETATM   17  C   UNL     1      43.812 -20.509   1.881  1.00  0.00     0.040 A 
HETATM   18  C   UNL     1      44.995 -22.973   4.090  1.00  0.00     0.352 A 
HETATM   19  C   UNL     1      43.566 -19.170   2.209  1.00  0.00     0.017 A 
ENDBRANCH   9  11
ENDBRANCH   2   5
BRANCH   1  20
HETATM   20  C   UNL     1      41.450 -11.742   4.207  1.00  0.00     0.217 C 
BRANCH  20  21
HETATM   21  C   UNL     1      41.500 -11.073   5.508  1.00  0.00    -0.085 C 
BRANCH  21  22
HETATM   22  C   UNL     1      41.533 -10.461   6.659  1.00  0.00    -0.078 C 
BRANCH  22  23
HETATM   23  C   UNL     1      41.570  -9.749   8.001  1.00  0.00     0.269 C 
BRANCH  23  24
HETATM   24  O   UNL     1      42.700 -10.212   8.735  1.00  0.00    -0.338 OA
BRANCH  24  25
HETATM   25  C   UNL     1      42.581 -10.219  10.095  1.00  0.00     0.087 A 
HETATM   26  C   UNL     1      41.407 -10.226  10.836  1.00  0.00     0.153 A 
HETATM   27  N   UNL     1      41.359 -10.238  12.191  1.00  0.00    -0.263 NA
HETATM   28  C   UNL     1      42.538 -10.244  12.854  1.00  0.00     0.030 A 
HETATM   29  C   UNL     1      42.486 -10.261  14.353  1.00  0.00     0.070 C 
HETATM   30  C   UNL     1      43.764 -10.232  12.197  1.00  0.00     0.029 A 
HETATM   31  C   UNL     1      43.778 -10.220  10.803  1.00  0.00     0.040 A 
ENDBRANCH  24  25
ENDBRANCH  23  24
ENDBRANCH  22  23
ENDBRANCH  21  22
ENDBRANCH  20  21
ENDBRANCH   1  20
TORSDOF 8
ENDMDL
MODEL 4
REMARK VINA RESULT:      -8.1      2.972     12.309
REMARK  8 active torsions:
REMARK  status: ('A' for Active; 'I' for Inactive)
REMARK    1  A    between atoms: C_5  and  O_6 
REMARK    2  A    between atoms: O_6  and  C_7 
REMARK    3  A    between atoms: C_7  and  C_8 
REMARK    4  A    between atoms: C_8  and  C_9 
REMARK    5  A    between atoms: C_9  and  C_10 
REMARK    6  A    between atoms: C_10  and  N_11 
REMARK       I    between atoms: N_11  and  C_12 
REMARK    7  A    between atoms: C_12  and  C_13 
REMARK    8  A    between atoms: C_17  and  C_18 
ROOT
HETATM    1  N   UNL     1      41.748 -12.771   5.288  1.00  0.00    -0.345 N 
HETATM    2  C   UNL     1      41.087 -13.955   5.076  1.00  0.00     0.270 C 
HETATM    3  O   UNL     1      39.900 -14.106   5.344  1.00  0.00    -0.266 OA
HETATM    4  H   UNL     1      42.699 -12.659   4.975  1.00  0.00     0.163 HD
ENDROOT
BRANCH   2   5
HETATM    5  C   UNL     1      41.886 -15.008   4.513  1.00  0.00     0.120 A 
HETATM    6  N   UNL     1      42.748 -14.782   3.477  1.00  0.00    -0.272 N 
HETATM    7  H   UNL     1      42.919 -13.895   3.013  1.00  0.00     0.189 HD
HETATM    8  N   UNL     1      43.404 -15.874   3.057  1.00  0.00    -0.174 NA
HETATM    9  C   UNL     1      42.969 -16.861   3.856  1.00  0.00     0.089 A 
HETATM   10  C   UNL     1      42.013 -16.357   4.782  1.00  0.00     0.071 A 
BRANCH   9  11
HETATM   11  C   UNL     1      43.454 -18.238   3.718  1.00  0.00    -0.003 A 
HETATM   12  C   UNL     1      43.846 -18.976   4.847  1.00  0.00     0.053 A 
HETATM   13  C   UNL     1      44.284 -20.272   4.659  1.00  0.00     0.106 A 
HETATM   14  C   UNL     1      44.344 -20.848   3.413  1.00  0.00     0.105 A 
HETATM   15  O   UNL     1      44.696 -21.117   5.642  1.00  0.00    -0.323 OA
HETATM   16  O   UNL     1      44.800 -22.128   3.453  1.00  0.00    -0.323 OA
HETATM   17  C   UNL     1      43.974 -20.159   2.281  1.00  0.00     0.040 A 
HETATM   18  C   UNL     1      45.026 -22.291   4.869  1.00  0.00     0.352 A 
HETATM   19  C   UNL     1      43.528 -18.842   2.440  1.00  0.00     0.017 A 
ENDBRANCH   9  11
ENDBRANCH   2   5
BRANCH   1  20
HETATM   20  C   UNL     1      41.054 -11.619   5.800  1.00  0.00     0.217 C 
BRANCH  20  21
HETATM   21  C   UNL     1      41.679 -11.182   7.050  1.00  0.00    -0.085 C 
BRANCH  21  22
HETATM   22  C   UNL     1      42.221 -10.777   8.164  1.00  0.00    -0.078 C 
BRANCH  22  23
HETATM   23  C   UNL     1      42.851 -10.306   9.464  1.00  0.00     0.269 C 
BRANCH  23  24
HETATM   24  O   UNL     1      42.686 -11.323  10.449  1.00  0.00    -0.338 OA
BRANCH  24  25
HETATM   25  C   UNL     1      42.479 -10.900  11.730  1.00  0.00     0.087 A 
HETATM   26  C   UNL     1      41.390 -11.186  12.544  1.00  0.00     0.153 A 
HETATM   27  N   UNL     1      41.248 -10.737  13.816  1.00  0.00    -0.263 NA
HETATM   28  C   UNL     1      42.238  -9.961  14.314  1.00  0.00     0.030 A 
HETATM   29  C   UNL     1      42.084  -9.467  15.722  1.00  0.00     0.070 C 
HETATM   30  C   UNL     1      43.363  -9.619  13.572  1.00  0.00     0.029 A 
HETATM   31  C   UNL     1      43.479 -10.097  12.268  1.00  0.00     0.040 A 
ENDBRANCH  24  25
ENDBRANCH  23  24
ENDBRANCH  22  23
ENDBRANCH  21  22
ENDBRANCH  20  21
ENDBRANCH   1  20
TORSDOF 8
ENDMDL
MODEL 5
REMARK VINA RESULT:      -7.9      3.327     11.787
REMARK  8 active torsions:
REMARK  status: ('A' for Active; 'I' for Inactive)
REMARK    1  A    between atoms: C_5  and  O_6 
REMARK    2  A    between atoms: O_6  and  C_7 
REMARK    3  A    between atoms: C_7  and  C_8 
REMARK    4  A    between atoms: C_8  and  C_9 
REMARK    5  A    between atoms: C_9  and  C_10 
REMARK    6  A    between atoms: C_10  and  N_11 
REMARK       I    between atoms: N_11  and  C_12 
REMARK    7  A    between atoms: C_12  and  C_13 
REMARK    8  A    between atoms: C_17  and  C_18 
ROOT
HETATM    1  N   UNL     1      40.108 -13.528   6.576  1.00  0.00    -0.345 N 
HETATM    2  C   UNL     1      40.234 -14.234   5.407  1.00  0.00     0.270 C 
HETATM    3  O   UNL     1      39.557 -13.994   4.413  1.00  0.00    -0.266 OA
HETATM    4  H   UNL     1      40.741 -13.697   7.341  1.00  0.00     0.163 HD
ENDROOT
BRANCH   2   5
HETATM    5  C   UNL     1      41.222 -15.277   5.427  1.00  0.00     0.120 A 
HETATM    6  N   UNL     1      42.284 -15.245   6.287  1.00  0.00    -0.272 N 
HETATM    7  H   UNL     1      42.486 -14.527   6.976  1.00  0.00     0.189 HD
HETATM    8  N   UNL     1      43.124 -16.284   6.165  1.00  0.00    -0.174 NA
HETATM    9  C   UNL     1      42.590 -17.041   5.194  1.00  0.00     0.089 A 
HETATM   10  C   UNL     1      41.396 -16.441   4.704  1.00  0.00     0.071 A 
BRANCH   9  11
HETATM   11  C   UNL     1      43.219 -18.291   4.754  1.00  0.00    -0.003 A 
HETATM   12  C   UNL     1      43.078 -18.737   3.429  1.00  0.00     0.053 A 
HETATM   13  C   UNL     1      43.702 -19.913   3.066  1.00  0.00     0.106 A 
HETATM   14  C   UNL     1      44.447 -20.648   3.957  1.00  0.00     0.105 A 
HETATM   15  O   UNL     1      43.665 -20.479   1.830  1.00  0.00    -0.323 OA
HETATM   16  O   UNL     1      44.973 -21.768   3.395  1.00  0.00    -0.323 OA
HETATM   17  C   UNL     1      44.607 -20.251   5.265  1.00  0.00     0.040 A 
HETATM   18  C   UNL     1      44.470 -21.657   2.047  1.00  0.00     0.352 A 
HETATM   19  C   UNL     1      43.984 -19.061   5.662  1.00  0.00     0.017 A 
ENDBRANCH   9  11
ENDBRANCH   2   5
BRANCH   1  20
HETATM   20  C   UNL     1      39.190 -12.424   6.677  1.00  0.00     0.217 C 
BRANCH  20  21
HETATM   21  C   UNL     1      39.339 -11.776   7.981  1.00  0.00    -0.085 C 
BRANCH  21  22
HETATM   22  C   UNL     1      39.493 -11.197   9.139  1.00  0.00    -0.078 C 
BRANCH  22  23
HETATM   23  C   UNL     1      39.672 -10.522  10.489  1.00  0.00     0.269 C 
BRANCH  23  24
HETATM   24  O   UNL     1      40.684  -9.525  10.373  1.00  0.00    -0.338 OA
BRANCH  24  25
HETATM   25  C   UNL     1      41.972  -9.972  10.312  1.00  0.00     0.087 A 
HETATM   26  C   UNL     1      42.667 -10.384   9.183  1.00  0.00     0.153 A 
HETATM   27  N   UNL     1      43.953 -10.813   9.191  1.00  0.00    -0.263 NA
HETATM   28  C   UNL     1      44.593 -10.836  10.384  1.00  0.00     0.030 A 
HETATM   29  C   UNL     1      46.017 -11.306  10.393  1.00  0.00     0.070 C 
HETATM   30  C   UNL     1      43.976 -10.446  11.568  1.00  0.00     0.029 A 
HETATM   31  C   UNL     1      42.653 -10.011  11.525  1.00  0.00     0.040 A 
ENDBRANCH  24  25
ENDBRANCH  23  24
ENDBRANCH  22  23
ENDBRANCH  21  22
ENDBRANCH  20  21
ENDBRANCH   1  20
TORSDOF 8
ENDMDL
MODEL 6
REMARK VINA RESULT:      -7.8      6.259     11.630
REMARK  8 active torsions:
REMARK  status: ('A' for Active; 'I' for Inactive)
REMARK    1  A    between atoms: C_5  and  O_6 
REMARK    2  A    between atoms: O_6  and  C_7 
REMARK    3  A    between atoms: C_7  and  C_8 
REMARK    4  A    between atoms: C_8  and  C_9 
REMARK    5  A    between atoms: C_9  and  C_10 
REMARK    6  A    between atoms: C_10  and  N_11 
REMARK       I    between atoms: N_11  and  C_12 
REMARK    7  A    between atoms: C_12  and  C_13 
REMARK    8  A    between atoms: C_17  and  C_18 
ROOT
HETATM    1  N   UNL     1      40.113 -14.529   0.878  1.00  0.00    -0.345 N 
HETATM    2  C   UNL     1      41.468 -14.432   1.065  1.00  0.00     0.270 C 
HETATM    3  O   UNL     1      42.063 -13.359   1.046  1.00  0.00    -0.266 OA
HETATM    4  H   UNL     1      39.649 -15.416   0.987  1.00  0.00     0.163 HD
ENDROOT
BRANCH   2   5
HETATM    5  C   UNL     1      42.145 -15.679   1.291  1.00  0.00     0.120 A 
HETATM    6  N   UNL     1      42.669 -16.409   0.262  1.00  0.00    -0.272 N 
HETATM    7  H   UNL     1      42.648 -16.169  -0.725  1.00  0.00     0.189 HD
HETATM    8  N   UNL     1      43.251 -17.557   0.640  1.00  0.00    -0.174 NA
HETATM    9  C   UNL     1      43.119 -17.581   1.976  1.00  0.00     0.089 A 
HETATM   10  C   UNL     1      42.428 -16.420   2.422  1.00  0.00     0.071 A 
BRANCH   9  11
HETATM   11  C   UNL     1      43.634 -18.692   2.784  1.00  0.00    -0.003 A 
HETATM   12  C   UNL     1      43.701 -19.992   2.256  1.00  0.00     0.053 A 
HETATM   13  C   UNL     1      44.205 -20.997   3.056  1.00  0.00     0.106 A 
HETATM   14  C   UNL     1      44.637 -20.759   4.339  1.00  0.00     0.105 A 
HETATM   15  O   UNL     1      44.337 -22.302   2.698  1.00  0.00    -0.323 OA
HETATM   16  O   UNL     1      45.096 -21.883   4.950  1.00  0.00    -0.323 OA
HETATM   17  C   UNL     1      44.585 -19.502   4.897  1.00  0.00     0.040 A 
HETATM   18  C   UNL     1      44.899 -22.859   3.905  1.00  0.00     0.352 A 
HETATM   19  C   UNL     1      44.076 -18.463   4.109  1.00  0.00     0.017 A 
ENDBRANCH   9  11
ENDBRANCH   2   5
BRANCH   1  20
HETATM   20  C   UNL     1      39.307 -13.352   0.691  1.00  0.00     0.217 C 
BRANCH  20  21
HETATM   21  C   UNL     1      39.107 -12.681   1.976  1.00  0.00    -0.085 C 
BRANCH  21  22
HETATM   22  C   UNL     1      38.934 -12.101   3.131  1.00  0.00    -0.078 C 
BRANCH  22  23
HETATM   23  C   UNL     1      38.733 -11.426   4.477  1.00  0.00     0.269 C 
BRANCH  23  24
HETATM   24  O   UNL     1      38.834 -12.410   5.503  1.00  0.00    -0.338 OA
BRANCH  24  25
HETATM   25  C   UNL     1      40.038 -13.042   5.622  1.00  0.00     0.087 A 
HETATM   26  C   UNL     1      41.283 -12.453   5.802  1.00  0.00     0.153 A 
HETATM   27  N   UNL     1      42.444 -13.144   5.920  1.00  0.00    -0.263 NA
HETATM   28  C   UNL     1      42.374 -14.493   5.856  1.00  0.00     0.030 A 
HETATM   29  C   UNL     1      43.658 -15.257   5.989  1.00  0.00     0.070 C 
HETATM   30  C   UNL     1      41.173 -15.170   5.673  1.00  0.00     0.029 A 
HETATM   31  C   UNL     1      39.997 -14.431   5.555  1.00  0.00     0.040 A 
ENDBRANCH  24  25
ENDBRANCH  23  24
ENDBRANCH  22  23
ENDBRANCH  21  22
ENDBRANCH  20  21
ENDBRANCH   1  20
TORSDOF 8
ENDMDL
MODEL 7
REMARK VINA RESULT:      -7.7      8.756     12.466
REMARK  8 active torsions:
REMARK  status: ('A' for Active; 'I' for Inactive)
REMARK    1  A    between atoms: C_5  and  O_6 
REMARK    2  A    between atoms: O_6  and  C_7 
REMARK    3  A    between atoms: C_7  and  C_8 
REMARK    4  A    between atoms: C_8  and  C_9 
REMARK    5  A    between atoms: C_9  and  C_10 
REMARK    6  A    between atoms: C_10  and  N_11 
REMARK       I    between atoms: N_11  and  C_12 
REMARK    7  A    between atoms: C_12  and  C_13 
REMARK    8  A    between atoms: C_17  and  C_18 
ROOT
HETATM    1  N   UNL     1      41.459 -14.671  -1.568  1.00  0.00    -0.345 N 
HETATM    2  C   UNL     1      41.773 -14.609  -0.233  1.00  0.00     0.270 C 
HETATM    3  O   UNL     1      41.915 -13.546   0.363  1.00  0.00    -0.266 OA
HETATM    4  H   UNL     1      41.265 -15.560  -2.001  1.00  0.00     0.163 HD
ENDROOT
BRANCH   2   5
HETATM    5  C   UNL     1      41.923 -15.880   0.419  1.00  0.00     0.120 A 
HETATM    6  N   UNL     1      40.940 -16.830   0.377  1.00  0.00    -0.272 N 
HETATM    7  H   UNL     1      40.045 -16.756  -0.096  1.00  0.00     0.189 HD
HETATM    8  N   UNL     1      41.229 -17.952   1.053  1.00  0.00    -0.174 NA
HETATM    9  C   UNL     1      42.458 -17.743   1.551  1.00  0.00     0.089 A 
HETATM   10  C   UNL     1      42.926 -16.452   1.177  1.00  0.00     0.071 A 
BRANCH   9  11
HETATM   11  C   UNL     1      43.143 -18.751   2.366  1.00  0.00    -0.003 A 
HETATM   12  C   UNL     1      43.281 -20.071   1.907  1.00  0.00     0.053 A 
HETATM   13  C   UNL     1      43.946 -20.976   2.710  1.00  0.00     0.106 A 
HETATM   14  C   UNL     1      44.469 -20.620   3.931  1.00  0.00     0.105 A 
HETATM   15  O   UNL     1      44.164 -22.285   2.414  1.00  0.00    -0.323 OA
HETATM   16  O   UNL     1      45.083 -21.660   4.556  1.00  0.00    -0.323 OA
HETATM   17  C   UNL     1      44.353 -19.340   4.420  1.00  0.00     0.040 A 
HETATM   18  C   UNL     1      44.882 -22.713   3.591  1.00  0.00     0.352 A 
HETATM   19  C   UNL     1      43.681 -18.401   3.628  1.00  0.00     0.017 A 
ENDBRANCH   9  11
ENDBRANCH   2   5
BRANCH   1  20
HETATM   20  C   UNL     1      41.232 -13.473  -2.330  1.00  0.00     0.217 C 
BRANCH  20  21
HETATM   21  C   UNL     1      40.016 -12.809  -1.857  1.00  0.00    -0.085 C 
BRANCH  21  22
HETATM   22  C   UNL     1      38.932 -12.232  -1.420  1.00  0.00    -0.078 C 
BRANCH  22  23
HETATM   23  C   UNL     1      37.667 -11.561  -0.910  1.00  0.00     0.269 C 
BRANCH  23  24
HETATM   24  O   UNL     1      37.063 -12.404   0.067  1.00  0.00    -0.338 OA
BRANCH  24  25
HETATM   25  C   UNL     1      37.896 -12.946   1.002  1.00  0.00     0.087 A 
HETATM   26  C   UNL     1      38.672 -12.266   1.931  1.00  0.00     0.153 A 
HETATM   27  N   UNL     1      39.478 -12.869   2.840  1.00  0.00    -0.263 NA
HETATM   28  C   UNL     1      39.521 -14.221   2.833  1.00  0.00     0.030 A 
HETATM   29  C   UNL     1      40.409 -14.888   3.841  1.00  0.00     0.070 C 
HETATM   30  C   UNL     1      38.782 -14.986   1.936  1.00  0.00     0.029 A 
HETATM   31  C   UNL     1      37.964 -14.336   1.014  1.00  0.00     0.040 A 
ENDBRANCH  24  25
ENDBRANCH  23  24
ENDBRANCH  22  23
ENDBRANCH  21  22
ENDBRANCH  20  21
ENDBRANCH   1  20
TORSDOF 8
ENDMDL
MODEL 8
REMARK VINA RESULT:      -7.6      6.498     10.737
REMARK  8 active torsions:
REMARK  status: ('A' for Active; 'I' for Inactive)
REMARK    1  A    between atoms: C_5  and  O_6 
REMARK    2  A    between atoms: O_6  and  C_7 
REMARK    3  A    between atoms: C_7  and  C_8 
REMARK    4  A    between atoms: C_8  and  C_9 
REMARK    5  A    between atoms: C_9  and  C_10 
REMARK    6  A    between atoms: C_10  and  N_11 
REMARK       I    between atoms: N_11  and  C_12 
REMARK    7  A    between atoms: C_12  and  C_13 
REMARK    8  A    between atoms: C_17  and  C_18 
ROOT
HETATM    1  N   UNL     1      41.918 -12.662   4.483  1.00  0.00    -0.345 N 
HETATM    2  C   UNL     1      41.508 -13.557   5.437  1.00  0.00     0.270 C 
HETATM    3  O   UNL     1      40.593 -13.318   6.219  1.00  0.00    -0.266 OA
HETATM    4  H   UNL     1      42.613 -12.928   3.804  1.00  0.00     0.163 HD
ENDROOT
BRANCH   2   5
HETATM    5  C   UNL     1      42.225 -14.802   5.456  1.00  0.00     0.120 A 
HETATM    6  N   UNL     1      43.040 -15.146   6.497  1.00  0.00    -0.272 N 
HETATM    7  H   UNL     1      43.221 -14.599   7.333  1.00  0.00     0.189 HD
HETATM    8  N   UNL     1      43.650 -16.332   6.351  1.00  0.00    -0.174 NA
HETATM    9  C   UNL     1      43.210 -16.798   5.172  1.00  0.00     0.089 A 
HETATM   10  C   UNL     1      42.315 -15.864   4.578  1.00  0.00     0.071 A 
BRANCH   9  11
HETATM   11  C   UNL     1      43.650 -18.092   4.639  1.00  0.00    -0.003 A 
HETATM   12  C   UNL     1      43.181 -18.554   3.398  1.00  0.00     0.053 A 
HETATM   13  C   UNL     1      43.637 -19.773   2.940  1.00  0.00     0.106 A 
HETATM   14  C   UNL     1      44.528 -20.535   3.658  1.00  0.00     0.105 A 
HETATM   15  O   UNL     1      43.282 -20.359   1.765  1.00  0.00    -0.323 OA
HETATM   16  O   UNL     1      44.847 -21.695   3.026  1.00  0.00    -0.323 OA
HETATM   17  C   UNL     1      45.009 -20.122   4.879  1.00  0.00     0.040 A 
HETATM   18  C   UNL     1      44.050 -21.580   1.829  1.00  0.00     0.352 A 
HETATM   19  C   UNL     1      44.562 -18.890   5.371  1.00  0.00     0.017 A 
ENDBRANCH   9  11
ENDBRANCH   2   5
BRANCH   1  20
HETATM   20  C   UNL     1      41.252 -11.396   4.322  1.00  0.00     0.217 C 
BRANCH  20  21
HETATM   21  C   UNL     1      40.166 -11.529   3.350  1.00  0.00    -0.085 C 
BRANCH  21  22
HETATM   22  C   UNL     1      39.210 -11.637   2.470  1.00  0.00    -0.078 C 
BRANCH  22  23
HETATM   23  C   UNL     1      38.095 -11.763   1.446  1.00  0.00     0.269 C 
BRANCH  23  24
HETATM   24  O   UNL     1      37.763 -13.141   1.297  1.00  0.00    -0.338 OA
BRANCH  24  25
HETATM   25  C   UNL     1      38.798 -13.991   1.035  1.00  0.00     0.087 A 
HETATM   26  C   UNL     1      39.656 -13.960  -0.056  1.00  0.00     0.153 A 
HETATM   27  N   UNL     1      40.673 -14.835  -0.254  1.00  0.00    -0.263 NA
HETATM   28  C   UNL     1      40.855 -15.798   0.680  1.00  0.00     0.030 A 
HETATM   29  C   UNL     1      41.981 -16.764   0.463  1.00  0.00     0.070 C 
HETATM   30  C   UNL     1      40.042 -15.910   1.802  1.00  0.00     0.029 A 
HETATM   31  C   UNL     1      39.005 -14.995   1.976  1.00  0.00     0.040 A 
ENDBRANCH  24  25
ENDBRANCH  23  24
ENDBRANCH  22  23
ENDBRANCH  21  22
ENDBRANCH  20  21
ENDBRANCH   1  20
TORSDOF 8
ENDMDL
MODEL 9
REMARK VINA RESULT:      -7.3      3.431     10.798
REMARK  8 active torsions:
REMARK  status: ('A' for Active; 'I' for Inactive)
REMARK    1  A    between atoms: C_5  and  O_6 
REMARK    2  A    between atoms: O_6  and  C_7 
REMARK    3  A    between atoms: C_7  and  C_8 
REMARK    4  A    between atoms: C_8  and  C_9 
REMARK    5  A    between atoms: C_9  and  C_10 
REMARK    6  A    between atoms: C_10  and  N_11 
REMARK       I    between atoms: N_11  and  C_12 
REMARK    7  A    between atoms: C_12  and  C_13 
REMARK    8  A    between atoms: C_17  and  C_18 
ROOT
HETATM    1  N   UNL     1      39.945 -12.011   7.176  1.00  0.00    -0.345 N 
HETATM    2  C   UNL     1      39.395 -12.414   5.985  1.00  0.00     0.270 C 
HETATM    3  O   UNL     1      38.358 -11.934   5.540  1.00  0.00    -0.266 OA
HETATM    4  H   UNL     1      40.842 -12.366   7.466  1.00  0.00     0.163 HD
ENDROOT
BRANCH   2   5
HETATM    5  C   UNL     1      40.125 -13.439   5.291  1.00  0.00     0.120 A 
HETATM    6  N   UNL     1      40.332 -13.384   3.941  1.00  0.00    -0.272 N 
HETATM    7  H   UNL     1      40.019 -12.656   3.307  1.00  0.00     0.189 HD
HETATM    8  N   UNL     1      41.015 -14.427   3.445  1.00  0.00    -0.174 NA
HETATM    9  C   UNL     1      41.283 -15.197   4.513  1.00  0.00     0.089 A 
HETATM   10  C   UNL     1      40.738 -14.610   5.689  1.00  0.00     0.071 A 
BRANCH   9  11
HETATM   11  C   UNL     1      42.027 -16.454   4.392  1.00  0.00    -0.003 A 
HETATM   12  C   UNL     1      42.650 -17.030   5.511  1.00  0.00     0.053 A 
HETATM   13  C   UNL     1      43.327 -18.220   5.343  1.00  0.00     0.106 A 
HETATM   14  C   UNL     1      43.406 -18.847   4.122  1.00  0.00     0.105 A 
HETATM   15  O   UNL     1      43.980 -18.904   6.320  1.00  0.00    -0.323 OA
HETATM   16  O   UNL     1      44.116 -20.005   4.177  1.00  0.00    -0.323 OA
HETATM   17  C   UNL     1      42.815 -18.316   2.999  1.00  0.00     0.040 A 
HETATM   18  C   UNL     1      44.482 -20.033   5.573  1.00  0.00     0.352 A 
HETATM   19  C   UNL     1      42.122 -17.108   3.139  1.00  0.00     0.017 A 
ENDBRANCH   9  11
ENDBRANCH   2   5
BRANCH   1  20
HETATM   20  C   UNL     1      39.342 -10.958   7.949  1.00  0.00     0.217 C 
BRANCH  20  21
HETATM   21  C   UNL     1      39.811 -11.031   9.333  1.00  0.00    -0.085 C 
BRANCH  21  22
HETATM   22  C   UNL     1      40.209 -11.102  10.573  1.00  0.00    -0.078 C 
BRANCH  22  23
HETATM   23  C   UNL     1      40.671 -11.186  12.018  1.00  0.00     0.269 C 
BRANCH  23  24
HETATM   24  O   UNL     1      41.926 -10.521  12.137  1.00  0.00    -0.338 OA
BRANCH  24  25
HETATM   25  C   UNL     1      42.901 -10.901  11.261  1.00  0.00     0.087 A 
HETATM   26  C   UNL     1      43.236 -10.291  10.059  1.00  0.00     0.153 A 
HETATM   27  N   UNL     1      44.224 -10.718   9.235  1.00  0.00    -0.263 NA
HETATM   28  C   UNL     1      44.923 -11.812   9.618  1.00  0.00     0.030 A 
HETATM   29  C   UNL     1      46.019 -12.282   8.708  1.00  0.00     0.070 C 
HETATM   30  C   UNL     1      44.656 -12.491  10.801  1.00  0.00     0.029 A 
HETATM   31  C   UNL     1      43.633 -12.026  11.627  1.00  0.00     0.040 A 
ENDBRANCH  24  25
ENDBRANCH  23  24
ENDBRANCH  22  23
ENDBRANCH  21  22
ENDBRANCH  20  21
ENDBRANCH   1  20
TORSDOF 8
ENDMDL
MODEL 10
REMARK VINA RESULT:      -7.3      1.977      2.359
REMARK  8 active torsions:
REMARK  status: ('A' for Active; 'I' for Inactive)
REMARK    1  A    between atoms: C_5  and  O_6 
REMARK    2  A    between atoms: O_6  and  C_7 
REMARK    3  A    between atoms: C_7  and  C_8 
REMARK    4  A    between atoms: C_8  and  C_9 
REMARK    5  A    between atoms: C_9  and  C_10 
REMARK    6  A    between atoms: C_10  and  N_11 
REMARK       I    between atoms: N_11  and  C_12 
REMARK    7  A    between atoms: C_12  and  C_13 
REMARK    8  A    between atoms: C_17  and  C_18 
ROOT
HETATM    1  N   UNL     1      44.146 -13.734   7.806  1.00  0.00    -0.345 N 
HETATM    2  C   UNL     1      44.966 -12.886   8.507  1.00  0.00     0.270 C 
HETATM    3  O   UNL     1      46.116 -12.640   8.158  1.00  0.00    -0.266 OA
HETATM    4  H   UNL     1      43.182 -13.843   8.074  1.00  0.00     0.163 HD
ENDROOT
BRANCH   2   5
HETATM    5  C   UNL     1      44.379 -12.300   9.680  1.00  0.00     0.120 A 
HETATM    6  N   UNL     1      44.413 -12.931  10.892  1.00  0.00    -0.272 N 
HETATM    7  H   UNL     1      44.836 -13.831  11.096  1.00  0.00     0.189 HD
HETATM    8  N   UNL     1      43.805 -12.259  11.881  1.00  0.00    -0.174 NA
HETATM    9  C   UNL     1      43.361 -11.131  11.303  1.00  0.00     0.089 A 
HETATM   10  C   UNL     1      43.701 -11.122   9.921  1.00  0.00     0.071 A 
BRANCH   9  11
HETATM   11  C   UNL     1      42.629 -10.111  12.061  1.00  0.00    -0.003 A 
HETATM   12  C   UNL     1      41.338  -9.718  11.672  1.00  0.00     0.053 A 
HETATM   13  C   UNL     1      40.690  -8.763  12.428  1.00  0.00     0.106 A 
HETATM   14  C   UNL     1      41.271  -8.194  13.537  1.00  0.00     0.105 A 
HETATM   15  O   UNL     1      39.443  -8.276  12.188  1.00  0.00    -0.323 OA
HETATM   16  O   UNL     1      40.462  -7.279  14.135  1.00  0.00    -0.323 OA
HETATM   17  C   UNL     1      42.535  -8.546  13.950  1.00  0.00     0.040 A 
HETATM   18  C   UNL     1      39.307  -7.333  13.272  1.00  0.00     0.352 A 
HETATM   19  C   UNL     1      43.217  -9.513  13.201  1.00  0.00     0.017 A 
ENDBRANCH   9  11
ENDBRANCH   2   5
BRANCH   1  20
HETATM   20  C   UNL     1      44.591 -14.349   6.584  1.00  0.00     0.217 C 
BRANCH  20  21
HETATM   21  C   UNL     1      43.441 -14.875   5.848  1.00  0.00    -0.085 C 
BRANCH  21  22
HETATM   22  C   UNL     1      42.407 -15.351   5.211  1.00  0.00    -0.078 C 
BRANCH  22  23
HETATM   23  C   UNL     1      41.203 -15.904   4.467  1.00  0.00     0.269 C 
BRANCH  23  24
HETATM   24  O   UNL     1      41.586 -16.192   3.125  1.00  0.00    -0.338 OA
BRANCH  24  25
HETATM   25  C   UNL     1      42.176 -17.404   2.907  1.00  0.00     0.087 A 
HETATM   26  C   UNL     1      42.824 -18.203   3.839  1.00  0.00     0.153 A 
HETATM   27  N   UNL     1      43.386 -19.404   3.557  1.00  0.00    -0.263 NA
HETATM   28  C   UNL     1      43.305 -19.843   2.279  1.00  0.00     0.030 A 
HETATM   29  C   UNL     1      43.923 -21.173   1.966  1.00  0.00     0.070 C 
HETATM   30  C   UNL     1      42.680 -19.108   1.277  1.00  0.00     0.029 A 
HETATM   31  C   UNL     1      42.112 -17.877   1.600  1.00  0.00     0.040 A 
ENDBRANCH  24  25
ENDBRANCH  23  24
ENDBRANCH  22  23
ENDBRANCH  21  22
ENDBRANCH  20  21
ENDBRANCH   1  20
TORSDOF 8
ENDMDL
