MODEL 1
REMARK VINA RESULT:      -8.8      0.000      0.000
REMARK  6 active torsions:
REMARK  status: ('A' for Active; 'I' for Inactive)
REMARK    1  A    between atoms: C_2  and  C_3 
REMARK    2  A    between atoms: C_4  and  N_5 
REMARK       I    between atoms: N_5  and  C_6 
REMARK    3  A    between atoms: C_6  and  C_7 
REMARK    4  A    between atoms: C_7  and  N_8 
REMARK       I    between atoms: N_8  and  C_9 
REMARK    5  A    between atoms: C_9  and  C_10 
REMARK    6  A    between atoms: C_11  and  C_12 
ROOT
HETATM    1  N   UNL     1      44.136 -15.082   7.792  1.00  0.00    -0.348 N 
HETATM    2  C   UNL     1      44.254 -13.885   7.110  1.00  0.00     0.255 C 
HETATM    3  O   UNL     1      43.485 -13.576   6.207  1.00  0.00    -0.268 OA
HETATM    4  H   UNL     1      44.873 -15.329   8.436  1.00  0.00     0.163 HD
ENDROOT
BRANCH   1   5
HETATM    5  C   UNL     1      43.377 -16.172   7.194  1.00  0.00     0.226 C 
BRANCH   5   6
HETATM    6  C   UNL     1      44.175 -17.237   6.424  1.00  0.00     0.239 C 
HETATM    7  N   UNL     1      43.407 -17.982   5.546  1.00  0.00    -0.325 N 
HETATM    8  H   UNL     1      42.431 -17.723   5.521  1.00  0.00     0.169 HD
HETATM    9  O   UNL     1      45.357 -17.427   6.704  1.00  0.00    -0.271 OA
BRANCH   7  10
HETATM   10  C   UNL     1      43.829 -19.012   4.676  1.00  0.00     0.041 A 
HETATM   11  C   UNL     1      43.644 -18.861   3.283  1.00  0.00    -0.032 A 
HETATM   12  C   UNL     1      44.087 -19.883   2.417  1.00  0.00     0.009 A 
HETATM   13  C   UNL     1      44.705 -21.029   2.911  1.00  0.00     0.001 A 
HETATM   14  C   UNL     1      44.886 -21.173   4.279  1.00  0.00     0.002 A 
HETATM   15  C   UNL     1      44.451 -20.174   5.153  1.00  0.00     0.030 A 
BRANCH  11  16
HETATM   16  C   UNL     1      42.958 -17.667   2.656  1.00  0.00     0.036 C 
HETATM   17  C   UNL     1      43.685 -17.157   1.421  1.00  0.00     0.010 C 
ENDBRANCH  11  16
ENDBRANCH   7  10
ENDBRANCH   5   6
ENDBRANCH   1   5
BRANCH   2  18
HETATM   18  C   UNL     1      45.340 -13.031   7.558  1.00  0.00     0.080 A 
HETATM   19  C   UNL     1      45.352 -12.071   8.624  1.00  0.00     0.104 A 
HETATM   20  N   UNL     1      46.531 -11.424   8.664  1.00  0.00    -0.174 NA
HETATM   21  N   UNL     1      47.245 -11.944   7.664  1.00  0.00    -0.288 N 
HETATM   22  H   UNL     1      48.177 -11.573   7.499  1.00  0.00     0.188 HD
HETATM   23  C   UNL     1      46.594 -12.924   6.981  1.00  0.00     0.128 A 
BRANCH  19  24
HETATM   24  C   UNL     1      44.318 -11.764   9.619  1.00  0.00    -0.005 A 
HETATM   25  C   UNL     1      44.453 -12.159  10.955  1.00  0.00     0.014 A 
HETATM   26  C   UNL     1      43.475 -11.833  11.899  1.00  0.00     0.001 A 
HETATM   27  C   UNL     1      42.352 -11.104  11.516  1.00  0.00     0.000 A 
HETATM   28  C   UNL     1      42.206 -10.698  10.191  1.00  0.00     0.001 A 
HETATM   29  C   UNL     1      43.185 -11.023   9.249  1.00  0.00     0.014 A 
ENDBRANCH  19  24
ENDBRANCH   2  18
TORSDOF 6
ENDMDL
MODEL 2
REMARK VINA RESULT:      -8.8      1.400      2.442
REMARK  6 active torsions:
REMARK  status: ('A' for Active; 'I' for Inactive)
REMARK    1  A    between atoms: C_2  and  C_3 
REMARK    2  A    between atoms: C_4  and  N_5 
REMARK       I    between atoms: N_5  and  C_6 
REMARK    3  A    between atoms: C_6  and  C_7 
REMARK    4  A    between atoms: C_7  and  N_8 
REMARK       I    between atoms: N_8  and  C_9 
REMARK    5  A    between atoms: C_9  and  C_10 
REMARK    6  A    between atoms: C_11  and  C_12 
ROOT
HETATM    1  N   UNL     1      43.494 -13.616   6.248  1.00  0.00    -0.348 N 
HETATM    2  C   UNL     1      44.354 -14.060   7.236  1.00  0.00     0.255 C 
HETATM    3  O   UNL     1      44.236 -15.167   7.746  1.00  0.00    -0.268 OA
HETATM    4  H   UNL     1      43.570 -12.651   5.959  1.00  0.00     0.163 HD
ENDROOT
BRANCH   1   5
HETATM    5  C   UNL     1      42.199 -14.263   6.085  1.00  0.00     0.226 C 
BRANCH   5   6
HETATM    6  C   UNL     1      42.088 -15.331   4.984  1.00  0.00     0.239 C 
HETATM    7  N   UNL     1      43.308 -15.843   4.580  1.00  0.00    -0.325 N 
HETATM    8  H   UNL     1      44.105 -15.456   5.065  1.00  0.00     0.169 HD
HETATM    9  O   UNL     1      40.992 -15.568   4.479  1.00  0.00    -0.271 OA
BRANCH   7  10
HETATM   10  C   UNL     1      43.557 -16.846   3.617  1.00  0.00     0.041 A 
HETATM   11  C   UNL     1      43.736 -18.183   4.039  1.00  0.00    -0.032 A 
HETATM   12  C   UNL     1      43.963 -19.185   3.072  1.00  0.00     0.009 A 
HETATM   13  C   UNL     1      44.007 -18.878   1.714  1.00  0.00     0.001 A 
HETATM   14  C   UNL     1      43.831 -17.564   1.302  1.00  0.00     0.002 A 
HETATM   15  C   UNL     1      43.609 -16.559   2.246  1.00  0.00     0.030 A 
BRANCH  11  16
HETATM   16  C   UNL     1      43.732 -18.608   5.492  1.00  0.00     0.036 C 
HETATM   17  C   UNL     1      45.079 -18.392   6.167  1.00  0.00     0.010 C 
ENDBRANCH  11  16
ENDBRANCH   7  10
ENDBRANCH   5   6
ENDBRANCH   1   5
BRANCH   2  18
HETATM   18  C   UNL     1      45.403 -13.124   7.599  1.00  0.00     0.080 A 
HETATM   19  C   UNL     1      45.386 -12.093   8.598  1.00  0.00     0.104 A 
HETATM   20  N   UNL     1      46.531 -11.386   8.566  1.00  0.00    -0.174 NA
HETATM   21  N   UNL     1      47.251 -11.937   7.587  1.00  0.00    -0.288 N 
HETATM   22  H   UNL     1      48.159 -11.532   7.375  1.00  0.00     0.188 HD
HETATM   23  C   UNL     1      46.638 -12.993   6.987  1.00  0.00     0.128 A 
BRANCH  19  24
HETATM   24  C   UNL     1      44.358 -11.771   9.593  1.00  0.00    -0.005 A 
HETATM   25  C   UNL     1      44.494 -12.157  10.932  1.00  0.00     0.014 A 
HETATM   26  C   UNL     1      43.522 -11.817  11.877  1.00  0.00     0.001 A 
HETATM   27  C   UNL     1      42.403 -11.082  11.492  1.00  0.00     0.000 A 
HETATM   28  C   UNL     1      42.256 -10.685  10.164  1.00  0.00     0.001 A 
HETATM   29  C   UNL     1      43.230 -11.024   9.222  1.00  0.00     0.014 A 
ENDBRANCH  19  24
ENDBRANCH   2  18
TORSDOF 6
ENDMDL
MODEL 3
REMARK VINA RESULT:      -8.5      4.597      8.532
REMARK  6 active torsions:
REMARK  status: ('A' for Active; 'I' for Inactive)
REMARK    1  A    between atoms: C_2  and  C_3 
REMARK    2  A    between atoms: C_4  and  N_5 
REMARK       I    between atoms: N_5  and  C_6 
REMARK    3  A    between atoms: C_6  and  C_7 
REMARK    4  A    between atoms: C_7  and  N_8 
REMARK       I    between atoms: N_8  and  C_9 
REMARK    5  A    between atoms: C_9  and  C_10 
REMARK    6  A    between atoms: C_11  and  C_12 
ROOT
HETATM    1  N   UNL     1      42.386 -16.152   3.766  1.00  0.00    -0.348 N 
HETATM    2  C   UNL     1      42.298 -17.239   4.616  1.00  0.00     0.255 C 
HETATM    3  O   UNL     1      41.246 -17.843   4.788  1.00  0.00    -0.268 OA
HETATM    4  H   UNL     1      43.248 -15.626   3.766  1.00  0.00     0.163 HD
ENDROOT
BRANCH   1   5
HETATM    5  C   UNL     1      41.170 -15.445   3.385  1.00  0.00     0.226 C 
BRANCH   5   6
HETATM    6  C   UNL     1      40.576 -15.775   2.005  1.00  0.00     0.239 C 
HETATM    7  N   UNL     1      40.864 -14.832   1.035  1.00  0.00    -0.325 N 
HETATM    8  H   UNL     1      41.431 -14.061   1.356  1.00  0.00     0.169 HD
HETATM    9  O   UNL     1      39.828 -16.744   1.885  1.00  0.00    -0.271 OA
BRANCH   7  10
HETATM   10  C   UNL     1      40.497 -14.844  -0.330  1.00  0.00     0.041 A 
HETATM   11  C   UNL     1      39.397 -14.067  -0.757  1.00  0.00    -0.032 A 
HETATM   12  C   UNL     1      39.047 -14.065  -2.124  1.00  0.00     0.009 A 
HETATM   13  C   UNL     1      39.770 -14.809  -3.054  1.00  0.00     0.001 A 
HETATM   14  C   UNL     1      40.850 -15.571  -2.630  1.00  0.00     0.002 A 
HETATM   15  C   UNL     1      41.208 -15.588  -1.280  1.00  0.00     0.030 A 
BRANCH  11  16
HETATM   16  C   UNL     1      38.536 -13.249   0.181  1.00  0.00     0.036 C 
HETATM   17  C   UNL     1      37.383 -14.053   0.766  1.00  0.00     0.010 C 
ENDBRANCH  11  16
ENDBRANCH   7  10
ENDBRANCH   5   6
ENDBRANCH   1   5
BRANCH   2  18
HETATM   18  C   UNL     1      43.544 -17.610   5.264  1.00  0.00     0.080 A 
HETATM   19  C   UNL     1      44.372 -18.760   5.036  1.00  0.00     0.104 A 
HETATM   20  N   UNL     1      45.401 -18.779   5.904  1.00  0.00    -0.174 NA
HETATM   21  N   UNL     1      45.240 -17.690   6.658  1.00  0.00    -0.288 N 
HETATM   22  H   UNL     1      45.907 -17.523   7.405  1.00  0.00     0.188 HD
HETATM   23  C   UNL     1      44.159 -16.941   6.309  1.00  0.00     0.128 A 
BRANCH  19  24
HETATM   24  C   UNL     1      44.252 -19.813   4.023  1.00  0.00    -0.005 A 
HETATM   25  C   UNL     1      43.751 -19.540   2.744  1.00  0.00     0.014 A 
HETATM   26  C   UNL     1      43.671 -20.547   1.778  1.00  0.00     0.001 A 
HETATM   27  C   UNL     1      44.097 -21.839   2.079  1.00  0.00     0.000 A 
HETATM   28  C   UNL     1      44.604 -22.124   3.345  1.00  0.00     0.001 A 
HETATM   29  C   UNL     1      44.685 -21.117   4.310  1.00  0.00     0.014 A 
ENDBRANCH  19  24
ENDBRANCH   2  18
TORSDOF 6
ENDMDL
MODEL 4
REMARK VINA RESULT:      -8.5      4.109      5.498
REMARK  6 active torsions:
REMARK  status: ('A' for Active; 'I' for Inactive)
REMARK    1  A    between atoms: C_2  and  C_3 
REMARK    2  A    between atoms: C_4  and  N_5 
REMARK       I    between atoms: N_5  and  C_6 
REMARK    3  A    between atoms: C_6  and  C_7 
REMARK    4  A    between atoms: C_7  and  N_8 
REMARK       I    between atoms: N_8  and  C_9 
REMARK    5  A    between atoms: C_9  and  C_10 
REMARK    6  A    between atoms: C_11  and  C_12 
ROOT
HETATM    1  N   UNL     1      42.078 -15.485   2.263  1.00  0.00    -0.348 N 
HETATM    2  C   UNL     1      40.728 -15.389   2.548  1.00  0.00     0.255 C 
HETATM    3  O   UNL     1      39.914 -16.186   2.098  1.00  0.00    -0.268 OA
HETATM    4  H   UNL     1      42.675 -14.728   2.563  1.00  0.00     0.163 HD
ENDROOT
BRANCH   1   5
HETATM    5  C   UNL     1      42.511 -16.262   1.109  1.00  0.00     0.226 C 
BRANCH   5   6
HETATM    6  C   UNL     1      43.483 -17.424   1.376  1.00  0.00     0.239 C 
HETATM    7  N   UNL     1      42.922 -18.465   2.093  1.00  0.00    -0.325 N 
HETATM    8  H   UNL     1      41.951 -18.330   2.338  1.00  0.00     0.169 HD
HETATM    9  O   UNL     1      44.664 -17.310   1.053  1.00  0.00    -0.271 OA
BRANCH   7  10
HETATM   10  C   UNL     1      43.526 -19.682   2.481  1.00  0.00     0.041 A 
HETATM   11  C   UNL     1      44.129 -19.780   3.756  1.00  0.00    -0.032 A 
HETATM   12  C   UNL     1      44.712 -21.004   4.147  1.00  0.00     0.009 A 
HETATM   13  C   UNL     1      44.696 -22.112   3.303  1.00  0.00     0.001 A 
HETATM   14  C   UNL     1      44.103 -22.012   2.053  1.00  0.00     0.002 A 
HETATM   15  C   UNL     1      43.525 -20.807   1.646  1.00  0.00     0.030 A 
BRANCH  11  16
HETATM   16  C   UNL     1      44.219 -18.625   4.729  1.00  0.00     0.036 C 
HETATM   17  C   UNL     1      45.328 -18.810   5.755  1.00  0.00     0.010 C 
ENDBRANCH  11  16
ENDBRANCH   7  10
ENDBRANCH   5   6
ENDBRANCH   1   5
BRANCH   2  18
HETATM   18  C   UNL     1      40.366 -14.291   3.426  1.00  0.00     0.080 A 
HETATM   19  C   UNL     1      40.748 -14.060   4.789  1.00  0.00     0.104 A 
HETATM   20  N   UNL     1      40.131 -12.968   5.275  1.00  0.00    -0.174 NA
HETATM   21  N   UNL     1      39.382 -12.516   4.268  1.00  0.00    -0.288 N 
HETATM   22  H   UNL     1      38.805 -11.696   4.431  1.00  0.00     0.188 HD
HETATM   23  C   UNL     1      39.498 -13.253   3.130  1.00  0.00     0.128 A 
BRANCH  19  24
HETATM   24  C   UNL     1      41.688 -14.804   5.635  1.00  0.00    -0.005 A 
HETATM   25  C   UNL     1      42.957 -14.294   5.936  1.00  0.00     0.014 A 
HETATM   26  C   UNL     1      43.831 -14.999   6.769  1.00  0.00     0.001 A 
HETATM   27  C   UNL     1      43.443 -16.220   7.315  1.00  0.00     0.000 A 
HETATM   28  C   UNL     1      42.180 -16.737   7.030  1.00  0.00     0.001 A 
HETATM   29  C   UNL     1      41.307 -16.031   6.199  1.00  0.00     0.014 A 
ENDBRANCH  19  24
ENDBRANCH   2  18
TORSDOF 6
ENDMDL
MODEL 5
REMARK VINA RESULT:      -8.4      4.432      8.175
REMARK  6 active torsions:
REMARK  status: ('A' for Active; 'I' for Inactive)
REMARK    1  A    between atoms: C_2  and  C_3 
REMARK    2  A    between atoms: C_4  and  N_5 
REMARK       I    between atoms: N_5  and  C_6 
REMARK    3  A    between atoms: C_6  and  C_7 
REMARK    4  A    between atoms: C_7  and  N_8 
REMARK       I    between atoms: N_8  and  C_9 
REMARK    5  A    between atoms: C_9  and  C_10 
REMARK    6  A    between atoms: C_11  and  C_12 
ROOT
HETATM    1  N   UNL     1      41.910 -15.863   5.129  1.00  0.00    -0.348 N 
HETATM    2  C   UNL     1      42.122 -17.218   5.311  1.00  0.00     0.255 C 
HETATM    3  O   UNL     1      41.233 -18.041   5.131  1.00  0.00    -0.268 OA
HETATM    4  H   UNL     1      42.646 -15.232   5.414  1.00  0.00     0.163 HD
ENDROOT
BRANCH   1   5
HETATM    5  C   UNL     1      40.548 -15.347   5.130  1.00  0.00     0.226 C 
BRANCH   5   6
HETATM    6  C   UNL     1      40.130 -14.482   3.929  1.00  0.00     0.239 C 
HETATM    7  N   UNL     1      39.800 -15.216   2.803  1.00  0.00    -0.325 N 
HETATM    8  H   UNL     1      39.868 -16.216   2.920  1.00  0.00     0.169 HD
HETATM    9  O   UNL     1      40.221 -13.258   4.004  1.00  0.00    -0.271 OA
BRANCH   7  10
HETATM   10  C   UNL     1      39.355 -14.738   1.550  1.00  0.00     0.041 A 
HETATM   11  C   UNL     1      40.248 -14.728   0.455  1.00  0.00    -0.032 A 
HETATM   12  C   UNL     1      39.792 -14.270  -0.799  1.00  0.00     0.009 A 
HETATM   13  C   UNL     1      38.481 -13.836  -0.975  1.00  0.00     0.001 A 
HETATM   14  C   UNL     1      37.606 -13.848   0.102  1.00  0.00     0.002 A 
HETATM   15  C   UNL     1      38.040 -14.294   1.353  1.00  0.00     0.030 A 
BRANCH  11  16
HETATM   16  C   UNL     1      41.697 -15.153   0.555  1.00  0.00     0.036 C 
HETATM   17  C   UNL     1      41.886 -16.645   0.321  1.00  0.00     0.010 C 
ENDBRANCH  11  16
ENDBRANCH   7  10
ENDBRANCH   5   6
ENDBRANCH   1   5
BRANCH   2  18
HETATM   18  C   UNL     1      43.471 -17.577   5.711  1.00  0.00     0.080 A 
HETATM   19  C   UNL     1      44.333 -18.589   5.170  1.00  0.00     0.104 A 
HETATM   20  N   UNL     1      45.477 -18.661   5.877  1.00  0.00    -0.174 NA
HETATM   21  N   UNL     1      45.353 -17.737   6.831  1.00  0.00    -0.288 N 
HETATM   22  H   UNL     1      46.110 -17.640   7.502  1.00  0.00     0.188 HD
HETATM   23  C   UNL     1      44.185 -17.042   6.770  1.00  0.00     0.128 A 
BRANCH  19  24
HETATM   24  C   UNL     1      44.138 -19.460   4.007  1.00  0.00    -0.005 A 
HETATM   25  C   UNL     1      43.538 -18.985   2.834  1.00  0.00     0.014 A 
HETATM   26  C   UNL     1      43.386 -19.817   1.721  1.00  0.00     0.001 A 
HETATM   27  C   UNL     1      43.839 -21.134   1.768  1.00  0.00     0.000 A 
HETATM   28  C   UNL     1      44.444 -21.619   2.925  1.00  0.00     0.001 A 
HETATM   29  C   UNL     1      44.597 -20.786   4.036  1.00  0.00     0.014 A 
ENDBRANCH  19  24
ENDBRANCH   2  18
TORSDOF 6
ENDMDL
MODEL 6
REMARK VINA RESULT:      -8.4      3.814      7.674
REMARK  6 active torsions:
REMARK  status: ('A' for Active; 'I' for Inactive)
REMARK    1  A    between atoms: C_2  and  C_3 
REMARK    2  A    between atoms: C_4  and  N_5 
REMARK       I    between atoms: N_5  and  C_6 
REMARK    3  A    between atoms: C_6  and  C_7 
REMARK    4  A    between atoms: C_7  and  N_8 
REMARK       I    between atoms: N_8  and  C_9 
REMARK    5  A    between atoms: C_9  and  C_10 
REMARK    6  A    between atoms: C_11  and  C_12 
ROOT
HETATM    1  N   UNL     1      43.595 -15.191   5.463  1.00  0.00    -0.348 N 
HETATM    2  C   UNL     1      42.652 -15.921   6.163  1.00  0.00     0.255 C 
HETATM    3  O   UNL     1      41.466 -15.612   6.165  1.00  0.00    -0.268 OA
HETATM    4  H   UNL     1      44.567 -15.426   5.603  1.00  0.00     0.163 HD
ENDROOT
BRANCH   1   5
HETATM    5  C   UNL     1      43.286 -13.825   5.061  1.00  0.00     0.226 C 
BRANCH   5   6
HETATM    6  C   UNL     1      42.457 -13.647   3.778  1.00  0.00     0.239 C 
HETATM    7  N   UNL     1      41.090 -13.687   3.990  1.00  0.00    -0.325 N 
HETATM    8  H   UNL     1      40.819 -13.817   4.954  1.00  0.00     0.169 HD
HETATM    9  O   UNL     1      43.027 -13.599   2.690  1.00  0.00    -0.271 OA
BRANCH   7  10
HETATM   10  C   UNL     1      40.055 -13.532   3.040  1.00  0.00     0.041 A 
HETATM   11  C   UNL     1      39.669 -14.639   2.250  1.00  0.00    -0.032 A 
HETATM   12  C   UNL     1      38.620 -14.485   1.319  1.00  0.00     0.009 A 
HETATM   13  C   UNL     1      37.961 -13.267   1.171  1.00  0.00     0.001 A 
HETATM   14  C   UNL     1      38.342 -12.183   1.948  1.00  0.00     0.002 A 
HETATM   15  C   UNL     1      39.381 -12.315   2.873  1.00  0.00     0.030 A 
BRANCH  11  16
HETATM   16  C   UNL     1      40.344 -15.991   2.320  1.00  0.00     0.036 C 
HETATM   17  C   UNL     1      41.039 -16.365   1.019  1.00  0.00     0.010 C 
ENDBRANCH  11  16
ENDBRANCH   7  10
ENDBRANCH   5   6
ENDBRANCH   1   5
BRANCH   2  18
HETATM   18  C   UNL     1      43.174 -17.075   6.872  1.00  0.00     0.080 A 
HETATM   19  C   UNL     1      43.543 -18.362   6.354  1.00  0.00     0.104 A 
HETATM   20  N   UNL     1      43.906 -19.187   7.353  1.00  0.00    -0.174 NA
HETATM   21  N   UNL     1      43.775 -18.463   8.465  1.00  0.00    -0.288 N 
HETATM   22  H   UNL     1      43.979 -18.911   9.354  1.00  0.00     0.188 HD
HETATM   23  C   UNL     1      43.362 -17.187   8.239  1.00  0.00     0.128 A 
BRANCH  19  24
HETATM   24  C   UNL     1      43.596 -18.831   4.965  1.00  0.00    -0.005 A 
HETATM   25  C   UNL     1      42.689 -18.366   4.004  1.00  0.00     0.014 A 
HETATM   26  C   UNL     1      42.769 -18.797   2.677  1.00  0.00     0.001 A 
HETATM   27  C   UNL     1      43.764 -19.694   2.294  1.00  0.00     0.000 A 
HETATM   28  C   UNL     1      44.678 -20.160   3.237  1.00  0.00     0.001 A 
HETATM   29  C   UNL     1      44.597 -19.727   4.563  1.00  0.00     0.014 A 
ENDBRANCH  19  24
ENDBRANCH   2  18
TORSDOF 6
ENDMDL
MODEL 7
REMARK VINA RESULT:      -8.3      3.532      7.195
REMARK  6 active torsions:
REMARK  status: ('A' for Active; 'I' for Inactive)
REMARK    1  A    between atoms: C_2  and  C_3 
REMARK    2  A    between atoms: C_4  and  N_5 
REMARK       I    between atoms: N_5  and  C_6 
REMARK    3  A    between atoms: C_6  and  C_7 
REMARK    4  A    between atoms: C_7  and  N_8 
REMARK       I    between atoms: N_8  and  C_9 
REMARK    5  A    between atoms: C_9  and  C_10 
REMARK    6  A    between atoms: C_11  and  C_12 
ROOT
HETATM    1  N   UNL     1      42.532 -14.699   6.294  1.00  0.00    -0.348 N 
HETATM    2  C   UNL     1      43.734 -15.330   6.560  1.00  0.00     0.255 C 
HETATM    3  O   UNL     1      44.796 -14.720   6.572  1.00  0.00    -0.268 OA
HETATM    4  H   UNL     1      41.714 -15.280   6.178  1.00  0.00     0.163 HD
ENDROOT
BRANCH   1   5
HETATM    5  C   UNL     1      42.538 -13.408   5.620  1.00  0.00     0.226 C 
BRANCH   5   6
HETATM    6  C   UNL     1      42.760 -13.417   4.098  1.00  0.00     0.239 C 
HETATM    7  N   UNL     1      41.607 -13.650   3.370  1.00  0.00    -0.325 N 
HETATM    8  H   UNL     1      40.775 -13.774   3.930  1.00  0.00     0.169 HD
HETATM    9  O   UNL     1      43.903 -13.336   3.653  1.00  0.00    -0.271 OA
BRANCH   7  10
HETATM   10  C   UNL     1      41.457 -13.697   1.965  1.00  0.00     0.041 A 
HETATM   11  C   UNL     1      40.685 -14.729   1.386  1.00  0.00    -0.032 A 
HETATM   12  C   UNL     1      40.520 -14.759  -0.015  1.00  0.00     0.009 A 
HETATM   13  C   UNL     1      41.099 -13.789  -0.830  1.00  0.00     0.001 A 
HETATM   14  C   UNL     1      41.857 -12.777  -0.257  1.00  0.00     0.002 A 
HETATM   15  C   UNL     1      42.034 -12.734   1.128  1.00  0.00     0.030 A 
BRANCH  11  16
HETATM   16  C   UNL     1      40.041 -15.841   2.185  1.00  0.00     0.036 C 
HETATM   17  C   UNL     1      40.439 -17.224   1.689  1.00  0.00     0.010 C 
ENDBRANCH  11  16
ENDBRANCH   7  10
ENDBRANCH   5   6
ENDBRANCH   1   5
BRANCH   2  18
HETATM   18  C   UNL     1      43.630 -16.752   6.837  1.00  0.00     0.080 A 
HETATM   19  C   UNL     1      43.574 -17.849   5.914  1.00  0.00     0.104 A 
HETATM   20  N   UNL     1      43.394 -19.010   6.571  1.00  0.00    -0.174 NA
HETATM   21  N   UNL     1      43.335 -18.673   7.860  1.00  0.00    -0.288 N 
HETATM   22  H   UNL     1      43.177 -19.411   8.541  1.00  0.00     0.188 HD
HETATM   23  C   UNL     1      43.491 -17.340   8.083  1.00  0.00     0.128 A 
BRANCH  19  24
HETATM   24  C   UNL     1      43.713 -17.851   4.454  1.00  0.00    -0.005 A 
HETATM   25  C   UNL     1      43.630 -16.666   3.713  1.00  0.00     0.014 A 
HETATM   26  C   UNL     1      43.795 -16.678   2.325  1.00  0.00     0.001 A 
HETATM   27  C   UNL     1      44.052 -17.876   1.663  1.00  0.00     0.000 A 
HETATM   28  C   UNL     1      44.144 -19.063   2.388  1.00  0.00     0.001 A 
HETATM   29  C   UNL     1      43.980 -19.050   3.775  1.00  0.00     0.014 A 
ENDBRANCH  19  24
ENDBRANCH   2  18
TORSDOF 6
ENDMDL
MODEL 8
REMARK VINA RESULT:      -8.3      3.583      5.908
REMARK  6 active torsions:
REMARK  status: ('A' for Active; 'I' for Inactive)
REMARK    1  A    between atoms: C_2  and  C_3 
REMARK    2  A    between atoms: C_4  and  N_5 
REMARK       I    between atoms: N_5  and  C_6 
REMARK    3  A    between atoms: C_6  and  C_7 
REMARK    4  A    between atoms: C_7  and  N_8 
REMARK       I    between atoms: N_8  and  C_9 
REMARK    5  A    between atoms: C_9  and  C_10 
REMARK    6  A    between atoms: C_11  and  C_12 
ROOT
HETATM    1  N   UNL     1      42.413 -15.709   6.431  1.00  0.00    -0.348 N 
HETATM    2  C   UNL     1      42.523 -14.659   5.537  1.00  0.00     0.255 C 
HETATM    3  O   UNL     1      43.595 -14.355   5.026  1.00  0.00    -0.268 OA
HETATM    4  H   UNL     1      41.530 -15.826   6.908  1.00  0.00     0.163 HD
ENDROOT
BRANCH   1   5
HETATM    5  C   UNL     1      43.607 -16.206   7.100  1.00  0.00     0.226 C 
BRANCH   5   6
HETATM    6  C   UNL     1      44.356 -17.364   6.420  1.00  0.00     0.239 C 
HETATM    7  N   UNL     1      43.549 -18.157   5.624  1.00  0.00    -0.325 N 
HETATM    8  H   UNL     1      42.582 -17.867   5.587  1.00  0.00     0.169 HD
HETATM    9  O   UNL     1      45.535 -17.571   6.701  1.00  0.00    -0.271 OA
BRANCH   7  10
HETATM   10  C   UNL     1      43.920 -19.276   4.846  1.00  0.00     0.041 A 
HETATM   11  C   UNL     1      43.847 -19.195   3.437  1.00  0.00    -0.032 A 
HETATM   12  C   UNL     1      44.240 -20.308   2.663  1.00  0.00     0.009 A 
HETATM   13  C   UNL     1      44.702 -21.476   3.265  1.00  0.00     0.001 A 
HETATM   14  C   UNL     1      44.773 -21.552   4.649  1.00  0.00     0.002 A 
HETATM   15  C   UNL     1      44.384 -20.462   5.431  1.00  0.00     0.030 A 
BRANCH  11  16
HETATM   16  C   UNL     1      43.333 -17.980   2.695  1.00  0.00     0.036 C 
HETATM   17  C   UNL     1      44.260 -17.548   1.568  1.00  0.00     0.010 C 
ENDBRANCH  11  16
ENDBRANCH   7  10
ENDBRANCH   5   6
ENDBRANCH   1   5
BRANCH   2  18
HETATM   18  C   UNL     1      41.280 -13.968   5.248  1.00  0.00     0.080 A 
HETATM   19  C   UNL     1      40.544 -13.910   4.018  1.00  0.00     0.104 A 
HETATM   20  N   UNL     1      39.482 -13.093   4.141  1.00  0.00    -0.174 NA
HETATM   21  N   UNL     1      39.533 -12.644   5.396  1.00  0.00    -0.288 N 
HETATM   22  H   UNL     1      38.823 -11.982   5.696  1.00  0.00     0.188 HD
HETATM   23  C   UNL     1      40.573 -13.149   6.113  1.00  0.00     0.128 A 
BRANCH  19  24
HETATM   24  C   UNL     1      40.783 -14.611   2.752  1.00  0.00    -0.005 A 
HETATM   25  C   UNL     1      41.618 -14.071   1.766  1.00  0.00     0.014 A 
HETATM   26  C   UNL     1      41.861 -14.764   0.577  1.00  0.00     0.001 A 
HETATM   27  C   UNL     1      41.276 -16.010   0.363  1.00  0.00     0.000 A 
HETATM   28  C   UNL     1      40.448 -16.564   1.338  1.00  0.00     0.001 A 
HETATM   29  C   UNL     1      40.206 -15.871   2.526  1.00  0.00     0.014 A 
ENDBRANCH  19  24
ENDBRANCH   2  18
TORSDOF 6
ENDMDL
MODEL 9
REMARK VINA RESULT:      -8.2      4.474      8.360
REMARK  6 active torsions:
REMARK  status: ('A' for Active; 'I' for Inactive)
REMARK    1  A    between atoms: C_2  and  C_3 
REMARK    2  A    between atoms: C_4  and  N_5 
REMARK       I    between atoms: N_5  and  C_6 
REMARK    3  A    between atoms: C_6  and  C_7 
REMARK    4  A    between atoms: C_7  and  N_8 
REMARK       I    between atoms: N_8  and  C_9 
REMARK    5  A    between atoms: C_9  and  C_10 
REMARK    6  A    between atoms: C_11  and  C_12 
ROOT
HETATM    1  N   UNL     1      42.327 -15.727   3.788  1.00  0.00    -0.348 N 
HETATM    2  C   UNL     1      42.216 -16.905   4.504  1.00  0.00     0.255 C 
HETATM    3  O   UNL     1      41.170 -17.540   4.544  1.00  0.00    -0.268 OA
HETATM    4  H   UNL     1      43.176 -15.191   3.898  1.00  0.00     0.163 HD
ENDROOT
BRANCH   1   5
HETATM    5  C   UNL     1      41.120 -15.001   3.414  1.00  0.00     0.226 C 
BRANCH   5   6
HETATM    6  C   UNL     1      40.658 -15.124   1.953  1.00  0.00     0.239 C 
HETATM    7  N   UNL     1      41.580 -14.652   1.036  1.00  0.00    -0.325 N 
HETATM    8  H   UNL     1      42.434 -14.300   1.444  1.00  0.00     0.169 HD
HETATM    9  O   UNL     1      39.515 -15.507   1.710  1.00  0.00    -0.271 OA
BRANCH   7  10
HETATM   10  C   UNL     1      41.482 -14.641  -0.374  1.00  0.00     0.041 A 
HETATM   11  C   UNL     1      41.806 -13.462  -1.081  1.00  0.00    -0.032 A 
HETATM   12  C   UNL     1      41.727 -13.463  -2.490  1.00  0.00     0.009 A 
HETATM   13  C   UNL     1      41.343 -14.604  -3.189  1.00  0.00     0.001 A 
HETATM   14  C   UNL     1      41.025 -15.761  -2.491  1.00  0.00     0.002 A 
HETATM   15  C   UNL     1      41.093 -15.777  -1.096  1.00  0.00     0.030 A 
BRANCH  11  16
HETATM   16  C   UNL     1      42.206 -12.167  -0.408  1.00  0.00     0.036 C 
HETATM   17  C   UNL     1      43.104 -11.306  -1.285  1.00  0.00     0.010 C 
ENDBRANCH  11  16
ENDBRANCH   7  10
ENDBRANCH   5   6
ENDBRANCH   1   5
BRANCH   2  18
HETATM   18  C   UNL     1      43.430 -17.326   5.181  1.00  0.00     0.080 A 
HETATM   19  C   UNL     1      44.236 -18.490   4.948  1.00  0.00     0.104 A 
HETATM   20  N   UNL     1      45.235 -18.560   5.847  1.00  0.00    -0.174 NA
HETATM   21  N   UNL     1      45.077 -17.488   6.625  1.00  0.00    -0.288 N 
HETATM   22  H   UNL     1      45.724 -17.359   7.398  1.00  0.00     0.188 HD
HETATM   23  C   UNL     1      44.028 -16.701   6.263  1.00  0.00     0.128 A 
BRANCH  19  24
HETATM   24  C   UNL     1      44.122 -19.512   3.902  1.00  0.00    -0.005 A 
HETATM   25  C   UNL     1      43.587 -19.210   2.643  1.00  0.00     0.014 A 
HETATM   26  C   UNL     1      43.513 -20.186   1.646  1.00  0.00     0.001 A 
HETATM   27  C   UNL     1      43.979 -21.475   1.894  1.00  0.00     0.000 A 
HETATM   28  C   UNL     1      44.521 -21.788   3.139  1.00  0.00     0.001 A 
HETATM   29  C   UNL     1      44.596 -20.812   4.135  1.00  0.00     0.014 A 
ENDBRANCH  19  24
ENDBRANCH   2  18
TORSDOF 6
ENDMDL
MODEL 10
REMARK VINA RESULT:      -8.2      4.250      7.645
REMARK  6 active torsions:
REMARK  status: ('A' for Active; 'I' for Inactive)
REMARK    1  A    between atoms: C_2  and  C_3 
REMARK    2  A    between atoms: C_4  and  N_5 
REMARK       I    between atoms: N_5  and  C_6 
REMARK    3  A    between atoms: C_6  and  C_7 
REMARK    4  A    between atoms: C_7  and  N_8 
REMARK       I    between atoms: N_8  and  C_9 
REMARK    5  A    between atoms: C_9  and  C_10 
REMARK    6  A    between atoms: C_11  and  C_12 
ROOT
HETATM    1  N   UNL     1      42.783 -15.313   5.199  1.00  0.00    -0.348 N 
HETATM    2  C   UNL     1      42.175 -16.497   5.574  1.00  0.00     0.255 C 
HETATM    3  O   UNL     1      41.091 -16.840   5.117  1.00  0.00    -0.268 OA
HETATM    4  H   UNL     1      43.612 -15.032   5.704  1.00  0.00     0.163 HD
ENDROOT
BRANCH   1   5
HETATM    5  C   UNL     1      41.981 -14.260   4.590  1.00  0.00     0.226 C 
BRANCH   5   6
HETATM    6  C   UNL     1      42.168 -14.027   3.081  1.00  0.00     0.239 C 
HETATM    7  N   UNL     1      41.122 -14.503   2.311  1.00  0.00    -0.325 N 
HETATM    8  H   UNL     1      40.374 -14.930   2.838  1.00  0.00     0.169 HD
HETATM    9  O   UNL     1      43.229 -13.562   2.668  1.00  0.00    -0.271 OA
BRANCH   7  10
HETATM   10  C   UNL     1      40.968 -14.429   0.908  1.00  0.00     0.041 A 
HETATM   11  C   UNL     1      41.355 -15.529   0.110  1.00  0.00    -0.032 A 
HETATM   12  C   UNL     1      41.178 -15.458  -1.288  1.00  0.00     0.009 A 
HETATM   13  C   UNL     1      40.625 -14.330  -1.889  1.00  0.00     0.001 A 
HETATM   14  C   UNL     1      40.246 -13.251  -1.102  1.00  0.00     0.002 A 
HETATM   15  C   UNL     1      40.417 -13.301   0.284  1.00  0.00     0.030 A 
BRANCH  11  16
HETATM   16  C   UNL     1      41.988 -16.785   0.668  1.00  0.00     0.036 C 
HETATM   17  C   UNL     1      40.968 -17.728   1.288  1.00  0.00     0.010 C 
ENDBRANCH  11  16
ENDBRANCH   7  10
ENDBRANCH   5   6
ENDBRANCH   1   5
BRANCH   2  18
HETATM   18  C   UNL     1      42.926 -17.296   6.525  1.00  0.00     0.080 A 
HETATM   19  C   UNL     1      43.672 -18.501   6.303  1.00  0.00     0.104 A 
HETATM   20  N   UNL     1      44.155 -18.979   7.465  1.00  0.00    -0.174 NA
HETATM   21  N   UNL     1      43.736 -18.119   8.394  1.00  0.00    -0.288 N 
HETATM   22  H   UNL     1      43.975 -18.308   9.363  1.00  0.00     0.188 HD
HETATM   23  C   UNL     1      43.015 -17.080   7.891  1.00  0.00     0.128 A 
BRANCH  19  24
HETATM   24  C   UNL     1      43.971 -19.198   5.047  1.00  0.00    -0.005 A 
HETATM   25  C   UNL     1      43.793 -18.571   3.807  1.00  0.00     0.014 A 
HETATM   26  C   UNL     1      44.111 -19.235   2.619  1.00  0.00     0.001 A 
HETATM   27  C   UNL     1      44.617 -20.533   2.658  1.00  0.00     0.000 A 
HETATM   28  C   UNL     1      44.805 -21.167   3.885  1.00  0.00     0.001 A 
HETATM   29  C   UNL     1      44.488 -20.502   5.072  1.00  0.00     0.014 A 
ENDBRANCH  19  24
ENDBRANCH   2  18
TORSDOF 6
ENDMDL
