MODEL 1
REMARK VINA RESULT:      -9.0      0.000      0.000
REMARK  4 active torsions:
REMARK  status: ('A' for Active; 'I' for Inactive)
REMARK    1  A    between atoms: C_9  and  C_10 
REMARK    2  A    between atoms: C_20  and  C_21 
REMARK       I    between atoms: C_21  and  N_22 
REMARK    3  A    between atoms: N_22  and  C_23 
REMARK    4  A    between atoms: C_26  and  O_27 
ROOT
HETATM    1  C   UNL     1      39.968 -12.414   5.125  1.00  0.00     0.070 C 
HETATM    2  C   UNL     1      41.251 -13.170   5.375  1.00  0.00     0.037 C 
HETATM    3  N   UNL     1      41.948 -12.796   6.522  1.00  0.00    -0.192 N 
HETATM    4  C   UNL     1      43.219 -13.176   6.766  1.00  0.00     0.725 A 
HETATM    5  N   UNL     1      43.814 -14.105   5.953  1.00  0.00    -0.084 N 
HETATM    6  N   UNL     1      45.106 -14.292   6.291  1.00  0.00    -0.149 NA
HETATM    7  C   UNL     1      45.199 -13.498   7.363  1.00  0.00     0.275 A 
HETATM    8  N   UNL     1      44.066 -12.796   7.688  1.00  0.00    -0.054 NA
HETATM    9  C   UNL     1      43.161 -14.697   4.778  1.00  0.00     0.203 C 
HETATM   10  C   UNL     1      41.785 -14.089   4.534  1.00  0.00     0.062 C 
HETATM   11  H   UNL     1      41.571 -12.030   7.074  1.00  0.00     0.184 HD
ENDROOT
BRANCH  10  12
HETATM   12  C   UNL     1      41.206 -14.419   3.204  1.00  0.00     0.256 C 
HETATM   13  N   UNL     1      41.873 -13.850   2.142  1.00  0.00    -0.323 N 
HETATM   14  H   UNL     1      42.627 -13.212   2.358  1.00  0.00     0.169 HD
HETATM   15  O   UNL     1      40.203 -15.121   3.166  1.00  0.00    -0.267 OA
BRANCH  13  16
HETATM   16  C   UNL     1      41.636 -14.090   0.771  1.00  0.00     0.035 A 
HETATM   17  C   UNL     1      41.293 -15.336   0.245  1.00  0.00     0.032 A 
HETATM   18  C   UNL     1      41.101 -15.498  -1.132  1.00  0.00     0.039 A 
HETATM   19  C   UNL     1      41.236 -14.419  -2.002  1.00  0.00     0.068 A 
HETATM   20  C   UNL     1      41.596 -13.175  -1.490  1.00  0.00     0.039 A 
HETATM   21  C   UNL     1      41.791 -13.012  -0.111  1.00  0.00     0.032 A 
BRANCH  19  22
HETATM   22  O   UNL     1      41.025 -14.706  -3.322  1.00  0.00    -0.356 OA
HETATM   23  C   UNL     1      39.879 -15.500  -3.607  1.00  0.00     0.210 C 
ENDBRANCH  19  22
ENDBRANCH  13  16
ENDBRANCH  10  12
BRANCH   9  24
HETATM   24  C   UNL     1      43.170 -16.231   4.827  1.00  0.00    -0.017 A 
HETATM   25  C   UNL     1      43.463 -17.092   3.718  1.00  0.00    -0.017 A 
HETATM   26  C   UNL     1      43.362 -18.497   3.909  1.00  0.00    -0.025 A 
HETATM   27  C   UNL     1      43.843 -16.660   2.423  1.00  0.00     0.013 A 
HETATM   28  C   UNL     1      43.594 -19.384   2.843  1.00  0.00     0.012 A 
HETATM   29  C   UNL     1      43.025 -19.021   5.163  1.00  0.00     0.012 A 
HETATM   30  C   UNL     1      43.939 -18.916   1.579  1.00  0.00     0.001 A 
HETATM   31  C   UNL     1      44.070 -17.554   1.372  1.00  0.00     0.001 A 
HETATM   32  C   UNL     1      42.783 -18.185   6.245  1.00  0.00     0.002 A 
HETATM   33  C   UNL     1      42.853 -16.808   6.078  1.00  0.00     0.010 A 
ENDBRANCH   9  24
TORSDOF 4
ENDMDL
MODEL 2
REMARK VINA RESULT:      -8.9      2.881      6.959
REMARK  4 active torsions:
REMARK  status: ('A' for Active; 'I' for Inactive)
REMARK    1  A    between atoms: C_9  and  C_10 
REMARK    2  A    between atoms: C_20  and  C_21 
REMARK       I    between atoms: C_21  and  N_22 
REMARK    3  A    between atoms: N_22  and  C_23 
REMARK    4  A    between atoms: C_26  and  O_27 
ROOT
HETATM    1  C   UNL     1      40.893 -15.837  -2.293  1.00  0.00     0.070 C 
HETATM    2  C   UNL     1      41.266 -14.604  -1.505  1.00  0.00     0.037 C 
HETATM    3  N   UNL     1      41.385 -13.434  -2.251  1.00  0.00    -0.192 N 
HETATM    4  C   UNL     1      41.949 -12.308  -1.767  1.00  0.00     0.725 A 
HETATM    5  N   UNL     1      42.273 -12.233  -0.438  1.00  0.00    -0.084 N 
HETATM    6  N   UNL     1      42.908 -11.077  -0.156  1.00  0.00    -0.149 NA
HETATM    7  C   UNL     1      42.864 -10.473  -1.349  1.00  0.00     0.275 A 
HETATM    8  N   UNL     1      42.286 -11.193  -2.363  1.00  0.00    -0.054 NA
HETATM    9  C   UNL     1      42.084 -13.337   0.511  1.00  0.00     0.203 C 
HETATM   10  C   UNL     1      41.566 -14.592  -0.182  1.00  0.00     0.062 C 
HETATM   11  H   UNL     1      41.255 -13.501  -3.257  1.00  0.00     0.184 HD
ENDROOT
BRANCH  10  12
HETATM   12  C   UNL     1      41.642 -15.820   0.653  1.00  0.00     0.256 C 
HETATM   13  N   UNL     1      42.924 -16.259   0.896  1.00  0.00    -0.323 N 
HETATM   14  H   UNL     1      43.677 -15.768   0.431  1.00  0.00     0.169 HD
HETATM   15  O   UNL     1      40.593 -16.337   1.020  1.00  0.00    -0.267 OA
BRANCH  13  16
HETATM   16  C   UNL     1      43.309 -17.309   1.758  1.00  0.00     0.035 A 
HETATM   17  C   UNL     1      43.546 -18.617   1.334  1.00  0.00     0.032 A 
HETATM   18  C   UNL     1      43.898 -19.610   2.256  1.00  0.00     0.039 A 
HETATM   19  C   UNL     1      44.031 -19.311   3.609  1.00  0.00     0.068 A 
HETATM   20  C   UNL     1      43.778 -18.013   4.046  1.00  0.00     0.039 A 
HETATM   21  C   UNL     1      43.423 -17.017   3.123  1.00  0.00     0.032 A 
BRANCH  19  22
HETATM   22  O   UNL     1      44.376 -20.365   4.407  1.00  0.00    -0.356 OA
HETATM   23  C   UNL     1      44.304 -20.130   5.809  1.00  0.00     0.210 C 
ENDBRANCH  19  22
ENDBRANCH  13  16
ENDBRANCH  10  12
BRANCH   9  24
HETATM   24  C   UNL     1      41.260 -12.911   1.734  1.00  0.00    -0.017 A 
HETATM   25  C   UNL     1      41.690 -13.014   3.098  1.00  0.00    -0.017 A 
HETATM   26  C   UNL     1      40.779 -12.639   4.124  1.00  0.00    -0.025 A 
HETATM   27  C   UNL     1      42.961 -13.473   3.524  1.00  0.00     0.013 A 
HETATM   28  C   UNL     1      41.134 -12.763   5.478  1.00  0.00     0.012 A 
HETATM   29  C   UNL     1      39.511 -12.142   3.800  1.00  0.00     0.012 A 
HETATM   30  C   UNL     1      42.384 -13.244   5.853  1.00  0.00     0.001 A 
HETATM   31  C   UNL     1      43.300 -13.593   4.876  1.00  0.00     0.001 A 
HETATM   32  C   UNL     1      39.114 -12.004   2.477  1.00  0.00     0.002 A 
HETATM   33  C   UNL     1      39.977 -12.385   1.457  1.00  0.00     0.010 A 
ENDBRANCH   9  24
TORSDOF 4
ENDMDL
MODEL 3
REMARK VINA RESULT:      -8.4      2.527      6.403
REMARK  4 active torsions:
REMARK  status: ('A' for Active; 'I' for Inactive)
REMARK    1  A    between atoms: C_9  and  C_10 
REMARK    2  A    between atoms: C_20  and  C_21 
REMARK       I    between atoms: C_21  and  N_22 
REMARK    3  A    between atoms: N_22  and  C_23 
REMARK    4  A    between atoms: C_26  and  O_27 
ROOT
HETATM    1  C   UNL     1      41.997 -12.621   5.416  1.00  0.00     0.070 C 
HETATM    2  C   UNL     1      41.243 -12.501   4.114  1.00  0.00     0.037 C 
HETATM    3  N   UNL     1      40.157 -11.628   4.132  1.00  0.00    -0.192 N 
HETATM    4  C   UNL     1      39.230 -11.588   3.153  1.00  0.00     0.725 A 
HETATM    5  N   UNL     1      39.431 -12.305   2.003  1.00  0.00    -0.084 N 
HETATM    6  N   UNL     1      38.364 -12.218   1.182  1.00  0.00    -0.149 NA
HETATM    7  C   UNL     1      37.590 -11.373   1.871  1.00  0.00     0.275 A 
HETATM    8  N   UNL     1      38.082 -10.964   3.084  1.00  0.00    -0.054 NA
HETATM    9  C   UNL     1      40.596 -13.169   1.774  1.00  0.00     0.203 C 
HETATM   10  C   UNL     1      41.498 -13.234   3.001  1.00  0.00     0.062 C 
HETATM   11  H   UNL     1      39.931 -11.175   5.014  1.00  0.00     0.184 HD
ENDROOT
BRANCH  10  12
HETATM   12  C   UNL     1      42.517 -14.315   2.947  1.00  0.00     0.256 C 
HETATM   13  N   UNL     1      41.995 -15.587   3.028  1.00  0.00    -0.323 N 
HETATM   14  H   UNL     1      41.001 -15.668   3.195  1.00  0.00     0.169 HD
HETATM   15  O   UNL     1      43.697 -13.996   2.864  1.00  0.00    -0.267 OA
BRANCH  13  16
HETATM   16  C   UNL     1      42.699 -16.800   2.871  1.00  0.00     0.035 A 
HETATM   17  C   UNL     1      43.243 -17.235   1.661  1.00  0.00     0.032 A 
HETATM   18  C   UNL     1      43.905 -18.465   1.581  1.00  0.00     0.039 A 
HETATM   19  C   UNL     1      44.046 -19.273   2.706  1.00  0.00     0.068 A 
HETATM   20  C   UNL     1      43.492 -18.858   3.914  1.00  0.00     0.039 A 
HETATM   21  C   UNL     1      42.826 -17.626   3.996  1.00  0.00     0.032 A 
BRANCH  19  22
HETATM   22  O   UNL     1      44.710 -20.450   2.498  1.00  0.00    -0.356 OA
HETATM   23  C   UNL     1      43.970 -21.469   1.837  1.00  0.00     0.210 C 
ENDBRANCH  19  22
ENDBRANCH  13  16
ENDBRANCH  10  12
BRANCH   9  24
HETATM   24  C   UNL     1      41.330 -12.815   0.473  1.00  0.00    -0.017 A 
HETATM   25  C   UNL     1      41.299 -13.591  -0.731  1.00  0.00    -0.017 A 
HETATM   26  C   UNL     1      42.091 -13.162  -1.832  1.00  0.00    -0.025 A 
HETATM   27  C   UNL     1      40.545 -14.775  -0.925  1.00  0.00     0.013 A 
HETATM   28  C   UNL     1      42.133 -13.911  -3.020  1.00  0.00     0.012 A 
HETATM   29  C   UNL     1      42.846 -11.986  -1.747  1.00  0.00     0.012 A 
HETATM   30  C   UNL     1      41.397 -15.084  -3.158  1.00  0.00     0.001 A 
HETATM   31  C   UNL     1      40.597 -15.511  -2.113  1.00  0.00     0.001 A 
HETATM   32  C   UNL     1      42.840 -11.214  -0.593  1.00  0.00     0.002 A 
HETATM   33  C   UNL     1      42.092 -11.624   0.503  1.00  0.00     0.010 A 
ENDBRANCH   9  24
TORSDOF 4
ENDMDL
MODEL 4
REMARK VINA RESULT:      -8.2      2.233      4.745
REMARK  4 active torsions:
REMARK  status: ('A' for Active; 'I' for Inactive)
REMARK    1  A    between atoms: C_9  and  C_10 
REMARK    2  A    between atoms: C_20  and  C_21 
REMARK       I    between atoms: C_21  and  N_22 
REMARK    3  A    between atoms: N_22  and  C_23 
REMARK    4  A    between atoms: C_26  and  O_27 
ROOT
HETATM    1  C   UNL     1      43.630 -19.178   1.900  1.00  0.00     0.070 C 
HETATM    2  C   UNL     1      43.468 -18.702   3.324  1.00  0.00     0.037 C 
HETATM    3  N   UNL     1      44.140 -19.454   4.284  1.00  0.00    -0.192 N 
HETATM    4  C   UNL     1      43.909 -19.333   5.608  1.00  0.00     0.725 A 
HETATM    5  N   UNL     1      43.108 -18.318   6.063  1.00  0.00    -0.084 N 
HETATM    6  N   UNL     1      42.916 -18.409   7.395  1.00  0.00    -0.149 NA
HETATM    7  C   UNL     1      43.692 -19.458   7.685  1.00  0.00     0.275 A 
HETATM    8  N   UNL     1      44.317 -20.054   6.620  1.00  0.00    -0.054 NA
HETATM    9  C   UNL     1      42.432 -17.356   5.183  1.00  0.00     0.203 C 
HETATM   10  C   UNL     1      42.665 -17.680   3.712  1.00  0.00     0.062 C 
HETATM   11  H   UNL     1      44.648 -20.276   3.968  1.00  0.00     0.184 HD
ENDROOT
BRANCH  10  12
HETATM   12  C   UNL     1      41.773 -16.939   2.780  1.00  0.00     0.256 C 
HETATM   13  N   UNL     1      42.422 -16.013   1.994  1.00  0.00    -0.323 N 
HETATM   14  H   UNL     1      43.407 -15.866   2.171  1.00  0.00     0.169 HD
HETATM   15  O   UNL     1      40.572 -17.185   2.808  1.00  0.00    -0.267 OA
BRANCH  13  16
HETATM   16  C   UNL     1      41.864 -15.264   0.936  1.00  0.00     0.035 A 
HETATM   17  C   UNL     1      41.414 -15.822  -0.262  1.00  0.00     0.032 A 
HETATM   18  C   UNL     1      40.897 -15.008  -1.275  1.00  0.00     0.039 A 
HETATM   19  C   UNL     1      40.808 -13.628  -1.105  1.00  0.00     0.068 A 
HETATM   20  C   UNL     1      41.271 -13.059   0.079  1.00  0.00     0.039 A 
HETATM   21  C   UNL     1      41.791 -13.874   1.095  1.00  0.00     0.032 A 
BRANCH  19  22
HETATM   22  O   UNL     1      40.287 -12.943  -2.167  1.00  0.00    -0.356 OA
HETATM   23  C   UNL     1      40.683 -13.404  -3.454  1.00  0.00     0.210 C 
ENDBRANCH  19  22
ENDBRANCH  13  16
ENDBRANCH  10  12
BRANCH   9  24
HETATM   24  C   UNL     1      42.752 -15.904   5.564  1.00  0.00    -0.017 A 
HETATM   25  C   UNL     1      41.802 -14.831   5.604  1.00  0.00    -0.017 A 
HETATM   26  C   UNL     1      42.271 -13.524   5.910  1.00  0.00    -0.025 A 
HETATM   27  C   UNL     1      40.413 -14.956   5.351  1.00  0.00     0.013 A 
HETATM   28  C   UNL     1      41.390 -12.429   5.918  1.00  0.00     0.012 A 
HETATM   29  C   UNL     1      43.623 -13.306   6.207  1.00  0.00     0.012 A 
HETATM   30  C   UNL     1      40.037 -12.592   5.637  1.00  0.00     0.001 A 
HETATM   31  C   UNL     1      39.548 -13.857   5.361  1.00  0.00     0.001 A 
HETATM   32  C   UNL     1      44.531 -14.355   6.208  1.00  0.00     0.002 A 
HETATM   33  C   UNL     1      44.102 -15.638   5.889  1.00  0.00     0.010 A 
ENDBRANCH   9  24
TORSDOF 4
ENDMDL
MODEL 5
REMARK VINA RESULT:      -8.1      2.656      6.778
REMARK  4 active torsions:
REMARK  status: ('A' for Active; 'I' for Inactive)
REMARK    1  A    between atoms: C_9  and  C_10 
REMARK    2  A    between atoms: C_20  and  C_21 
REMARK       I    between atoms: C_21  and  N_22 
REMARK    3  A    between atoms: N_22  and  C_23 
REMARK    4  A    between atoms: C_26  and  O_27 
ROOT
HETATM    1  C   UNL     1      42.098 -12.574   4.658  1.00  0.00     0.070 C 
HETATM    2  C   UNL     1      41.220 -12.726   3.439  1.00  0.00     0.037 C 
HETATM    3  N   UNL     1      40.139 -11.850   3.370  1.00  0.00    -0.192 N 
HETATM    4  C   UNL     1      39.121 -12.005   2.499  1.00  0.00     0.725 A 
HETATM    5  N   UNL     1      39.211 -12.958   1.518  1.00  0.00    -0.084 N 
HETATM    6  N   UNL     1      38.069 -13.032   0.804  1.00  0.00    -0.149 NA
HETATM    7  C   UNL     1      37.364 -12.042   1.363  1.00  0.00     0.275 A 
HETATM    8  N   UNL     1      37.970 -11.389   2.405  1.00  0.00    -0.054 NA
HETATM    9  C   UNL     1      40.350 -13.874   1.373  1.00  0.00     0.203 C 
HETATM   10  C   UNL     1      41.367 -13.687   2.493  1.00  0.00     0.062 C 
HETATM   11  H   UNL     1      39.999 -11.212   4.149  1.00  0.00     0.184 HD
ENDROOT
BRANCH  10  12
HETATM   12  C   UNL     1      42.379 -14.774   2.578  1.00  0.00     0.256 C 
HETATM   13  N   UNL     1      41.847 -16.022   2.814  1.00  0.00    -0.323 N 
HETATM   14  H   UNL     1      40.852 -16.076   2.984  1.00  0.00     0.169 HD
HETATM   15  O   UNL     1      43.562 -14.475   2.464  1.00  0.00    -0.267 OA
BRANCH  13  16
HETATM   16  C   UNL     1      42.544 -17.250   2.812  1.00  0.00     0.035 A 
HETATM   17  C   UNL     1      42.610 -18.106   1.711  1.00  0.00     0.032 A 
HETATM   18  C   UNL     1      43.299 -19.321   1.798  1.00  0.00     0.039 A 
HETATM   19  C   UNL     1      43.942 -19.694   2.975  1.00  0.00     0.068 A 
HETATM   20  C   UNL     1      43.866 -18.856   4.085  1.00  0.00     0.039 A 
HETATM   21  C   UNL     1      43.175 -17.639   4.000  1.00  0.00     0.032 A 
BRANCH  19  22
HETATM   22  O   UNL     1      44.578 -20.904   2.933  1.00  0.00    -0.356 OA
HETATM   23  C   UNL     1      44.199 -21.765   1.866  1.00  0.00     0.210 C 
ENDBRANCH  19  22
ENDBRANCH  13  16
ENDBRANCH  10  12
BRANCH   9  24
HETATM   24  C   UNL     1      40.953 -13.824  -0.037  1.00  0.00    -0.017 A 
HETATM   25  C   UNL     1      41.700 -12.727  -0.579  1.00  0.00    -0.017 A 
HETATM   26  C   UNL     1      42.134 -12.807  -1.931  1.00  0.00    -0.025 A 
HETATM   27  C   UNL     1      42.041 -11.543   0.121  1.00  0.00     0.013 A 
HETATM   28  C   UNL     1      42.830 -11.740  -2.525  1.00  0.00     0.012 A 
HETATM   29  C   UNL     1      41.872 -13.952  -2.694  1.00  0.00     0.012 A 
HETATM   30  C   UNL     1      43.121 -10.583  -1.809  1.00  0.00     0.001 A 
HETATM   31  C   UNL     1      42.733 -10.488  -0.484  1.00  0.00     0.001 A 
HETATM   32  C   UNL     1      41.186 -15.029  -2.152  1.00  0.00     0.002 A 
HETATM   33  C   UNL     1      40.731 -14.966  -0.841  1.00  0.00     0.010 A 
ENDBRANCH   9  24
TORSDOF 4
ENDMDL
MODEL 6
REMARK VINA RESULT:      -8.1      3.099      7.412
REMARK  4 active torsions:
REMARK  status: ('A' for Active; 'I' for Inactive)
REMARK    1  A    between atoms: C_9  and  C_10 
REMARK    2  A    between atoms: C_20  and  C_21 
REMARK       I    between atoms: C_21  and  N_22 
REMARK    3  A    between atoms: N_22  and  C_23 
REMARK    4  A    between atoms: C_26  and  O_27 
ROOT
HETATM    1  C   UNL     1      40.918 -15.845  -2.297  1.00  0.00     0.070 C 
HETATM    2  C   UNL     1      41.319 -14.575  -1.587  1.00  0.00     0.037 C 
HETATM    3  N   UNL     1      41.482 -13.460  -2.406  1.00  0.00    -0.192 N 
HETATM    4  C   UNL     1      42.075 -12.323  -1.990  1.00  0.00     0.725 A 
HETATM    5  N   UNL     1      42.388 -12.170  -0.665  1.00  0.00    -0.084 N 
HETATM    6  N   UNL     1      43.055 -11.017  -0.452  1.00  0.00    -0.149 NA
HETATM    7  C   UNL     1      43.042 -10.492  -1.682  1.00  0.00     0.275 A 
HETATM    8  N   UNL     1      42.453 -11.259  -2.654  1.00  0.00    -0.054 NA
HETATM    9  C   UNL     1      42.155 -13.203   0.352  1.00  0.00     0.203 C 
HETATM   10  C   UNL     1      41.606 -14.485  -0.264  1.00  0.00     0.062 C 
HETATM   11  H   UNL     1      41.361 -13.590  -3.408  1.00  0.00     0.184 HD
ENDROOT
BRANCH  10  12
HETATM   12  C   UNL     1      41.635 -15.657   0.651  1.00  0.00     0.256 C 
HETATM   13  N   UNL     1      42.896 -16.162   0.879  1.00  0.00    -0.323 N 
HETATM   14  H   UNL     1      43.659 -15.755   0.356  1.00  0.00     0.169 HD
HETATM   15  O   UNL     1      40.571 -16.077   1.088  1.00  0.00    -0.267 OA
BRANCH  13  16
HETATM   16  C   UNL     1      43.245 -17.176   1.798  1.00  0.00     0.035 A 
HETATM   17  C   UNL     1      43.407 -16.965   3.168  1.00  0.00     0.032 A 
HETATM   18  C   UNL     1      43.781 -18.018   4.010  1.00  0.00     0.039 A 
HETATM   19  C   UNL     1      43.986 -19.298   3.502  1.00  0.00     0.068 A 
HETATM   20  C   UNL     1      43.844 -19.517   2.133  1.00  0.00     0.039 A 
HETATM   21  C   UNL     1      43.471 -18.461   1.288  1.00  0.00     0.032 A 
BRANCH  19  22
HETATM   22  O   UNL     1      44.349 -20.239   4.424  1.00  0.00    -0.356 OA
HETATM   23  C   UNL     1      44.250 -19.841   5.786  1.00  0.00     0.210 C 
ENDBRANCH  19  22
ENDBRANCH  13  16
ENDBRANCH  10  12
BRANCH   9  24
HETATM   24  C   UNL     1      41.332 -12.673   1.534  1.00  0.00    -0.017 A 
HETATM   25  C   UNL     1      39.971 -12.228   1.460  1.00  0.00    -0.017 A 
HETATM   26  C   UNL     1      39.368 -11.699   2.635  1.00  0.00    -0.025 A 
HETATM   27  C   UNL     1      39.160 -12.260   0.299  1.00  0.00     0.013 A 
HETATM   28  C   UNL     1      38.052 -11.207   2.606  1.00  0.00     0.012 A 
HETATM   29  C   UNL     1      40.080 -11.656   3.840  1.00  0.00     0.012 A 
HETATM   30  C   UNL     1      37.299 -11.233   1.436  1.00  0.00     0.001 A 
HETATM   31  C   UNL     1      37.851 -11.767   0.285  1.00  0.00     0.001 A 
HETATM   32  C   UNL     1      41.384 -12.126   3.917  1.00  0.00     0.002 A 
HETATM   33  C   UNL     1      42.002 -12.627   2.778  1.00  0.00     0.010 A 
ENDBRANCH   9  24
TORSDOF 4
ENDMDL
MODEL 7
REMARK VINA RESULT:      -8.0      2.543      5.008
REMARK  4 active torsions:
REMARK  status: ('A' for Active; 'I' for Inactive)
REMARK    1  A    between atoms: C_9  and  C_10 
REMARK    2  A    between atoms: C_20  and  C_21 
REMARK       I    between atoms: C_21  and  N_22 
REMARK    3  A    between atoms: N_22  and  C_23 
REMARK    4  A    between atoms: C_26  and  O_27 
ROOT
HETATM    1  C   UNL     1      44.268 -18.055   1.662  1.00  0.00     0.070 C 
HETATM    2  C   UNL     1      43.917 -17.833   3.114  1.00  0.00     0.037 C 
HETATM    3  N   UNL     1      44.361 -18.819   3.992  1.00  0.00    -0.192 N 
HETATM    4  C   UNL     1      43.929 -18.917   5.266  1.00  0.00     0.725 A 
HETATM    5  N   UNL     1      43.152 -17.920   5.794  1.00  0.00    -0.084 N 
HETATM    6  N   UNL     1      42.740 -18.231   7.041  1.00  0.00    -0.149 NA
HETATM    7  C   UNL     1      43.370 -19.397   7.225  1.00  0.00     0.275 A 
HETATM    8  N   UNL     1      44.108 -19.853   6.163  1.00  0.00    -0.054 NA
HETATM    9  C   UNL     1      42.709 -16.743   5.036  1.00  0.00     0.203 C 
HETATM   10  C   UNL     1      43.149 -16.816   3.578  1.00  0.00     0.062 C 
HETATM   11  H   UNL     1      44.844 -19.621   3.595  1.00  0.00     0.184 HD
ENDROOT
BRANCH  10  12
HETATM   12  C   UNL     1      42.483 -15.822   2.695  1.00  0.00     0.256 C 
HETATM   13  N   UNL     1      41.279 -16.244   2.177  1.00  0.00    -0.323 N 
HETATM   14  H   UNL     1      41.001 -17.197   2.372  1.00  0.00     0.169 HD
HETATM   15  O   UNL     1      43.053 -14.757   2.487  1.00  0.00    -0.267 OA
BRANCH  13  16
HETATM   16  C   UNL     1      40.367 -15.474   1.422  1.00  0.00     0.035 A 
HETATM   17  C   UNL     1      40.646 -14.954   0.158  1.00  0.00     0.032 A 
HETATM   18  C   UNL     1      39.697 -14.176  -0.515  1.00  0.00     0.039 A 
HETATM   19  C   UNL     1      38.454 -13.917   0.055  1.00  0.00     0.068 A 
HETATM   20  C   UNL     1      38.172 -14.415   1.325  1.00  0.00     0.039 A 
HETATM   21  C   UNL     1      39.123 -15.194   2.001  1.00  0.00     0.032 A 
BRANCH  19  22
HETATM   22  O   UNL     1      37.617 -13.144  -0.700  1.00  0.00    -0.356 OA
HETATM   23  C   UNL     1      38.152 -12.673  -1.931  1.00  0.00     0.210 C 
ENDBRANCH  19  22
ENDBRANCH  13  16
ENDBRANCH  10  12
BRANCH   9  24
HETATM   24  C   UNL     1      43.081 -15.431   5.739  1.00  0.00    -0.017 A 
HETATM   25  C   UNL     1      42.229 -14.284   5.854  1.00  0.00    -0.017 A 
HETATM   26  C   UNL     1      42.748 -13.116   6.478  1.00  0.00    -0.025 A 
HETATM   27  C   UNL     1      40.894 -14.204   5.384  1.00  0.00     0.013 A 
HETATM   28  C   UNL     1      41.971 -11.949   6.576  1.00  0.00     0.012 A 
HETATM   29  C   UNL     1      44.047 -13.110   7.003  1.00  0.00     0.012 A 
HETATM   30  C   UNL     1      40.673 -11.905   6.077  1.00  0.00     0.001 A 
HETATM   31  C   UNL     1      40.133 -13.035   5.488  1.00  0.00     0.001 A 
HETATM   32  C   UNL     1      44.854 -14.237   6.927  1.00  0.00     0.002 A 
HETATM   33  C   UNL     1      44.377 -15.382   6.302  1.00  0.00     0.010 A 
ENDBRANCH   9  24
TORSDOF 4
ENDMDL
MODEL 8
REMARK VINA RESULT:      -7.9      2.448      6.037
REMARK  4 active torsions:
REMARK  status: ('A' for Active; 'I' for Inactive)
REMARK    1  A    between atoms: C_9  and  C_10 
REMARK    2  A    between atoms: C_20  and  C_21 
REMARK       I    between atoms: C_21  and  N_22 
REMARK    3  A    between atoms: N_22  and  C_23 
REMARK    4  A    between atoms: C_26  and  O_27 
ROOT
HETATM    1  C   UNL     1      43.528 -14.236   6.305  1.00  0.00     0.070 C 
HETATM    2  C   UNL     1      42.488 -13.475   5.517  1.00  0.00     0.037 C 
HETATM    3  N   UNL     1      42.229 -12.182   5.967  1.00  0.00    -0.192 N 
HETATM    4  C   UNL     1      41.168 -11.459   5.552  1.00  0.00     0.725 A 
HETATM    5  N   UNL     1      40.393 -11.925   4.522  1.00  0.00    -0.084 N 
HETATM    6  N   UNL     1      39.332 -11.122   4.308  1.00  0.00    -0.149 NA
HETATM    7  C   UNL     1      39.573 -10.151   5.197  1.00  0.00     0.275 A 
HETATM    8  N   UNL     1      40.686 -10.319   5.979  1.00  0.00    -0.054 NA
HETATM    9  C   UNL     1      40.619 -13.212   3.851  1.00  0.00     0.203 C 
HETATM   10  C   UNL     1      41.759 -13.991   4.497  1.00  0.00     0.062 C 
HETATM   11  H   UNL     1      42.718 -11.865   6.799  1.00  0.00     0.184 HD
ENDROOT
BRANCH  10  12
HETATM   12  C   UNL     1      41.839 -15.412   4.068  1.00  0.00     0.256 C 
HETATM   13  N   UNL     1      43.112 -15.838   3.760  1.00  0.00    -0.323 N 
HETATM   14  H   UNL     1      43.847 -15.143   3.774  1.00  0.00     0.169 HD
HETATM   15  O   UNL     1      40.799 -16.057   4.000  1.00  0.00    -0.267 OA
BRANCH  13  16
HETATM   16  C   UNL     1      43.511 -17.157   3.455  1.00  0.00     0.035 A 
HETATM   17  C   UNL     1      43.438 -17.718   2.180  1.00  0.00     0.032 A 
HETATM   18  C   UNL     1      43.829 -19.045   1.964  1.00  0.00     0.039 A 
HETATM   19  C   UNL     1      44.310 -19.826   3.012  1.00  0.00     0.068 A 
HETATM   20  C   UNL     1      44.370 -19.281   4.293  1.00  0.00     0.039 A 
HETATM   21  C   UNL     1      43.977 -17.952   4.510  1.00  0.00     0.032 A 
BRANCH  19  22
HETATM   22  O   UNL     1      44.657 -21.104   2.674  1.00  0.00    -0.356 OA
HETATM   23  C   UNL     1      43.842 -21.725   1.687  1.00  0.00     0.210 C 
ENDBRANCH  19  22
ENDBRANCH  13  16
ENDBRANCH  10  12
BRANCH   9  24
HETATM   24  C   UNL     1      40.750 -13.052   2.330  1.00  0.00    -0.017 A 
HETATM   25  C   UNL     1      39.722 -13.347   1.376  1.00  0.00    -0.017 A 
HETATM   26  C   UNL     1      40.023 -13.212  -0.007  1.00  0.00    -0.025 A 
HETATM   27  C   UNL     1      38.410 -13.780   1.693  1.00  0.00     0.013 A 
HETATM   28  C   UNL     1      39.066 -13.532  -0.985  1.00  0.00     0.012 A 
HETATM   29  C   UNL     1      41.284 -12.760  -0.417  1.00  0.00     0.012 A 
HETATM   30  C   UNL     1      37.797 -13.979  -0.631  1.00  0.00     0.001 A 
HETATM   31  C   UNL     1      37.467 -14.096   0.709  1.00  0.00     0.001 A 
HETATM   32  C   UNL     1      42.263 -12.434   0.511  1.00  0.00     0.002 A 
HETATM   33  C   UNL     1      42.000 -12.580   1.868  1.00  0.00     0.010 A 
ENDBRANCH   9  24
TORSDOF 4
ENDMDL
MODEL 9
REMARK VINA RESULT:      -7.5      3.249      7.870
REMARK  4 active torsions:
REMARK  status: ('A' for Active; 'I' for Inactive)
REMARK    1  A    between atoms: C_9  and  C_10 
REMARK    2  A    between atoms: C_20  and  C_21 
REMARK       I    between atoms: C_21  and  N_22 
REMARK    3  A    between atoms: N_22  and  C_23 
REMARK    4  A    between atoms: C_26  and  O_27 
ROOT
HETATM    1  C   UNL     1      40.742 -16.003  -2.917  1.00  0.00     0.070 C 
HETATM    2  C   UNL     1      40.719 -14.569  -2.446  1.00  0.00     0.037 C 
HETATM    3  N   UNL     1      40.714 -13.610  -3.456  1.00  0.00    -0.192 N 
HETATM    4  C   UNL     1      40.948 -12.301  -3.228  1.00  0.00     0.725 A 
HETATM    5  N   UNL     1      41.029 -11.844  -1.939  1.00  0.00    -0.084 N 
HETATM    6  N   UNL     1      41.357 -10.536  -1.905  1.00  0.00    -0.149 NA
HETATM    7  C   UNL     1      41.385 -10.254  -3.212  1.00  0.00     0.275 A 
HETATM    8  N   UNL     1      41.140 -11.306  -4.057  1.00  0.00    -0.054 NA
HETATM    9  C   UNL     1      40.919 -12.710  -0.758  1.00  0.00     0.203 C 
HETATM   10  C   UNL     1      40.791 -14.178  -1.149  1.00  0.00     0.062 C 
HETATM   11  H   UNL     1      40.766 -13.937  -4.417  1.00  0.00     0.184 HD
ENDROOT
BRANCH  10  12
HETATM   12  C   UNL     1      40.981 -15.124  -0.017  1.00  0.00     0.256 C 
HETATM   13  N   UNL     1      42.288 -15.509   0.183  1.00  0.00    -0.323 N 
HETATM   14  H   UNL     1      42.972 -15.188  -0.488  1.00  0.00     0.169 HD
HETATM   15  O   UNL     1      39.991 -15.491   0.605  1.00  0.00    -0.267 OA
BRANCH  13  16
HETATM   16  C   UNL     1      42.786 -16.285   1.253  1.00  0.00     0.035 A 
HETATM   17  C   UNL     1      42.830 -15.848   2.578  1.00  0.00     0.032 A 
HETATM   18  C   UNL     1      43.364 -16.668   3.578  1.00  0.00     0.039 A 
HETATM   19  C   UNL     1      43.848 -17.938   3.276  1.00  0.00     0.068 A 
HETATM   20  C   UNL     1      43.826 -18.377   1.954  1.00  0.00     0.039 A 
HETATM   21  C   UNL     1      43.293 -17.555   0.950  1.00  0.00     0.032 A 
BRANCH  19  22
HETATM   22  O   UNL     1      44.345 -18.640   4.339  1.00  0.00    -0.356 OA
HETATM   23  C   UNL     1      44.567 -20.027   4.114  1.00  0.00     0.210 C 
ENDBRANCH  19  22
ENDBRANCH  13  16
ENDBRANCH  10  12
BRANCH   9  24
HETATM   24  C   UNL     1      39.837 -12.223   0.215  1.00  0.00    -0.017 A 
HETATM   25  C   UNL     1      40.008 -12.068   1.630  1.00  0.00    -0.017 A 
HETATM   26  C   UNL     1      38.884 -11.671   2.407  1.00  0.00    -0.025 A 
HETATM   27  C   UNL     1      41.215 -12.287   2.339  1.00  0.00     0.013 A 
HETATM   28  C   UNL     1      38.985 -11.548   3.803  1.00  0.00     0.012 A 
HETATM   29  C   UNL     1      37.656 -11.399   1.791  1.00  0.00     0.012 A 
HETATM   30  C   UNL     1      40.184 -11.799   4.463  1.00  0.00     0.001 A 
HETATM   31  C   UNL     1      41.300 -12.162   3.730  1.00  0.00     0.001 A 
HETATM   32  C   UNL     1      37.507 -11.510   0.415  1.00  0.00     0.002 A 
HETATM   33  C   UNL     1      38.583 -11.919  -0.362  1.00  0.00     0.010 A 
ENDBRANCH   9  24
TORSDOF 4
ENDMDL
MODEL 10
REMARK VINA RESULT:      -7.5      2.626      5.962
REMARK  4 active torsions:
REMARK  status: ('A' for Active; 'I' for Inactive)
REMARK    1  A    between atoms: C_9  and  C_10 
REMARK    2  A    between atoms: C_20  and  C_21 
REMARK       I    between atoms: C_21  and  N_22 
REMARK    3  A    between atoms: N_22  and  C_23 
REMARK    4  A    between atoms: C_26  and  O_27 
ROOT
HETATM    1  C   UNL     1      44.053 -14.542   6.505  1.00  0.00     0.070 C 
HETATM    2  C   UNL     1      42.743 -13.979   6.010  1.00  0.00     0.037 C 
HETATM    3  N   UNL     1      42.453 -12.684   6.432  1.00  0.00    -0.192 N 
HETATM    4  C   UNL     1      41.234 -12.123   6.301  1.00  0.00     0.725 A 
HETATM    5  N   UNL     1      40.268 -12.769   5.575  1.00  0.00    -0.084 N 
HETATM    6  N   UNL     1      39.093 -12.109   5.630  1.00  0.00    -0.149 NA
HETATM    7  C   UNL     1      39.446 -11.035   6.346  1.00  0.00     0.275 A 
HETATM    8  N   UNL     1      40.747 -11.005   6.777  1.00  0.00    -0.054 NA
HETATM    9  C   UNL     1      40.461 -14.083   4.950  1.00  0.00     0.203 C 
HETATM   10  C   UNL     1      41.829 -14.668   5.282  1.00  0.00     0.062 C 
HETATM   11  H   UNL     1      43.112 -12.235   7.064  1.00  0.00     0.184 HD
ENDROOT
BRANCH  10  12
HETATM   12  C   UNL     1      41.971 -16.108   4.939  1.00  0.00     0.256 C 
HETATM   13  N   UNL     1      42.877 -16.362   3.934  1.00  0.00    -0.323 N 
HETATM   14  H   UNL     1      43.294 -15.563   3.475  1.00  0.00     0.169 HD
HETATM   15  O   UNL     1      41.275 -16.918   5.540  1.00  0.00    -0.267 OA
BRANCH  13  16
HETATM   16  C   UNL     1      43.315 -17.630   3.492  1.00  0.00     0.035 A 
HETATM   17  C   UNL     1      43.018 -18.163   2.237  1.00  0.00     0.032 A 
HETATM   18  C   UNL     1      43.467 -19.441   1.884  1.00  0.00     0.039 A 
HETATM   19  C   UNL     1      44.230 -20.198   2.769  1.00  0.00     0.068 A 
HETATM   20  C   UNL     1      44.518 -19.682   4.031  1.00  0.00     0.039 A 
HETATM   21  C   UNL     1      44.066 -18.403   4.387  1.00  0.00     0.032 A 
BRANCH  19  22
HETATM   22  O   UNL     1      44.607 -21.428   2.308  1.00  0.00    -0.356 OA
HETATM   23  C   UNL     1      44.557 -22.487   3.258  1.00  0.00     0.210 C 
ENDBRANCH  19  22
ENDBRANCH  13  16
ENDBRANCH  10  12
BRANCH   9  24
HETATM   24  C   UNL     1      40.135 -14.062   3.450  1.00  0.00    -0.017 A 
HETATM   25  C   UNL     1      40.425 -12.979   2.556  1.00  0.00    -0.017 A 
HETATM   26  C   UNL     1      39.996 -13.085   1.204  1.00  0.00    -0.025 A 
HETATM   27  C   UNL     1      41.105 -11.786   2.907  1.00  0.00     0.013 A 
HETATM   28  C   UNL     1      40.215 -12.033   0.298  1.00  0.00     0.012 A 
HETATM   29  C   UNL     1      39.345 -14.240   0.755  1.00  0.00     0.012 A 
HETATM   30  C   UNL     1      40.863 -10.867   0.692  1.00  0.00     0.001 A 
HETATM   31  C   UNL     1      41.315 -10.747   1.995  1.00  0.00     0.001 A 
HETATM   32  C   UNL     1      39.104 -15.304   1.614  1.00  0.00     0.002 A 
HETATM   33  C   UNL     1      39.492 -15.215   2.944  1.00  0.00     0.010 A 
ENDBRANCH   9  24
TORSDOF 4
ENDMDL
