MODEL 1
REMARK VINA RESULT:      -8.6      0.000      0.000
REMARK  4 active torsions:
REMARK  status: ('A' for Active; 'I' for Inactive)
REMARK    1  A    between atoms: C_3  and  C_4 
REMARK       I    between atoms: C_4  and  N_5 
REMARK    2  A    between atoms: N_5  and  C_6 
REMARK    3  A    between atoms: C_6  and  C_7 
REMARK    4  A    between atoms: C_23  and  O_24 
ROOT
HETATM    1  C   UNL     1      43.191 -15.056   2.898  1.00  0.00     0.276 C 
HETATM    2  N   UNL     1      42.142 -15.047   2.007  1.00  0.00    -0.348 N 
HETATM    3  O   UNL     1      43.838 -14.033   3.114  1.00  0.00    -0.265 OA
HETATM    4  H   UNL     1      41.607 -15.892   1.831  1.00  0.00     0.163 HD
ENDROOT
BRANCH   1   5
HETATM    5  C   UNL     1      43.457 -16.331   3.538  1.00  0.00     0.150 A 
HETATM    6  C   UNL     1      43.853 -17.557   3.014  1.00  0.00    -0.009 A 
HETATM    7  C   UNL     1      44.123 -17.910   1.596  1.00  0.00     0.052 C 
HETATM    8  C   UNL     1      43.965 -18.447   4.126  1.00  0.00     0.009 A 
HETATM    9  C   UNL     1      43.627 -17.709   5.249  1.00  0.00     0.087 A 
HETATM   10  C   UNL     1      44.318 -19.799   4.295  1.00  0.00     0.051 A 
HETATM   11  O   UNL     1      43.318 -16.431   4.901  1.00  0.00    -0.304 OA
HETATM   12  C   UNL     1      43.613 -18.226   6.542  1.00  0.00     0.041 A 
HETATM   13  C   UNL     1      43.968 -19.577   6.688  1.00  0.00     0.039 A 
HETATM   14  C   UNL     1      44.317 -20.359   5.582  1.00  0.00     0.069 A 
BRANCH  14  15
HETATM   15  O   UNL     1      44.678 -21.680   5.614  1.00  0.00    -0.356 OA
HETATM   16  C   UNL     1      44.707 -22.375   4.375  1.00  0.00     0.210 C 
ENDBRANCH  14  15
ENDBRANCH   1   5
BRANCH   2  17
HETATM   17  C   UNL     1      41.797 -13.836   1.313  1.00  0.00     0.201 C 
BRANCH  17  18
HETATM   18  C   UNL     1      41.022 -14.133   0.079  1.00  0.00     0.123 A 
HETATM   19  N   UNL     1      39.850 -13.651  -0.291  1.00  0.00    -0.232 NA
HETATM   20  C   UNL     1      39.577 -14.238  -1.505  1.00  0.00     0.085 A 
HETATM   21  C   UNL     1      40.601 -15.097  -1.884  1.00  0.00     0.062 A 
HETATM   22  C   UNL     1      38.468 -14.088  -2.351  1.00  0.00     0.034 A 
HETATM   23  N   UNL     1      41.507 -15.013  -0.861  1.00  0.00    -0.341 N 
HETATM   24  C   UNL     1      40.594 -15.830  -3.073  1.00  0.00     0.032 A 
HETATM   25  H   UNL     1      42.383 -15.512  -0.807  1.00  0.00     0.167 HD
HETATM   26  C   UNL     1      39.481 -15.667  -3.903  1.00  0.00     0.002 A 
HETATM   27  C   UNL     1      38.433 -14.811  -3.551  1.00  0.00     0.002 A 
ENDBRANCH  17  18
ENDBRANCH   2  17
TORSDOF 4
ENDMDL
MODEL 2
REMARK VINA RESULT:      -8.4      8.080     10.581
REMARK  4 active torsions:
REMARK  status: ('A' for Active; 'I' for Inactive)
REMARK    1  A    between atoms: C_3  and  C_4 
REMARK       I    between atoms: C_4  and  N_5 
REMARK    2  A    between atoms: N_5  and  C_6 
REMARK    3  A    between atoms: C_6  and  C_7 
REMARK    4  A    between atoms: C_23  and  O_24 
ROOT
HETATM    1  C   UNL     1      44.852 -11.324   9.331  1.00  0.00     0.276 C 
HETATM    2  N   UNL     1      44.413 -12.528   8.830  1.00  0.00    -0.348 N 
HETATM    3  O   UNL     1      45.931 -10.853   8.975  1.00  0.00    -0.265 OA
HETATM    4  H   UNL     1      43.522 -12.916   9.124  1.00  0.00     0.163 HD
ENDROOT
BRANCH   1   5
HETATM    5  C   UNL     1      43.964 -10.681  10.282  1.00  0.00     0.150 A 
HETATM    6  C   UNL     1      42.682 -10.160  10.134  1.00  0.00    -0.009 A 
HETATM    7  C   UNL     1      41.838 -10.119   8.911  1.00  0.00     0.052 C 
HETATM    8  C   UNL     1      42.307  -9.659  11.418  1.00  0.00     0.009 A 
HETATM    9  C   UNL     1      43.381  -9.903  12.259  1.00  0.00     0.087 A 
HETATM   10  C   UNL     1      41.169  -9.027  11.953  1.00  0.00     0.051 A 
HETATM   11  O   UNL     1      44.385 -10.518  11.579  1.00  0.00    -0.304 OA
HETATM   12  C   UNL     1      43.405  -9.556  13.608  1.00  0.00     0.041 A 
HETATM   13  C   UNL     1      42.259  -8.926  14.120  1.00  0.00     0.039 A 
HETATM   14  C   UNL     1      41.152  -8.662  13.308  1.00  0.00     0.069 A 
BRANCH  14  15
HETATM   15  O   UNL     1      39.990  -8.055  13.706  1.00  0.00    -0.356 OA
HETATM   16  C   UNL     1      38.826  -8.310  12.931  1.00  0.00     0.210 C 
ENDBRANCH  14  15
ENDBRANCH   1   5
BRANCH   2  17
HETATM   17  C   UNL     1      45.221 -13.251   7.886  1.00  0.00     0.201 C 
BRANCH  17  18
HETATM   18  C   UNL     1      44.389 -14.189   7.084  1.00  0.00     0.123 A 
HETATM   19  N   UNL     1      44.106 -14.140   5.796  1.00  0.00    -0.232 NA
HETATM   20  C   UNL     1      43.308 -15.234   5.552  1.00  0.00     0.085 A 
HETATM   21  C   UNL     1      43.098 -15.966   6.714  1.00  0.00     0.062 A 
HETATM   22  C   UNL     1      42.719 -15.673   4.357  1.00  0.00     0.034 A 
HETATM   23  N   UNL     1      43.795 -15.281   7.674  1.00  0.00    -0.341 N 
HETATM   24  C   UNL     1      42.327 -17.129   6.766  1.00  0.00     0.032 A 
HETATM   25  H   UNL     1      43.862 -15.537   8.648  1.00  0.00     0.167 HD
HETATM   26  C   UNL     1      41.748 -17.551   5.565  1.00  0.00     0.002 A 
HETATM   27  C   UNL     1      41.940 -16.837   4.378  1.00  0.00     0.002 A 
ENDBRANCH  17  18
ENDBRANCH   2  17
TORSDOF 4
ENDMDL
MODEL 3
REMARK VINA RESULT:      -8.4      1.606      2.189
REMARK  4 active torsions:
REMARK  status: ('A' for Active; 'I' for Inactive)
REMARK    1  A    between atoms: C_3  and  C_4 
REMARK       I    between atoms: C_4  and  N_5 
REMARK    2  A    between atoms: N_5  and  C_6 
REMARK    3  A    between atoms: C_6  and  C_7 
REMARK    4  A    between atoms: C_23  and  O_24 
ROOT
HETATM    1  C   UNL     1      41.454 -15.782   2.175  1.00  0.00     0.276 C 
HETATM    2  N   UNL     1      41.962 -15.060   1.119  1.00  0.00    -0.348 N 
HETATM    3  O   UNL     1      40.398 -15.450   2.712  1.00  0.00    -0.265 OA
HETATM    4  H   UNL     1      42.833 -15.335   0.677  1.00  0.00     0.163 HD
ENDROOT
BRANCH   1   5
HETATM    5  C   UNL     1      42.244 -16.927   2.587  1.00  0.00     0.150 A 
HETATM    6  C   UNL     1      42.997 -17.160   3.733  1.00  0.00    -0.009 A 
HETATM    7  C   UNL     1      43.207 -16.260   4.898  1.00  0.00     0.052 C 
HETATM    8  C   UNL     1      43.549 -18.469   3.588  1.00  0.00     0.009 A 
HETATM    9  C   UNL     1      43.101 -18.946   2.367  1.00  0.00     0.087 A 
HETATM   10  C   UNL     1      44.378 -19.299   4.365  1.00  0.00     0.051 A 
HETATM   11  O   UNL     1      42.314 -18.019   1.756  1.00  0.00    -0.304 OA
HETATM   12  C   UNL     1      43.424 -20.201   1.857  1.00  0.00     0.041 A 
HETATM   13  C   UNL     1      44.254 -21.011   2.648  1.00  0.00     0.039 A 
HETATM   14  C   UNL     1      44.728 -20.572   3.888  1.00  0.00     0.069 A 
BRANCH  14  15
HETATM   15  O   UNL     1      45.538 -21.280   4.736  1.00  0.00    -0.356 OA
HETATM   16  C   UNL     1      45.046 -22.523   5.218  1.00  0.00     0.210 C 
ENDBRANCH  14  15
ENDBRANCH   1   5
BRANCH   2  17
HETATM   17  C   UNL     1      41.260 -13.902   0.636  1.00  0.00     0.201 C 
BRANCH  17  18
HETATM   18  C   UNL     1      40.431 -14.241  -0.552  1.00  0.00     0.123 A 
HETATM   19  N   UNL     1      39.278 -13.717  -0.925  1.00  0.00    -0.232 NA
HETATM   20  C   UNL     1      38.934 -14.373  -2.085  1.00  0.00     0.085 A 
HETATM   21  C   UNL     1      39.896 -15.316  -2.427  1.00  0.00     0.062 A 
HETATM   22  C   UNL     1      37.810 -14.218  -2.909  1.00  0.00     0.034 A 
HETATM   23  N   UNL     1      40.836 -15.213  -1.436  1.00  0.00    -0.341 N 
HETATM   24  C   UNL     1      39.810 -16.131  -3.558  1.00  0.00     0.032 A 
HETATM   25  H   UNL     1      41.683 -15.758  -1.370  1.00  0.00     0.167 HD
HETATM   26  C   UNL     1      38.682 -15.963  -4.368  1.00  0.00     0.002 A 
HETATM   27  C   UNL     1      37.697 -15.023  -4.052  1.00  0.00     0.002 A 
ENDBRANCH  17  18
ENDBRANCH   2  17
TORSDOF 4
ENDMDL
MODEL 4
REMARK VINA RESULT:      -8.3      1.690      2.071
REMARK  4 active torsions:
REMARK  status: ('A' for Active; 'I' for Inactive)
REMARK    1  A    between atoms: C_3  and  C_4 
REMARK       I    between atoms: C_4  and  N_5 
REMARK    2  A    between atoms: N_5  and  C_6 
REMARK    3  A    between atoms: C_6  and  C_7 
REMARK    4  A    between atoms: C_23  and  O_24 
ROOT
HETATM    1  C   UNL     1      43.175 -14.818   3.174  1.00  0.00     0.276 C 
HETATM    2  N   UNL     1      41.892 -14.583   2.734  1.00  0.00    -0.348 N 
HETATM    3  O   UNL     1      43.980 -13.895   3.280  1.00  0.00    -0.265 OA
HETATM    4  H   UNL     1      41.228 -15.346   2.648  1.00  0.00     0.163 HD
ENDROOT
BRANCH   1   5
HETATM    5  C   UNL     1      43.485 -16.200   3.490  1.00  0.00     0.150 A 
HETATM    6  C   UNL     1      43.777 -17.286   2.672  1.00  0.00    -0.009 A 
HETATM    7  C   UNL     1      43.854 -17.329   1.188  1.00  0.00     0.052 C 
HETATM    8  C   UNL     1      44.003 -18.393   3.545  1.00  0.00     0.009 A 
HETATM    9  C   UNL     1      43.831 -17.912   4.833  1.00  0.00     0.087 A 
HETATM   10  C   UNL     1      44.336 -19.750   3.378  1.00  0.00     0.051 A 
HETATM   11  O   UNL     1      43.516 -16.590   4.807  1.00  0.00    -0.304 OA
HETATM   12  C   UNL     1      43.966 -18.693   5.979  1.00  0.00     0.041 A 
HETATM   13  C   UNL     1      44.299 -20.044   5.788  1.00  0.00     0.039 A 
HETATM   14  C   UNL     1      44.483 -20.572   4.506  1.00  0.00     0.069 A 
BRANCH  14  15
HETATM   15  O   UNL     1      44.808 -21.869   4.211  1.00  0.00    -0.356 OA
HETATM   16  C   UNL     1      44.472 -22.344   2.914  1.00  0.00     0.210 C 
ENDBRANCH  14  15
ENDBRANCH   1   5
BRANCH   2  17
HETATM   17  C   UNL     1      41.484 -13.249   2.388  1.00  0.00     0.201 C 
BRANCH  17  18
HETATM   18  C   UNL     1      41.670 -12.997   0.934  1.00  0.00     0.123 A 
HETATM   19  N   UNL     1      42.406 -12.070   0.349  1.00  0.00    -0.232 NA
HETATM   20  C   UNL     1      42.237 -12.265  -1.003  1.00  0.00     0.085 A 
HETATM   21  C   UNL     1      41.381 -13.332  -1.249  1.00  0.00     0.062 A 
HETATM   22  C   UNL     1      42.786 -11.569  -2.090  1.00  0.00     0.034 A 
HETATM   23  N   UNL     1      41.034 -13.779  -0.002  1.00  0.00    -0.341 N 
HETATM   24  C   UNL     1      41.028 -13.759  -2.530  1.00  0.00     0.032 A 
HETATM   25  H   UNL     1      40.416 -14.553   0.196  1.00  0.00     0.167 HD
HETATM   26  C   UNL     1      41.584 -13.053  -3.602  1.00  0.00     0.002 A 
HETATM   27  C   UNL     1      42.449 -11.975  -3.389  1.00  0.00     0.002 A 
ENDBRANCH  17  18
ENDBRANCH   2  17
TORSDOF 4
ENDMDL
MODEL 5
REMARK VINA RESULT:      -8.3      4.497      7.645
REMARK  4 active torsions:
REMARK  status: ('A' for Active; 'I' for Inactive)
REMARK    1  A    between atoms: C_3  and  C_4 
REMARK       I    between atoms: C_4  and  N_5 
REMARK    2  A    between atoms: N_5  and  C_6 
REMARK    3  A    between atoms: C_6  and  C_7 
REMARK    4  A    between atoms: C_23  and  O_24 
ROOT
HETATM    1  C   UNL     1      43.287 -14.813   4.356  1.00  0.00     0.276 C 
HETATM    2  N   UNL     1      42.540 -14.513   5.472  1.00  0.00    -0.348 N 
HETATM    3  O   UNL     1      43.670 -13.922   3.600  1.00  0.00    -0.265 OA
HETATM    4  H   UNL     1      42.224 -15.249   6.096  1.00  0.00     0.163 HD
ENDROOT
BRANCH   1   5
HETATM    5  C   UNL     1      43.573 -16.222   4.155  1.00  0.00     0.150 A 
HETATM    6  C   UNL     1      43.569 -17.005   3.006  1.00  0.00    -0.009 A 
HETATM    7  C   UNL     1      43.257 -16.595   1.611  1.00  0.00     0.052 C 
HETATM    8  C   UNL     1      43.938 -18.321   3.420  1.00  0.00     0.009 A 
HETATM    9  C   UNL     1      44.137 -18.255   4.789  1.00  0.00     0.087 A 
HETATM   10  C   UNL     1      44.124 -19.559   2.777  1.00  0.00     0.051 A 
HETATM   11  O   UNL     1      43.917 -16.991   5.240  1.00  0.00    -0.304 OA
HETATM   12  C   UNL     1      44.511 -19.344   5.573  1.00  0.00     0.041 A 
HETATM   13  C   UNL     1      44.690 -20.569   4.911  1.00  0.00     0.039 A 
HETATM   14  C   UNL     1      44.501 -20.681   3.530  1.00  0.00     0.069 A 
BRANCH  14  15
HETATM   15  O   UNL     1      44.649 -21.824   2.788  1.00  0.00    -0.356 OA
HETATM   16  C   UNL     1      43.916 -21.910   1.574  1.00  0.00     0.210 C 
ENDBRANCH  14  15
ENDBRANCH   1   5
BRANCH   2  17
HETATM   17  C   UNL     1      42.195 -13.147   5.761  1.00  0.00     0.201 C 
BRANCH  17  18
HETATM   18  C   UNL     1      42.951 -12.646   6.940  1.00  0.00     0.123 A 
HETATM   19  N   UNL     1      44.147 -13.012   7.364  1.00  0.00    -0.232 NA
HETATM   20  C   UNL     1      44.388 -12.250   8.485  1.00  0.00     0.085 A 
HETATM   21  C   UNL     1      43.319 -11.403   8.751  1.00  0.00     0.062 A 
HETATM   22  C   UNL     1      45.504 -12.224   9.335  1.00  0.00     0.034 A 
HETATM   23  N   UNL     1      42.419 -11.675   7.755  1.00  0.00    -0.341 N 
HETATM   24  C   UNL     1      43.287 -10.515   9.827  1.00  0.00     0.032 A 
HETATM   25  H   UNL     1      41.518 -11.234   7.639  1.00  0.00     0.167 HD
HETATM   26  C   UNL     1      44.408 -10.503  10.664  1.00  0.00     0.002 A 
HETATM   27  C   UNL     1      45.500 -11.342  10.424  1.00  0.00     0.002 A 
ENDBRANCH  17  18
ENDBRANCH   2  17
TORSDOF 4
ENDMDL
MODEL 6
REMARK VINA RESULT:      -8.1      4.867      8.085
REMARK  4 active torsions:
REMARK  status: ('A' for Active; 'I' for Inactive)
REMARK    1  A    between atoms: C_3  and  C_4 
REMARK       I    between atoms: C_4  and  N_5 
REMARK    2  A    between atoms: N_5  and  C_6 
REMARK    3  A    between atoms: C_6  and  C_7 
REMARK    4  A    between atoms: C_23  and  O_24 
ROOT
HETATM    1  C   UNL     1      41.413 -14.562   5.440  1.00  0.00     0.276 C 
HETATM    2  N   UNL     1      42.220 -13.453   5.549  1.00  0.00    -0.348 N 
HETATM    3  O   UNL     1      40.249 -14.532   5.835  1.00  0.00    -0.265 OA
HETATM    4  H   UNL     1      43.180 -13.480   5.221  1.00  0.00     0.163 HD
ENDROOT
BRANCH   1   5
HETATM    5  C   UNL     1      42.031 -15.730   4.839  1.00  0.00     0.150 A 
HETATM    6  C   UNL     1      42.496 -16.914   5.401  1.00  0.00    -0.009 A 
HETATM    7  C   UNL     1      42.486 -17.324   6.830  1.00  0.00     0.052 C 
HETATM    8  C   UNL     1      42.998 -17.698   4.318  1.00  0.00     0.009 A 
HETATM    9  C   UNL     1      42.810 -16.942   3.172  1.00  0.00     0.087 A 
HETATM   10  C   UNL     1      43.589 -18.969   4.190  1.00  0.00     0.051 A 
HETATM   11  O   UNL     1      42.229 -15.751   3.480  1.00  0.00    -0.304 OA
HETATM   12  C   UNL     1      43.175 -17.362   1.895  1.00  0.00     0.041 A 
HETATM   13  C   UNL     1      43.764 -18.633   1.792  1.00  0.00     0.039 A 
HETATM   14  C   UNL     1      43.971 -19.431   2.921  1.00  0.00     0.069 A 
BRANCH  14  15
HETATM   15  O   UNL     1      44.534 -20.679   2.930  1.00  0.00    -0.356 OA
HETATM   16  C   UNL     1      44.065 -21.611   1.965  1.00  0.00     0.210 C 
ENDBRANCH  14  15
ENDBRANCH   1   5
BRANCH   2  17
HETATM   17  C   UNL     1      41.707 -12.245   6.135  1.00  0.00     0.201 C 
BRANCH  17  18
HETATM   18  C   UNL     1      42.475 -11.879   7.356  1.00  0.00     0.123 A 
HETATM   19  N   UNL     1      42.190 -10.962   8.261  1.00  0.00    -0.232 NA
HETATM   20  C   UNL     1      43.211 -11.023   9.181  1.00  0.00     0.085 A 
HETATM   21  C   UNL     1      44.139 -11.997   8.831  1.00  0.00     0.062 A 
HETATM   22  C   UNL     1      43.418 -10.276  10.350  1.00  0.00     0.034 A 
HETATM   23  N   UNL     1      43.649 -12.526   7.667  1.00  0.00    -0.341 N 
HETATM   24  C   UNL     1      45.281 -12.281   9.582  1.00  0.00     0.032 A 
HETATM   25  H   UNL     1      44.077 -13.266   7.130  1.00  0.00     0.167 HD
HETATM   26  C   UNL     1      45.471 -11.526  10.744  1.00  0.00     0.002 A 
HETATM   27  C   UNL     1      44.557 -10.539  11.125  1.00  0.00     0.002 A 
ENDBRANCH  17  18
ENDBRANCH   2  17
TORSDOF 4
ENDMDL
MODEL 7
REMARK VINA RESULT:      -8.0      2.540      3.415
REMARK  4 active torsions:
REMARK  status: ('A' for Active; 'I' for Inactive)
REMARK    1  A    between atoms: C_3  and  C_4 
REMARK       I    between atoms: C_4  and  N_5 
REMARK    2  A    between atoms: N_5  and  C_6 
REMARK    3  A    between atoms: C_6  and  C_7 
REMARK    4  A    between atoms: C_23  and  O_24 
ROOT
HETATM    1  C   UNL     1      41.553 -15.424   2.792  1.00  0.00     0.276 C 
HETATM    2  N   UNL     1      42.296 -14.279   2.626  1.00  0.00    -0.348 N 
HETATM    3  O   UNL     1      40.325 -15.392   2.718  1.00  0.00    -0.265 OA
HETATM    4  H   UNL     1      43.309 -14.307   2.686  1.00  0.00     0.163 HD
ENDROOT
BRANCH   1   5
HETATM    5  C   UNL     1      42.314 -16.632   3.054  1.00  0.00     0.150 A 
HETATM    6  C   UNL     1      43.082 -17.015   4.148  1.00  0.00    -0.009 A 
HETATM    7  C   UNL     1      43.343 -16.259   5.401  1.00  0.00     0.052 C 
HETATM    8  C   UNL     1      43.588 -18.315   3.844  1.00  0.00     0.009 A 
HETATM    9  C   UNL     1      43.101 -18.637   2.587  1.00  0.00     0.087 A 
HETATM   10  C   UNL     1      44.407 -19.251   4.502  1.00  0.00     0.051 A 
HETATM   11  O   UNL     1      42.332 -17.624   2.104  1.00  0.00    -0.304 OA
HETATM   12  C   UNL     1      43.375 -19.835   1.931  1.00  0.00     0.041 A 
HETATM   13  C   UNL     1      44.193 -20.754   2.607  1.00  0.00     0.039 A 
HETATM   14  C   UNL     1      44.706 -20.471   3.877  1.00  0.00     0.069 A 
BRANCH  14  15
HETATM   15  O   UNL     1      45.511 -21.294   4.620  1.00  0.00    -0.356 OA
HETATM   16  C   UNL     1      44.930 -22.491   5.121  1.00  0.00     0.210 C 
ENDBRANCH  14  15
ENDBRANCH   1   5
BRANCH   2  17
HETATM   17  C   UNL     1      41.639 -13.026   2.368  1.00  0.00     0.201 C 
BRANCH  17  18
HETATM   18  C   UNL     1      41.892 -12.570   0.975  1.00  0.00     0.123 A 
HETATM   19  N   UNL     1      41.814 -13.266  -0.144  1.00  0.00    -0.232 NA
HETATM   20  C   UNL     1      42.141 -12.386  -1.150  1.00  0.00     0.085 A 
HETATM   21  C   UNL     1      42.425 -11.126  -0.635  1.00  0.00     0.062 A 
HETATM   22  C   UNL     1      42.218 -12.587  -2.536  1.00  0.00     0.034 A 
HETATM   23  N   UNL     1      42.261 -11.270   0.717  1.00  0.00    -0.341 N 
HETATM   24  C   UNL     1      42.787 -10.033  -1.425  1.00  0.00     0.032 A 
HETATM   25  H   UNL     1      42.387 -10.543   1.406  1.00  0.00     0.167 HD
HETATM   26  C   UNL     1      42.858 -10.253  -2.804  1.00  0.00     0.002 A 
HETATM   27  C   UNL     1      42.579 -11.507  -3.354  1.00  0.00     0.002 A 
ENDBRANCH  17  18
ENDBRANCH   2  17
TORSDOF 4
ENDMDL
MODEL 8
REMARK VINA RESULT:      -7.9      3.587      8.438
REMARK  4 active torsions:
REMARK  status: ('A' for Active; 'I' for Inactive)
REMARK    1  A    between atoms: C_3  and  C_4 
REMARK       I    between atoms: C_4  and  N_5 
REMARK    2  A    between atoms: N_5  and  C_6 
REMARK    3  A    between atoms: C_6  and  C_7 
REMARK    4  A    between atoms: C_23  and  O_24 
ROOT
HETATM    1  C   UNL     1      41.808 -16.183   5.409  1.00  0.00     0.276 C 
HETATM    2  N   UNL     1      43.132 -16.278   5.046  1.00  0.00    -0.348 N 
HETATM    3  O   UNL     1      41.381 -16.791   6.388  1.00  0.00    -0.265 OA
HETATM    4  H   UNL     1      43.484 -15.774   4.238  1.00  0.00     0.163 HD
ENDROOT
BRANCH   1   5
HETATM    5  C   UNL     1      40.989 -15.332   4.566  1.00  0.00     0.150 A 
HETATM    6  C   UNL     1      40.645 -13.989   4.674  1.00  0.00    -0.009 A 
HETATM    7  C   UNL     1      41.040 -13.017   5.728  1.00  0.00     0.052 C 
HETATM    8  C   UNL     1      39.818 -13.697   3.547  1.00  0.00     0.009 A 
HETATM    9  C   UNL     1      39.710 -14.878   2.830  1.00  0.00     0.087 A 
HETATM   10  C   UNL     1      39.153 -12.557   3.060  1.00  0.00     0.051 A 
HETATM   11  O   UNL     1      40.412 -15.870   3.440  1.00  0.00    -0.304 OA
HETATM   12  C   UNL     1      38.977 -15.007   1.652  1.00  0.00     0.041 A 
HETATM   13  C   UNL     1      38.322 -13.857   1.185  1.00  0.00     0.039 A 
HETATM   14  C   UNL     1      38.405 -12.644   1.876  1.00  0.00     0.069 A 
BRANCH  14  15
HETATM   15  O   UNL     1      37.807 -11.467   1.508  1.00  0.00    -0.356 OA
HETATM   16  C   UNL     1      36.667 -11.553   0.665  1.00  0.00     0.210 C 
ENDBRANCH  14  15
ENDBRANCH   1   5
BRANCH   2  17
HETATM   17  C   UNL     1      44.030 -17.100   5.811  1.00  0.00     0.201 C 
BRANCH  17  18
HETATM   18  C   UNL     1      44.189 -18.439   5.183  1.00  0.00     0.123 A 
HETATM   19  N   UNL     1      44.566 -19.571   5.748  1.00  0.00    -0.232 NA
HETATM   20  C   UNL     1      44.550 -20.508   4.740  1.00  0.00     0.085 A 
HETATM   21  C   UNL     1      44.156 -19.938   3.536  1.00  0.00     0.062 A 
HETATM   22  C   UNL     1      44.861 -21.876   4.775  1.00  0.00     0.034 A 
HETATM   23  N   UNL     1      43.933 -18.622   3.844  1.00  0.00    -0.341 N 
HETATM   24  C   UNL     1      44.048 -20.653   2.342  1.00  0.00     0.032 A 
HETATM   25  H   UNL     1      43.630 -17.909   3.197  1.00  0.00     0.167 HD
HETATM   26  C   UNL     1      44.362 -22.015   2.396  1.00  0.00     0.002 A 
HETATM   27  C   UNL     1      44.762 -22.619   3.591  1.00  0.00     0.002 A 
ENDBRANCH  17  18
ENDBRANCH   2  17
TORSDOF 4
ENDMDL
MODEL 9
REMARK VINA RESULT:      -7.9      3.175      8.656
REMARK  4 active torsions:
REMARK  status: ('A' for Active; 'I' for Inactive)
REMARK    1  A    between atoms: C_3  and  C_4 
REMARK       I    between atoms: C_4  and  N_5 
REMARK    2  A    between atoms: N_5  and  C_6 
REMARK    3  A    between atoms: C_6  and  C_7 
REMARK    4  A    between atoms: C_23  and  O_24 
ROOT
HETATM    1  C   UNL     1      41.662 -14.474   1.921  1.00  0.00     0.276 C 
HETATM    2  N   UNL     1      42.813 -14.892   2.549  1.00  0.00    -0.348 N 
HETATM    3  O   UNL     1      40.560 -14.691   2.422  1.00  0.00    -0.265 OA
HETATM    4  H   UNL     1      43.722 -14.712   2.134  1.00  0.00     0.163 HD
ENDROOT
BRANCH   1   5
HETATM    5  C   UNL     1      41.853 -13.780   0.661  1.00  0.00     0.150 A 
HETATM    6  C   UNL     1      41.639 -14.185  -0.652  1.00  0.00    -0.009 A 
HETATM    7  C   UNL     1      41.135 -15.494  -1.144  1.00  0.00     0.052 C 
HETATM    8  C   UNL     1      41.998 -13.073  -1.475  1.00  0.00     0.009 A 
HETATM    9  C   UNL     1      42.410 -12.070  -0.612  1.00  0.00     0.087 A 
HETATM   10  C   UNL     1      42.016 -12.814  -2.858  1.00  0.00     0.051 A 
HETATM   11  O   UNL     1      42.326 -12.490   0.678  1.00  0.00    -0.304 OA
HETATM   12  C   UNL     1      42.844 -10.815  -1.032  1.00  0.00     0.041 A 
HETATM   13  C   UNL     1      42.853 -10.579  -2.416  1.00  0.00     0.039 A 
HETATM   14  C   UNL     1      42.446 -11.562  -3.323  1.00  0.00     0.069 A 
BRANCH  14  15
HETATM   15  O   UNL     1      42.416 -11.435  -4.686  1.00  0.00    -0.356 OA
HETATM   16  C   UNL     1      42.422 -10.117  -5.217  1.00  0.00     0.210 C 
ENDBRANCH  14  15
ENDBRANCH   1   5
BRANCH   2  17
HETATM   17  C   UNL     1      42.735 -15.595   3.800  1.00  0.00     0.201 C 
BRANCH  17  18
HETATM   18  C   UNL     1      43.180 -17.006   3.645  1.00  0.00     0.123 A 
HETATM   19  N   UNL     1      43.839 -17.759   4.507  1.00  0.00    -0.232 NA
HETATM   20  C   UNL     1      44.002 -18.975   3.884  1.00  0.00     0.085 A 
HETATM   21  C   UNL     1      43.432 -18.965   2.616  1.00  0.00     0.062 A 
HETATM   22  C   UNL     1      44.628 -20.145   4.338  1.00  0.00     0.034 A 
HETATM   23  N   UNL     1      42.917 -17.703   2.489  1.00  0.00    -0.341 N 
HETATM   24  C   UNL     1      43.445 -20.065   1.756  1.00  0.00     0.032 A 
HETATM   25  H   UNL     1      42.426 -17.346   1.682  1.00  0.00     0.167 HD
HETATM   26  C   UNL     1      44.074 -21.222   2.226  1.00  0.00     0.002 A 
HETATM   27  C   UNL     1      44.657 -21.264   3.496  1.00  0.00     0.002 A 
ENDBRANCH  17  18
ENDBRANCH   2  17
TORSDOF 4
ENDMDL
MODEL 10
REMARK VINA RESULT:      -7.8      7.609     10.347
REMARK  4 active torsions:
REMARK  status: ('A' for Active; 'I' for Inactive)
REMARK    1  A    between atoms: C_3  and  C_4 
REMARK       I    between atoms: C_4  and  N_5 
REMARK    2  A    between atoms: N_5  and  C_6 
REMARK    3  A    between atoms: C_6  and  C_7 
REMARK    4  A    between atoms: C_23  and  O_24 
ROOT
HETATM    1  C   UNL     1      44.432 -11.764   8.929  1.00  0.00     0.276 C 
HETATM    2  N   UNL     1      43.997 -12.881   8.253  1.00  0.00    -0.348 N 
HETATM    3  O   UNL     1      45.608 -11.411   8.863  1.00  0.00    -0.265 OA
HETATM    4  H   UNL     1      43.025 -13.171   8.308  1.00  0.00     0.163 HD
ENDROOT
BRANCH   1   5
HETATM    5  C   UNL     1      43.420 -11.063   9.698  1.00  0.00     0.150 A 
HETATM    6  C   UNL     1      43.043 -11.171  11.032  1.00  0.00    -0.009 A 
HETATM    7  C   UNL     1      43.596 -12.071  12.078  1.00  0.00     0.052 C 
HETATM    8  C   UNL     1      41.993 -10.222  11.226  1.00  0.00     0.009 A 
HETATM    9  C   UNL     1      41.798  -9.603  10.001  1.00  0.00     0.087 A 
HETATM   10  C   UNL     1      41.190  -9.823  12.311  1.00  0.00     0.051 A 
HETATM   11  O   UNL     1      42.655 -10.108   9.074  1.00  0.00    -0.304 OA
HETATM   12  C   UNL     1      40.850  -8.608   9.776  1.00  0.00     0.041 A 
HETATM   13  C   UNL     1      40.060  -8.226  10.873  1.00  0.00     0.039 A 
HETATM   14  C   UNL     1      40.224  -8.822  12.127  1.00  0.00     0.069 A 
BRANCH  14  15
HETATM   15  O   UNL     1      39.510  -8.525  13.257  1.00  0.00    -0.356 OA
HETATM   16  C   UNL     1      38.347  -7.724  13.099  1.00  0.00     0.210 C 
ENDBRANCH  14  15
ENDBRANCH   1   5
BRANCH   2  17
HETATM   17  C   UNL     1      44.920 -13.651   7.466  1.00  0.00     0.201 C 
BRANCH  17  18
HETATM   18  C   UNL     1      44.230 -14.787   6.798  1.00  0.00     0.123 A 
HETATM   19  N   UNL     1      44.664 -16.020   6.616  1.00  0.00    -0.232 NA
HETATM   20  C   UNL     1      43.652 -16.673   5.950  1.00  0.00     0.085 A 
HETATM   21  C   UNL     1      42.578 -15.822   5.720  1.00  0.00     0.062 A 
HETATM   22  C   UNL     1      43.575 -18.001   5.505  1.00  0.00     0.034 A 
HETATM   23  N   UNL     1      42.970 -14.629   6.268  1.00  0.00    -0.341 N 
HETATM   24  C   UNL     1      41.409 -16.214   5.065  1.00  0.00     0.032 A 
HETATM   25  H   UNL     1      42.425 -13.780   6.281  1.00  0.00     0.167 HD
HETATM   26  C   UNL     1      41.350 -17.541   4.628  1.00  0.00     0.002 A 
HETATM   27  C   UNL     1      42.413 -18.423   4.844  1.00  0.00     0.002 A 
ENDBRANCH  17  18
ENDBRANCH   2  17
TORSDOF 4
ENDMDL
