MODEL 1
REMARK VINA RESULT:      -7.9      0.000      0.000
REMARK  3 active torsions:
REMARK  status: ('A' for Active; 'I' for Inactive)
REMARK    1  A    between atoms: C_2  and  C_3 
REMARK    2  A    between atoms: C_9  and  C_10 
REMARK    3  A    between atoms: C_21  and  N_22 
ROOT
HETATM    1  C   UNL     1      43.698 -16.419   7.411  1.00  0.00     0.066 A 
HETATM    2  N   UNL     1      43.586 -16.714   8.717  1.00  0.00    -0.177 NA
HETATM    3  N   UNL     1      43.738 -18.049   8.776  1.00  0.00    -0.256 N 
HETATM    4  H   UNL     1      43.700 -18.509   9.680  1.00  0.00     0.191 HD
HETATM    5  C   UNL     1      43.932 -18.608   7.556  1.00  0.00     0.175 A 
HETATM    6  C   UNL     1      43.910 -17.589   6.636  1.00  0.00     0.035 A 
HETATM    7  C   UNL     1      44.135 -17.896   5.194  1.00  0.00     0.104 A 
HETATM    8  C   UNL     1      44.252 -19.406   4.985  1.00  0.00     0.067 A 
HETATM    9  C   UNL     1      44.317 -19.895   3.548  1.00  0.00     0.020 C 
HETATM   10  N   UNL     1      44.370 -20.301   2.355  1.00  0.00    -0.096 N 
HETATM   11  C   UNL     1      44.244 -20.308   6.003  1.00  0.00     0.139 A 
HETATM   12  O   UNL     1      44.108 -19.908   7.343  1.00  0.00    -0.279 OA
ENDROOT
BRANCH   7  13
HETATM   13  C   UNL     1      42.983 -17.269   4.421  1.00  0.00    -0.043 A 
HETATM   14  C   UNL     1      43.239 -16.178   3.569  1.00  0.00     0.033 A 
HETATM   15  C   UNL     1      42.211 -15.585   2.825  1.00  0.00     0.056 A 
HETATM   16 CL   UNL     1      42.622 -14.242   1.821  1.00  0.00    -0.083 Cl
HETATM   17  C   UNL     1      40.910 -16.084   2.916  1.00  0.00     0.055 A 
HETATM   18 CL   UNL     1      39.591 -15.405   2.031  1.00  0.00    -0.083 Cl
HETATM   19  C   UNL     1      40.642 -17.173   3.750  1.00  0.00     0.026 A 
HETATM   20  C   UNL     1      41.669 -17.762   4.494  1.00  0.00     0.010 A 
ENDBRANCH   7  13
BRANCH  11  21
HETATM   21  N   UNL     1      44.341 -21.673   5.863  1.00  0.00    -0.282 NA
HETATM   22  H   UNL     1      45.280 -22.061   5.885  1.00  0.00     0.126 HD
HETATM   23  H   UNL     1      43.780 -22.024   5.090  1.00  0.00     0.126 HD
ENDBRANCH  11  21
BRANCH   1  24
HETATM   24  C   UNL     1      43.591 -14.995   6.972  1.00  0.00     0.057 C 
HETATM   25  C   UNL     1      44.940 -14.295   6.939  1.00  0.00     0.011 C 
ENDBRANCH   1  24
TORSDOF 3
ENDMDL
MODEL 2
REMARK VINA RESULT:      -7.5      3.909      6.082
REMARK  3 active torsions:
REMARK  status: ('A' for Active; 'I' for Inactive)
REMARK    1  A    between atoms: C_2  and  C_3 
REMARK    2  A    between atoms: C_9  and  C_10 
REMARK    3  A    between atoms: C_21  and  N_22 
ROOT
HETATM    1  C   UNL     1      41.123 -16.583   2.499  1.00  0.00     0.066 A 
HETATM    2  N   UNL     1      39.900 -16.169   2.125  1.00  0.00    -0.177 NA
HETATM    3  N   UNL     1      39.663 -15.086   2.886  1.00  0.00    -0.256 N 
HETATM    4  H   UNL     1      38.786 -14.588   2.773  1.00  0.00     0.191 HD
HETATM    5  C   UNL     1      40.685 -14.808   3.734  1.00  0.00     0.175 A 
HETATM    6  C   UNL     1      41.655 -15.756   3.522  1.00  0.00     0.035 A 
HETATM    7  C   UNL     1      42.931 -15.687   4.292  1.00  0.00     0.104 A 
HETATM    8  C   UNL     1      42.868 -14.555   5.319  1.00  0.00     0.067 A 
HETATM    9  C   UNL     1      44.025 -14.458   6.300  1.00  0.00     0.020 C 
HETATM   10  N   UNL     1      44.985 -14.377   7.114  1.00  0.00    -0.096 N 
HETATM   11  C   UNL     1      41.822 -13.693   5.424  1.00  0.00     0.139 A 
HETATM   12  O   UNL     1      40.696 -13.793   4.590  1.00  0.00    -0.279 OA
ENDROOT
BRANCH   7  13
HETATM   13  C   UNL     1      43.145 -17.058   4.919  1.00  0.00    -0.043 A 
HETATM   14  C   UNL     1      44.031 -17.963   4.305  1.00  0.00     0.033 A 
HETATM   15  C   UNL     1      44.273 -19.226   4.860  1.00  0.00     0.056 A 
HETATM   16 CL   UNL     1      45.365 -20.271   4.024  1.00  0.00    -0.083 Cl
HETATM   17  C   UNL     1      43.637 -19.598   6.046  1.00  0.00     0.055 A 
HETATM   18 CL   UNL     1      43.883 -21.138   6.788  1.00  0.00    -0.083 Cl
HETATM   19  C   UNL     1      42.762 -18.706   6.671  1.00  0.00     0.026 A 
HETATM   20  C   UNL     1      42.519 -17.447   6.115  1.00  0.00     0.010 A 
ENDBRANCH   7  13
BRANCH  11  21
HETATM   21  N   UNL     1      41.721 -12.666   6.334  1.00  0.00    -0.282 NA
HETATM   22  H   UNL     1      42.478 -12.586   7.008  1.00  0.00     0.126 HD
HETATM   23  H   UNL     1      40.799 -12.616   6.760  1.00  0.00     0.126 HD
ENDBRANCH  11  21
BRANCH   1  24
HETATM   24  C   UNL     1      41.723 -17.780   1.836  1.00  0.00     0.057 C 
HETATM   25  C   UNL     1      42.886 -17.419   0.928  1.00  0.00     0.011 C 
ENDBRANCH   1  24
TORSDOF 3
ENDMDL
MODEL 3
REMARK VINA RESULT:      -7.4      1.683      4.436
REMARK  3 active torsions:
REMARK  status: ('A' for Active; 'I' for Inactive)
REMARK    1  A    between atoms: C_2  and  C_3 
REMARK    2  A    between atoms: C_9  and  C_10 
REMARK    3  A    between atoms: C_21  and  N_22 
ROOT
HETATM    1  C   UNL     1      44.016 -20.021   3.349  1.00  0.00     0.066 A 
HETATM    2  N   UNL     1      45.186 -20.583   3.698  1.00  0.00    -0.177 NA
HETATM    3  N   UNL     1      45.439 -20.099   4.928  1.00  0.00    -0.256 N 
HETATM    4  H   UNL     1      46.282 -20.395   5.408  1.00  0.00     0.191 HD
HETATM    5  C   UNL     1      44.478 -19.247   5.362  1.00  0.00     0.175 A 
HETATM    6  C   UNL     1      43.534 -19.161   4.370  1.00  0.00     0.035 A 
HETATM    7  C   UNL     1      42.323 -18.315   4.578  1.00  0.00     0.104 A 
HETATM    8  C   UNL     1      42.420 -17.569   5.909  1.00  0.00     0.067 A 
HETATM    9  C   UNL     1      41.343 -16.536   6.194  1.00  0.00     0.020 C 
HETATM   10  N   UNL     1      40.449 -15.678   6.431  1.00  0.00    -0.096 N 
HETATM   11  C   UNL     1      43.434 -17.747   6.797  1.00  0.00     0.139 A 
HETATM   12  O   UNL     1      44.493 -18.635   6.542  1.00  0.00    -0.279 OA
ENDROOT
BRANCH   7  13
HETATM   13  C   UNL     1      42.217 -17.388   3.375  1.00  0.00    -0.043 A 
HETATM   14  C   UNL     1      40.954 -16.891   2.999  1.00  0.00     0.033 A 
HETATM   15  C   UNL     1      40.815 -16.019   1.912  1.00  0.00     0.056 A 
HETATM   16 CL   UNL     1      39.223 -15.477   1.520  1.00  0.00    -0.083 Cl
HETATM   17  C   UNL     1      41.943 -15.624   1.189  1.00  0.00     0.055 A 
HETATM   18 CL   UNL     1      41.850 -14.554  -0.164  1.00  0.00    -0.083 Cl
HETATM   19  C   UNL     1      43.203 -16.101   1.556  1.00  0.00     0.026 A 
HETATM   20  C   UNL     1      43.341 -16.974   2.640  1.00  0.00     0.010 A 
ENDBRANCH   7  13
BRANCH  11  21
HETATM   21  N   UNL     1      43.566 -17.096   8.002  1.00  0.00    -0.282 NA
HETATM   22  H   UNL     1      44.396 -16.518   8.113  1.00  0.00     0.126 HD
HETATM   23  H   UNL     1      43.397 -17.710   8.795  1.00  0.00     0.126 HD
ENDBRANCH  11  21
BRANCH   1  24
HETATM   24  C   UNL     1      43.415 -20.351   2.022  1.00  0.00     0.057 C 
HETATM   25  C   UNL     1      43.815 -21.733   1.532  1.00  0.00     0.011 C 
ENDBRANCH   1  24
TORSDOF 3
ENDMDL
MODEL 4
REMARK VINA RESULT:      -7.2      2.046      2.796
REMARK  3 active torsions:
REMARK  status: ('A' for Active; 'I' for Inactive)
REMARK    1  A    between atoms: C_2  and  C_3 
REMARK    2  A    between atoms: C_9  and  C_10 
REMARK    3  A    between atoms: C_21  and  N_22 
ROOT
HETATM    1  C   UNL     1      44.266 -19.111   6.752  1.00  0.00     0.066 A 
HETATM    2  N   UNL     1      44.268 -20.316   7.347  1.00  0.00    -0.177 NA
HETATM    3  N   UNL     1      44.216 -21.196   6.331  1.00  0.00    -0.256 N 
HETATM    4  H   UNL     1      44.216 -22.189   6.540  1.00  0.00     0.191 HD
HETATM    5  C   UNL     1      44.169 -20.590   5.118  1.00  0.00     0.175 A 
HETATM    6  C   UNL     1      44.196 -19.236   5.340  1.00  0.00     0.035 A 
HETATM    7  C   UNL     1      44.193 -18.301   4.178  1.00  0.00     0.104 A 
HETATM    8  C   UNL     1      44.046 -19.080   2.871  1.00  0.00     0.067 A 
HETATM    9  C   UNL     1      43.858 -18.262   1.604  1.00  0.00     0.020 C 
HETATM   10  N   UNL     1      43.701 -17.583   0.553  1.00  0.00    -0.096 N 
HETATM   11  C   UNL     1      44.020 -20.438   2.805  1.00  0.00     0.139 A 
HETATM   12  O   UNL     1      44.113 -21.236   3.958  1.00  0.00    -0.279 OA
ENDROOT
BRANCH   7  13
HETATM   13  C   UNL     1      43.067 -17.303   4.414  1.00  0.00    -0.043 A 
HETATM   14  C   UNL     1      43.365 -15.928   4.450  1.00  0.00     0.033 A 
HETATM   15  C   UNL     1      42.356 -14.975   4.644  1.00  0.00     0.056 A 
HETATM   16 CL   UNL     1      42.823 -13.313   4.688  1.00  0.00    -0.083 Cl
HETATM   17  C   UNL     1      41.030 -15.387   4.795  1.00  0.00     0.055 A 
HETATM   18 CL   UNL     1      39.733 -14.272   5.039  1.00  0.00    -0.083 Cl
HETATM   19  C   UNL     1      40.719 -16.749   4.751  1.00  0.00     0.026 A 
HETATM   20  C   UNL     1      41.727 -17.699   4.561  1.00  0.00     0.010 A 
ENDBRANCH   7  13
BRANCH  11  21
HETATM   21  N   UNL     1      43.884 -21.181   1.655  1.00  0.00    -0.282 NA
HETATM   22  H   UNL     1      43.045 -21.010   1.106  1.00  0.00     0.126 HD
HETATM   23  H   UNL     1      44.068 -22.170   1.808  1.00  0.00     0.126 HD
ENDBRANCH  11  21
BRANCH   1  24
HETATM   24  C   UNL     1      44.330 -17.880   7.595  1.00  0.00     0.057 C 
HETATM   25  C   UNL     1      42.952 -17.352   7.958  1.00  0.00     0.011 C 
ENDBRANCH   1  24
TORSDOF 3
ENDMDL
MODEL 5
REMARK VINA RESULT:      -7.2      1.570      2.015
REMARK  3 active torsions:
REMARK  status: ('A' for Active; 'I' for Inactive)
REMARK    1  A    between atoms: C_2  and  C_3 
REMARK    2  A    between atoms: C_9  and  C_10 
REMARK    3  A    between atoms: C_21  and  N_22 
ROOT
HETATM    1  C   UNL     1      43.812 -15.998   6.179  1.00  0.00     0.066 A 
HETATM    2  N   UNL     1      43.325 -15.755   7.407  1.00  0.00    -0.177 NA
HETATM    3  N   UNL     1      43.165 -16.973   7.955  1.00  0.00    -0.256 N 
HETATM    4  H   UNL     1      42.809 -17.042   8.903  1.00  0.00     0.191 HD
HETATM    5  C   UNL     1      43.523 -17.975   7.114  1.00  0.00     0.175 A 
HETATM    6  C   UNL     1      43.947 -17.392   5.946  1.00  0.00     0.035 A 
HETATM    7  C   UNL     1      44.444 -18.252   4.833  1.00  0.00     0.104 A 
HETATM    8  C   UNL     1      44.278 -19.729   5.191  1.00  0.00     0.067 A 
HETATM    9  C   UNL     1      44.582 -20.736   4.094  1.00  0.00     0.020 C 
HETATM   10  N   UNL     1      44.834 -21.572   3.184  1.00  0.00    -0.096 N 
HETATM   11  C   UNL     1      43.826 -20.164   6.398  1.00  0.00     0.139 A 
HETATM   12  O   UNL     1      43.459 -19.267   7.415  1.00  0.00    -0.279 OA
ENDROOT
BRANCH   7  13
HETATM   13  C   UNL     1      43.678 -17.845   3.582  1.00  0.00    -0.043 A 
HETATM   14  C   UNL     1      42.305 -17.549   3.683  1.00  0.00     0.033 A 
HETATM   15  C   UNL     1      41.568 -17.151   2.561  1.00  0.00     0.056 A 
HETATM   16 CL   UNL     1      39.886 -16.825   2.782  1.00  0.00    -0.083 Cl
HETATM   17  C   UNL     1      42.198 -17.033   1.320  1.00  0.00     0.055 A 
HETATM   18 CL   UNL     1      41.355 -16.550  -0.108  1.00  0.00    -0.083 Cl
HETATM   19  C   UNL     1      43.562 -17.314   1.207  1.00  0.00     0.026 A 
HETATM   20  C   UNL     1      44.297 -17.714   2.327  1.00  0.00     0.010 A 
ENDBRANCH   7  13
BRANCH  11  21
HETATM   21  N   UNL     1      43.656 -21.480   6.761  1.00  0.00    -0.282 NA
HETATM   22  H   UNL     1      44.415 -22.113   6.525  1.00  0.00     0.126 HD
HETATM   23  H   UNL     1      42.740 -21.838   6.501  1.00  0.00     0.126 HD
ENDBRANCH  11  21
BRANCH   1  24
HETATM   24  C   UNL     1      44.127 -14.850   5.277  1.00  0.00     0.057 C 
HETATM   25  C   UNL     1      42.880 -14.101   4.834  1.00  0.00     0.011 C 
ENDBRANCH   1  24
TORSDOF 3
ENDMDL
MODEL 6
REMARK VINA RESULT:      -7.1      2.705      4.910
REMARK  3 active torsions:
REMARK  status: ('A' for Active; 'I' for Inactive)
REMARK    1  A    between atoms: C_2  and  C_3 
REMARK    2  A    between atoms: C_9  and  C_10 
REMARK    3  A    between atoms: C_21  and  N_22 
ROOT
HETATM    1  C   UNL     1      41.030 -17.083   2.259  1.00  0.00     0.066 A 
HETATM    2  N   UNL     1      41.519 -17.694   1.166  1.00  0.00    -0.177 NA
HETATM    3  N   UNL     1      42.561 -18.415   1.619  1.00  0.00    -0.256 N 
HETATM    4  H   UNL     1      43.091 -18.978   0.962  1.00  0.00     0.191 HD
HETATM    5  C   UNL     1      42.753 -18.273   2.954  1.00  0.00     0.175 A 
HETATM    6  C   UNL     1      41.786 -17.415   3.414  1.00  0.00     0.035 A 
HETATM    7  C   UNL     1      41.720 -17.093   4.869  1.00  0.00     0.104 A 
HETATM    8  C   UNL     1      42.889 -17.744   5.609  1.00  0.00     0.067 A 
HETATM    9  C   UNL     1      43.062 -17.375   7.073  1.00  0.00     0.020 C 
HETATM   10  N   UNL     1      43.206 -17.069   8.288  1.00  0.00    -0.096 N 
HETATM   11  C   UNL     1      43.789 -18.571   5.012  1.00  0.00     0.139 A 
HETATM   12  O   UNL     1      43.715 -18.878   3.643  1.00  0.00    -0.279 OA
ENDROOT
BRANCH   7  13
HETATM   13  C   UNL     1      41.703 -15.575   4.987  1.00  0.00    -0.043 A 
HETATM   14  C   UNL     1      40.608 -14.947   5.610  1.00  0.00     0.033 A 
HETATM   15  C   UNL     1      40.562 -13.554   5.758  1.00  0.00     0.056 A 
HETATM   16 CL   UNL     1      39.169 -12.876   6.521  1.00  0.00    -0.083 Cl
HETATM   17  C   UNL     1      41.620 -12.770   5.292  1.00  0.00     0.055 A 
HETATM   18 CL   UNL     1      41.633 -11.049   5.437  1.00  0.00    -0.083 Cl
HETATM   19  C   UNL     1      42.717 -13.381   4.680  1.00  0.00     0.026 A 
HETATM   20  C   UNL     1      42.761 -14.770   4.530  1.00  0.00     0.010 A 
ENDBRANCH   7  13
BRANCH  11  21
HETATM   21  N   UNL     1      44.857 -19.173   5.635  1.00  0.00    -0.282 NA
HETATM   22  H   UNL     1      45.648 -19.412   5.041  1.00  0.00     0.126 HD
HETATM   23  H   UNL     1      44.570 -19.935   6.245  1.00  0.00     0.126 HD
ENDBRANCH  11  21
BRANCH   1  24
HETATM   24  C   UNL     1      39.837 -16.194   2.126  1.00  0.00     0.057 C 
HETATM   25  C   UNL     1      40.212 -14.776   1.730  1.00  0.00     0.011 C 
ENDBRANCH   1  24
TORSDOF 3
ENDMDL
MODEL 7
REMARK VINA RESULT:      -6.6      3.804      6.235
REMARK  3 active torsions:
REMARK  status: ('A' for Active; 'I' for Inactive)
REMARK    1  A    between atoms: C_2  and  C_3 
REMARK    2  A    between atoms: C_9  and  C_10 
REMARK    3  A    between atoms: C_21  and  N_22 
ROOT
HETATM    1  C   UNL     1      40.238 -14.706   0.410  1.00  0.00     0.066 A 
HETATM    2  N   UNL     1      40.666 -14.773  -0.862  1.00  0.00    -0.177 NA
HETATM    3  N   UNL     1      41.542 -15.794  -0.871  1.00  0.00    -0.256 N 
HETATM    4  H   UNL     1      41.998 -16.043  -1.743  1.00  0.00     0.191 HD
HETATM    5  C   UNL     1      41.692 -16.365   0.350  1.00  0.00     0.175 A 
HETATM    6  C   UNL     1      40.868 -15.691   1.216  1.00  0.00     0.035 A 
HETATM    7  C   UNL     1      40.788 -16.122   2.642  1.00  0.00     0.104 A 
HETATM    8  C   UNL     1      41.789 -17.247   2.911  1.00  0.00     0.067 A 
HETATM    9  C   UNL     1      41.952 -17.685   4.357  1.00  0.00     0.020 C 
HETATM   10  N   UNL     1      42.087 -18.049   5.557  1.00  0.00    -0.096 N 
HETATM   11  C   UNL     1      42.559 -17.815   1.944  1.00  0.00     0.139 A 
HETATM   12  O   UNL     1      42.498 -17.389   0.607  1.00  0.00    -0.279 OA
ENDROOT
BRANCH   7  13
HETATM   13  C   UNL     1      41.030 -14.884   3.494  1.00  0.00    -0.043 A 
HETATM   14  C   UNL     1      40.026 -14.454   4.382  1.00  0.00     0.033 A 
HETATM   15  C   UNL     1      40.216 -13.332   5.199  1.00  0.00     0.056 A 
HETATM   16 CL   UNL     1      38.919 -12.874   6.243  1.00  0.00    -0.083 Cl
HETATM   17  C   UNL     1      41.422 -12.629   5.146  1.00  0.00     0.055 A 
HETATM   18 CL   UNL     1      41.728 -11.237   6.121  1.00  0.00    -0.083 Cl
HETATM   19  C   UNL     1      42.431 -13.051   4.277  1.00  0.00     0.026 A 
HETATM   20  C   UNL     1      42.239 -14.168   3.460  1.00  0.00     0.010 A 
ENDBRANCH   7  13
BRANCH  11  21
HETATM   21  N   UNL     1      43.474 -18.823   2.141  1.00  0.00    -0.282 NA
HETATM   22  H   UNL     1      43.345 -19.392   2.974  1.00  0.00     0.126 HD
HETATM   23  H   UNL     1      44.432 -18.505   2.017  1.00  0.00     0.126 HD
ENDBRANCH  11  21
BRANCH   1  24
HETATM   24  C   UNL     1      39.227 -13.674   0.787  1.00  0.00     0.057 C 
HETATM   25  C   UNL     1      37.839 -14.263   0.976  1.00  0.00     0.011 C 
ENDBRANCH   1  24
TORSDOF 3
ENDMDL
MODEL 8
REMARK VINA RESULT:      -6.5      3.553      4.931
REMARK  3 active torsions:
REMARK  status: ('A' for Active; 'I' for Inactive)
REMARK    1  A    between atoms: C_2  and  C_3 
REMARK    2  A    between atoms: C_9  and  C_10 
REMARK    3  A    between atoms: C_21  and  N_22 
ROOT
HETATM    1  C   UNL     1      43.584 -17.265   5.190  1.00  0.00     0.066 A 
HETATM    2  N   UNL     1      43.629 -18.602   5.061  1.00  0.00    -0.177 NA
HETATM    3  N   UNL     1      43.328 -18.828   3.770  1.00  0.00    -0.256 N 
HETATM    4  H   UNL     1      43.308 -19.783   3.430  1.00  0.00     0.191 HD
HETATM    5  C   UNL     1      43.084 -17.684   3.083  1.00  0.00     0.175 A 
HETATM    6  C   UNL     1      43.235 -16.642   3.964  1.00  0.00     0.035 A 
HETATM    7  C   UNL     1      43.064 -15.241   3.482  1.00  0.00     0.104 A 
HETATM    8  C   UNL     1      42.619 -15.235   2.018  1.00  0.00     0.067 A 
HETATM    9  C   UNL     1      42.240 -13.888   1.425  1.00  0.00     0.020 C 
HETATM   10  N   UNL     1      41.924 -12.771   0.932  1.00  0.00    -0.096 N 
HETATM   11  C   UNL     1      42.499 -16.361   1.265  1.00  0.00     0.139 A 
HETATM   12  O   UNL     1      42.764 -17.635   1.794  1.00  0.00    -0.279 OA
ENDROOT
BRANCH   7  13
HETATM   13  C   UNL     1      42.068 -14.568   4.416  1.00  0.00    -0.043 A 
HETATM   14  C   UNL     1      42.474 -13.443   5.158  1.00  0.00     0.033 A 
HETATM   15  C   UNL     1      41.584 -12.781   6.014  1.00  0.00     0.056 A 
HETATM   16 CL   UNL     1      42.181 -11.420   6.893  1.00  0.00    -0.083 Cl
HETATM   17  C   UNL     1      40.267 -13.233   6.131  1.00  0.00     0.055 A 
HETATM   18 CL   UNL     1      39.114 -12.472   7.167  1.00  0.00    -0.083 Cl
HETATM   19  C   UNL     1      39.848 -14.343   5.394  1.00  0.00     0.026 A 
HETATM   20  C   UNL     1      40.738 -15.004   4.543  1.00  0.00     0.010 A 
ENDBRANCH   7  13
BRANCH  11  21
HETATM   21  N   UNL     1      42.098 -16.404  -0.050  1.00  0.00    -0.282 NA
HETATM   22  H   UNL     1      42.370 -15.613  -0.629  1.00  0.00     0.126 HD
HETATM   23  H   UNL     1      41.116 -16.653  -0.148  1.00  0.00     0.126 HD
ENDBRANCH  11  21
BRANCH   1  24
HETATM   24  C   UNL     1      43.886 -16.649   6.517  1.00  0.00     0.057 C 
HETATM   25  C   UNL     1      42.906 -17.083   7.594  1.00  0.00     0.011 C 
ENDBRANCH   1  24
TORSDOF 3
ENDMDL
MODEL 9
REMARK VINA RESULT:      -6.5      2.646      3.286
REMARK  3 active torsions:
REMARK  status: ('A' for Active; 'I' for Inactive)
REMARK    1  A    between atoms: C_2  and  C_3 
REMARK    2  A    between atoms: C_9  and  C_10 
REMARK    3  A    between atoms: C_21  and  N_22 
ROOT
HETATM    1  C   UNL     1      43.989 -16.384   6.647  1.00  0.00     0.066 A 
HETATM    2  N   UNL     1      44.238 -17.508   7.338  1.00  0.00    -0.177 NA
HETATM    3  N   UNL     1      44.074 -18.499   6.443  1.00  0.00    -0.256 N 
HETATM    4  H   UNL     1      44.221 -19.458   6.740  1.00  0.00     0.191 HD
HETATM    5  C   UNL     1      43.721 -18.042   5.216  1.00  0.00     0.175 A 
HETATM    6  C   UNL     1      43.649 -16.674   5.299  1.00  0.00     0.035 A 
HETATM    7  C   UNL     1      43.314 -15.880   4.082  1.00  0.00     0.104 A 
HETATM    8  C   UNL     1      42.989 -16.812   2.914  1.00  0.00     0.067 A 
HETATM    9  C   UNL     1      42.464 -16.161   1.645  1.00  0.00     0.020 C 
HETATM   10  N   UNL     1      42.028 -15.622   0.592  1.00  0.00    -0.096 N 
HETATM   11  C   UNL     1      43.092 -18.167   2.983  1.00  0.00     0.139 A 
HETATM   12  O   UNL     1      43.499 -18.817   4.160  1.00  0.00    -0.279 OA
ENDROOT
BRANCH   7  13
HETATM   13  C   UNL     1      42.161 -14.959   4.456  1.00  0.00    -0.043 A 
HETATM   14  C   UNL     1      42.320 -13.567   4.315  1.00  0.00     0.033 A 
HETATM   15  C   UNL     1      41.277 -12.685   4.628  1.00  0.00     0.056 A 
HETATM   16 CL   UNL     1      41.574 -10.995   4.437  1.00  0.00    -0.083 Cl
HETATM   17  C   UNL     1      40.054 -13.187   5.079  1.00  0.00     0.055 A 
HETATM   18 CL   UNL     1      38.724 -12.163   5.486  1.00  0.00    -0.083 Cl
HETATM   19  C   UNL     1      39.879 -14.566   5.214  1.00  0.00     0.026 A 
HETATM   20  C   UNL     1      40.921 -15.445   4.904  1.00  0.00     0.010 A 
ENDBRANCH   7  13
BRANCH  11  21
HETATM   21  N   UNL     1      42.806 -19.043   1.963  1.00  0.00    -0.282 NA
HETATM   22  H   UNL     1      43.341 -19.908   1.950  1.00  0.00     0.126 HD
HETATM   23  H   UNL     1      42.766 -18.583   1.056  1.00  0.00     0.126 HD
ENDBRANCH  11  21
BRANCH   1  24
HETATM   24  C   UNL     1      44.093 -15.063   7.337  1.00  0.00     0.057 C 
HETATM   25  C   UNL     1      45.151 -14.166   6.717  1.00  0.00     0.011 C 
ENDBRANCH   1  24
TORSDOF 3
ENDMDL
MODEL 10
REMARK VINA RESULT:      -6.5      3.427      5.742
REMARK  3 active torsions:
REMARK  status: ('A' for Active; 'I' for Inactive)
REMARK    1  A    between atoms: C_2  and  C_3 
REMARK    2  A    between atoms: C_9  and  C_10 
REMARK    3  A    between atoms: C_21  and  N_22 
ROOT
HETATM    1  C   UNL     1      44.390 -20.780   3.297  1.00  0.00     0.066 A 
HETATM    2  N   UNL     1      43.798 -21.787   2.632  1.00  0.00    -0.177 NA
HETATM    3  N   UNL     1      42.995 -21.178   1.741  1.00  0.00    -0.256 N 
HETATM    4  H   UNL     1      42.441 -21.747   1.110  1.00  0.00     0.191 HD
HETATM    5  C   UNL     1      43.051 -19.825   1.828  1.00  0.00     0.175 A 
HETATM    6  C   UNL     1      43.941 -19.519   2.826  1.00  0.00     0.035 A 
HETATM    7  C   UNL     1      44.242 -18.090   3.131  1.00  0.00     0.104 A 
HETATM    8  C   UNL     1      43.361 -17.172   2.283  1.00  0.00     0.067 A 
HETATM    9  C   UNL     1      43.426 -15.685   2.593  1.00  0.00     0.020 C 
HETATM   10  N   UNL     1      43.479 -14.452   2.851  1.00  0.00    -0.096 N 
HETATM   11  C   UNL     1      42.504 -17.623   1.329  1.00  0.00     0.139 A 
HETATM   12  O   UNL     1      42.354 -18.994   1.060  1.00  0.00    -0.279 OA
ENDROOT
BRANCH   7  13
HETATM   13  C   UNL     1      44.041 -17.904   4.628  1.00  0.00    -0.043 A 
HETATM   14  C   UNL     1      42.762 -17.571   5.113  1.00  0.00     0.033 A 
HETATM   15  C   UNL     1      42.528 -17.411   6.485  1.00  0.00     0.056 A 
HETATM   16 CL   UNL     1      40.929 -16.987   6.981  1.00  0.00    -0.083 Cl
HETATM   17  C   UNL     1      43.573 -17.591   7.394  1.00  0.00     0.055 A 
HETATM   18 CL   UNL     1      43.363 -17.409   9.099  1.00  0.00    -0.083 Cl
HETATM   19  C   UNL     1      44.846 -17.931   6.927  1.00  0.00     0.026 A 
HETATM   20  C   UNL     1      45.078 -18.088   5.558  1.00  0.00     0.010 A 
ENDBRANCH   7  13
BRANCH  11  21
HETATM   21  N   UNL     1      41.690 -16.836   0.547  1.00  0.00    -0.282 NA
HETATM   22  H   UNL     1      40.710 -17.104   0.507  1.00  0.00     0.126 HD
HETATM   23  H   UNL     1      42.093 -16.652  -0.369  1.00  0.00     0.126 HD
ENDBRANCH  11  21
BRANCH   1  24
HETATM   24  C   UNL     1      45.377 -21.097   4.373  1.00  0.00     0.057 C 
HETATM   25  C   UNL     1      44.779 -21.958   5.474  1.00  0.00     0.011 C 
ENDBRANCH   1  24
TORSDOF 3
ENDMDL
