MODEL 1
REMARK VINA RESULT:     -10.9      0.000      0.000
REMARK  6 active torsions:
REMARK  status: ('A' for Active; 'I' for Inactive)
REMARK    1  A    between atoms: C_2  and  N_3 
REMARK    2  A    between atoms: C_2  and  C_32 
REMARK       I    between atoms: N_3  and  C_4 
REMARK    3  A    between atoms: C_4  and  C_5 
REMARK    4  A    between atoms: C_6  and  N_7 
REMARK       I    between atoms: N_7  and  C_8 
REMARK    5  A    between atoms: C_8  and  C_9 
REMARK    6  A    between atoms: C_9  and  N_10 
ROOT
HETATM    1  N   UNL     1      42.145 -15.970   3.874  1.00  0.00    -0.325 N 
HETATM    2  C   UNL     1      40.816 -15.737   3.565  1.00  0.00     0.240 C 
HETATM    3  O   UNL     1      40.026 -15.089   4.247  1.00  0.00    -0.271 OA
HETATM    4  H   UNL     1      42.659 -16.635   3.284  1.00  0.00     0.169 HD
ENDROOT
BRANCH   1   5
HETATM    5  C   UNL     1      42.894 -15.408   4.942  1.00  0.00     0.050 A 
HETATM    6  C   UNL     1      43.582 -16.257   5.837  1.00  0.00     0.058 A 
HETATM    7  C   UNL     1      44.365 -15.723   6.876  1.00  0.00     0.019 A 
HETATM    8  C   UNL     1      44.453 -14.345   7.050  1.00  0.00     0.001 A 
HETATM    9  C   UNL     1      43.764 -13.499   6.186  1.00  0.00     0.002 A 
HETATM   10  C   UNL     1      42.996 -14.024   5.141  1.00  0.00     0.030 A 
BRANCH   6  11
HETATM   11  C   UNL     1      43.489 -17.734   5.696  1.00  0.00     0.254 C 
HETATM   12  N   UNL     1      44.677 -18.388   5.450  1.00  0.00    -0.349 N 
HETATM   13  H   UNL     1      45.536 -17.876   5.589  1.00  0.00     0.163 HD
HETATM   14  O   UNL     1      42.407 -18.290   5.844  1.00  0.00    -0.268 OA
BRANCH  12  15
HETATM   15  C   UNL     1      44.768 -19.839   5.494  1.00  0.00     0.114 C 
HETATM   16  C   UNL     1      43.836 -20.388   6.575  1.00  0.00     0.037 C 
BRANCH  15  17
HETATM   17  C   UNL     1      44.467 -20.426   4.125  1.00  0.00    -0.036 A 
HETATM   18  C   UNL     1      44.695 -21.791   3.890  1.00  0.00     0.009 A 
HETATM   19  C   UNL     1      44.399 -22.361   2.650  1.00  0.00     0.001 A 
HETATM   20  C   UNL     1      43.896 -21.572   1.620  1.00  0.00     0.000 A 
HETATM   21  C   UNL     1      43.688 -20.211   1.828  1.00  0.00     0.001 A 
HETATM   22  C   UNL     1      43.971 -19.640   3.071  1.00  0.00     0.009 A 
ENDBRANCH  15  17
ENDBRANCH  12  15
ENDBRANCH   6  11
ENDBRANCH   1   5
BRANCH   2  23
HETATM   23  C   UNL     1      40.349 -16.441   2.294  1.00  0.00     0.240 C 
BRANCH  23  24
HETATM   24  N   UNL     1      40.771 -15.671   1.147  1.00  0.00    -0.259 N 
HETATM   25  C   UNL     1      41.938 -15.872   0.483  1.00  0.00     0.326 A 
HETATM   26  O   UNL     1      42.790 -16.707   0.731  1.00  0.00    -0.247 OA
HETATM   27  N   UNL     1      42.032 -14.946  -0.525  1.00  0.00    -0.324 N 
HETATM   28  C   UNL     1      40.856 -14.105  -0.618  1.00  0.00     0.120 A 
HETATM   29  H   UNL     1      42.824 -14.928  -1.153  1.00  0.00     0.165 HD
HETATM   30  C   UNL     1      41.167 -12.614  -0.480  1.00  0.00     0.080 C 
HETATM   31  C   UNL     1      40.057 -14.395  -1.889  1.00  0.00     0.046 C 
HETATM   32  C   UNL     1      40.092 -14.609   0.618  1.00  0.00     0.257 A 
HETATM   33  C   UNL     1      41.661 -11.986  -1.763  1.00  0.00    -0.049 A 
HETATM   34  C   UNL     1      41.470 -12.608  -3.010  1.00  0.00    -0.052 A 
HETATM   35  C   UNL     1      42.265 -10.721  -1.707  1.00  0.00     0.007 A 
HETATM   36  C   UNL     1      40.835 -13.971  -3.133  1.00  0.00     0.042 C 
HETATM   37  C   UNL     1      41.930 -11.968  -4.173  1.00  0.00     0.007 A 
HETATM   38  C   UNL     1      42.541 -10.717  -4.103  1.00  0.00     0.001 A 
HETATM   39  C   UNL     1      42.705 -10.091  -2.871  1.00  0.00     0.001 A 
HETATM   40  O   UNL     1      39.048 -14.134   1.042  1.00  0.00    -0.270 OA
ENDBRANCH  23  24
ENDBRANCH   2  23
TORSDOF 6
ENDMDL
MODEL 2
REMARK VINA RESULT:     -10.5      2.458      8.682
REMARK  6 active torsions:
REMARK  status: ('A' for Active; 'I' for Inactive)
REMARK    1  A    between atoms: C_2  and  N_3 
REMARK    2  A    between atoms: C_2  and  C_32 
REMARK       I    between atoms: N_3  and  C_4 
REMARK    3  A    between atoms: C_4  and  C_5 
REMARK    4  A    between atoms: C_6  and  N_7 
REMARK       I    between atoms: N_7  and  C_8 
REMARK    5  A    between atoms: C_8  and  C_9 
REMARK    6  A    between atoms: C_9  and  N_10 
ROOT
HETATM    1  N   UNL     1      42.261 -11.756   1.202  1.00  0.00    -0.325 N 
HETATM    2  C   UNL     1      41.076 -11.735   1.919  1.00  0.00     0.240 C 
HETATM    3  O   UNL     1      40.044 -11.163   1.578  1.00  0.00    -0.271 OA
HETATM    4  H   UNL     1      43.085 -12.161   1.661  1.00  0.00     0.169 HD
ENDROOT
BRANCH   1   5
HETATM    5  C   UNL     1      42.485 -11.256  -0.108  1.00  0.00     0.050 A 
HETATM    6  C   UNL     1      41.832 -11.855  -1.207  1.00  0.00     0.058 A 
HETATM    7  C   UNL     1      42.004 -11.351  -2.508  1.00  0.00     0.019 A 
HETATM    8  C   UNL     1      42.845 -10.263  -2.733  1.00  0.00     0.001 A 
HETATM    9  C   UNL     1      43.509  -9.677  -1.660  1.00  0.00     0.002 A 
HETATM   10  C   UNL     1      43.329 -10.165  -0.362  1.00  0.00     0.030 A 
BRANCH   6  11
HETATM   11  C   UNL     1      40.948 -13.033  -1.007  1.00  0.00     0.254 C 
HETATM   12  N   UNL     1      39.595 -12.793  -1.121  1.00  0.00    -0.349 N 
HETATM   13  H   UNL     1      39.303 -11.917  -1.531  1.00  0.00     0.163 HD
HETATM   14  O   UNL     1      41.443 -14.134  -0.801  1.00  0.00    -0.268 OA
BRANCH  12  15
HETATM   15  C   UNL     1      38.631 -13.882  -1.154  1.00  0.00     0.114 C 
HETATM   16  C   UNL     1      37.796 -13.880   0.127  1.00  0.00     0.037 C 
BRANCH  15  17
HETATM   17  C   UNL     1      37.769 -13.783  -2.401  1.00  0.00    -0.036 A 
HETATM   18  C   UNL     1      37.215 -12.545  -2.765  1.00  0.00     0.009 A 
HETATM   19  C   UNL     1      36.444 -12.420  -3.922  1.00  0.00     0.001 A 
HETATM   20  C   UNL     1      36.193 -13.534  -4.719  1.00  0.00     0.000 A 
HETATM   21  C   UNL     1      36.713 -14.774  -4.359  1.00  0.00     0.001 A 
HETATM   22  C   UNL     1      37.496 -14.900  -3.209  1.00  0.00     0.009 A 
ENDBRANCH  15  17
ENDBRANCH  12  15
ENDBRANCH   6  11
ENDBRANCH   1   5
BRANCH   2  23
HETATM   23  C   UNL     1      41.164 -12.438   3.270  1.00  0.00     0.240 C 
BRANCH  23  24
HETATM   24  N   UNL     1      41.529 -13.820   3.059  1.00  0.00    -0.259 N 
HETATM   25  C   UNL     1      40.634 -14.831   2.923  1.00  0.00     0.326 A 
HETATM   26  O   UNL     1      39.419 -14.745   2.951  1.00  0.00    -0.247 OA
HETATM   27  N   UNL     1      41.323 -16.008   2.773  1.00  0.00    -0.324 N 
HETATM   28  C   UNL     1      42.758 -15.810   2.733  1.00  0.00     0.120 A 
HETATM   29  H   UNL     1      40.843 -16.888   2.643  1.00  0.00     0.165 HD
HETATM   30  C   UNL     1      43.506 -16.590   3.816  1.00  0.00     0.080 C 
HETATM   31  C   UNL     1      43.325 -16.097   1.343  1.00  0.00     0.046 C 
HETATM   32  C   UNL     1      42.808 -14.301   3.029  1.00  0.00     0.257 A 
HETATM   33  C   UNL     1      43.742 -18.038   3.452  1.00  0.00    -0.049 A 
HETATM   34  C   UNL     1      43.640 -18.492   2.125  1.00  0.00    -0.052 A 
HETATM   35  C   UNL     1      44.136 -18.932   4.460  1.00  0.00     0.007 A 
HETATM   36  C   UNL     1      43.212 -17.581   1.000  1.00  0.00     0.042 C 
HETATM   37  C   UNL     1      43.892 -19.844   1.842  1.00  0.00     0.007 A 
HETATM   38  C   UNL     1      44.270 -20.725   2.854  1.00  0.00     0.001 A 
HETATM   39  C   UNL     1      44.396 -20.269   4.162  1.00  0.00     0.001 A 
HETATM   40  O   UNL     1      43.830 -13.652   3.199  1.00  0.00    -0.270 OA
ENDBRANCH  23  24
ENDBRANCH   2  23
TORSDOF 6
ENDMDL
MODEL 3
REMARK VINA RESULT:     -10.4      2.552      7.807
REMARK  6 active torsions:
REMARK  status: ('A' for Active; 'I' for Inactive)
REMARK    1  A    between atoms: C_2  and  N_3 
REMARK    2  A    between atoms: C_2  and  C_32 
REMARK       I    between atoms: N_3  and  C_4 
REMARK    3  A    between atoms: C_4  and  C_5 
REMARK    4  A    between atoms: C_6  and  N_7 
REMARK       I    between atoms: N_7  and  C_8 
REMARK    5  A    between atoms: C_8  and  C_9 
REMARK    6  A    between atoms: C_9  and  N_10 
ROOT
HETATM    1  N   UNL     1      41.499 -11.075   4.039  1.00  0.00    -0.325 N 
HETATM    2  C   UNL     1      40.723 -11.708   4.994  1.00  0.00     0.240 C 
HETATM    3  O   UNL     1      39.511 -11.570   5.137  1.00  0.00    -0.271 OA
HETATM    4  H   UNL     1      42.518 -11.179   4.111  1.00  0.00     0.169 HD
ENDROOT
BRANCH   1   5
HETATM    5  C   UNL     1      41.051 -10.264   2.961  1.00  0.00     0.050 A 
HETATM    6  C   UNL     1      40.904 -10.829   1.676  1.00  0.00     0.058 A 
HETATM    7  C   UNL     1      40.421 -10.058   0.603  1.00  0.00     0.019 A 
HETATM    8  C   UNL     1      40.103  -8.716   0.792  1.00  0.00     0.001 A 
HETATM    9  C   UNL     1      40.263  -8.144   2.050  1.00  0.00     0.002 A 
HETATM   10  C   UNL     1      40.729  -8.910   3.124  1.00  0.00     0.030 A 
BRANCH   6  11
HETATM   11  C   UNL     1      41.258 -12.252   1.433  1.00  0.00     0.254 C 
HETATM   12  N   UNL     1      40.197 -13.130   1.366  1.00  0.00    -0.349 N 
HETATM   13  H   UNL     1      39.269 -12.744   1.274  1.00  0.00     0.163 HD
HETATM   14  O   UNL     1      42.430 -12.564   1.263  1.00  0.00    -0.268 OA
BRANCH  12  15
HETATM   15  C   UNL     1      40.378 -14.507   0.932  1.00  0.00     0.114 C 
HETATM   16  C   UNL     1      39.398 -15.421   1.670  1.00  0.00     0.037 C 
BRANCH  15  17
HETATM   17  C   UNL     1      40.231 -14.606  -0.577  1.00  0.00    -0.036 A 
HETATM   18  C   UNL     1      39.216 -13.882  -1.223  1.00  0.00     0.009 A 
HETATM   19  C   UNL     1      39.077 -13.932  -2.611  1.00  0.00     0.001 A 
HETATM   20  C   UNL     1      39.933 -14.724  -3.372  1.00  0.00     0.000 A 
HETATM   21  C   UNL     1      40.928 -15.468  -2.745  1.00  0.00     0.001 A 
HETATM   22  C   UNL     1      41.078 -15.410  -1.357  1.00  0.00     0.009 A 
ENDBRANCH  15  17
ENDBRANCH  12  15
ENDBRANCH   6  11
ENDBRANCH   1   5
BRANCH   2  23
HETATM   23  C   UNL     1      41.525 -12.574   5.961  1.00  0.00     0.240 C 
BRANCH  23  24
HETATM   24  N   UNL     1      41.820 -13.839   5.328  1.00  0.00    -0.259 N 
HETATM   25  C   UNL     1      40.888 -14.786   5.050  1.00  0.00     0.326 A 
HETATM   26  O   UNL     1      39.693 -14.728   5.275  1.00  0.00    -0.247 OA
HETATM   27  N   UNL     1      41.519 -15.865   4.484  1.00  0.00    -0.324 N 
HETATM   28  C   UNL     1      42.937 -15.643   4.293  1.00  0.00     0.120 A 
HETATM   29  H   UNL     1      41.002 -16.682   4.188  1.00  0.00     0.165 HD
HETATM   30  C   UNL     1      43.812 -16.680   5.000  1.00  0.00     0.080 C 
HETATM   31  C   UNL     1      43.293 -15.527   2.811  1.00  0.00     0.046 C 
HETATM   32  C   UNL     1      43.068 -14.274   4.982  1.00  0.00     0.257 A 
HETATM   33  C   UNL     1      43.956 -17.969   4.222  1.00  0.00    -0.049 A 
HETATM   34  C   UNL     1      43.654 -18.041   2.851  1.00  0.00    -0.052 A 
HETATM   35  C   UNL     1      44.466 -19.100   4.878  1.00  0.00     0.007 A 
HETATM   36  C   UNL     1      43.094 -16.861   2.094  1.00  0.00     0.042 C 
HETATM   37  C   UNL     1      43.827 -19.258   2.173  1.00  0.00     0.007 A 
HETATM   38  C   UNL     1      44.323 -20.379   2.839  1.00  0.00     0.001 A 
HETATM   39  C   UNL     1      44.646 -20.299   4.189  1.00  0.00     0.001 A 
HETATM   40  O   UNL     1      44.121 -13.682   5.175  1.00  0.00    -0.270 OA
ENDBRANCH  23  24
ENDBRANCH   2  23
TORSDOF 6
ENDMDL
MODEL 4
REMARK VINA RESULT:     -10.3      2.365      8.921
REMARK  6 active torsions:
REMARK  status: ('A' for Active; 'I' for Inactive)
REMARK    1  A    between atoms: C_2  and  N_3 
REMARK    2  A    between atoms: C_2  and  C_32 
REMARK       I    between atoms: N_3  and  C_4 
REMARK    3  A    between atoms: C_4  and  C_5 
REMARK    4  A    between atoms: C_6  and  N_7 
REMARK       I    between atoms: N_7  and  C_8 
REMARK    5  A    between atoms: C_8  and  C_9 
REMARK    6  A    between atoms: C_9  and  N_10 
ROOT
HETATM    1  N   UNL     1      41.646 -11.033   0.962  1.00  0.00    -0.325 N 
HETATM    2  C   UNL     1      41.784 -12.403   1.101  1.00  0.00     0.240 C 
HETATM    3  O   UNL     1      42.143 -13.179   0.219  1.00  0.00    -0.271 OA
HETATM    4  H   UNL     1      41.215 -10.519   1.739  1.00  0.00     0.169 HD
ENDROOT
BRANCH   1   5
HETATM    5  C   UNL     1      42.015 -10.237  -0.156  1.00  0.00     0.050 A 
HETATM    6  C   UNL     1      41.111 -10.074  -1.227  1.00  0.00     0.058 A 
HETATM    7  C   UNL     1      41.436  -9.257  -2.325  1.00  0.00     0.019 A 
HETATM    8  C   UNL     1      42.670  -8.614  -2.378  1.00  0.00     0.001 A 
HETATM    9  C   UNL     1      43.577  -8.783  -1.337  1.00  0.00     0.002 A 
HETATM   10  C   UNL     1      43.252  -9.583  -0.236  1.00  0.00     0.030 A 
BRANCH   6  11
HETATM   11  C   UNL     1      39.795 -10.766  -1.215  1.00  0.00     0.254 C 
HETATM   12  N   UNL     1      39.526 -11.561  -2.309  1.00  0.00    -0.349 N 
HETATM   13  H   UNL     1      40.291 -11.790  -2.926  1.00  0.00     0.163 HD
HETATM   14  O   UNL     1      39.053 -10.641  -0.248  1.00  0.00    -0.268 OA
BRANCH  12  15
HETATM   15  C   UNL     1      38.376 -12.452  -2.335  1.00  0.00     0.114 C 
HETATM   16  C   UNL     1      37.254 -11.833  -3.169  1.00  0.00     0.037 C 
BRANCH  15  17
HETATM   17  C   UNL     1      38.785 -13.822  -2.849  1.00  0.00    -0.036 A 
HETATM   18  C   UNL     1      40.069 -14.315  -2.565  1.00  0.00     0.009 A 
HETATM   19  C   UNL     1      40.460 -15.582  -3.000  1.00  0.00     0.001 A 
HETATM   20  C   UNL     1      39.584 -16.366  -3.747  1.00  0.00     0.000 A 
HETATM   21  C   UNL     1      38.317 -15.882  -4.060  1.00  0.00     0.001 A 
HETATM   22  C   UNL     1      37.918 -14.619  -3.614  1.00  0.00     0.009 A 
ENDBRANCH  15  17
ENDBRANCH  12  15
ENDBRANCH   6  11
ENDBRANCH   1   5
BRANCH   2  23
HETATM   23  C   UNL     1      41.363 -12.926   2.472  1.00  0.00     0.240 C 
BRANCH  23  24
HETATM   24  N   UNL     1      41.787 -14.301   2.602  1.00  0.00    -0.259 N 
HETATM   25  C   UNL     1      40.960 -15.369   2.472  1.00  0.00     0.326 A 
HETATM   26  O   UNL     1      39.766 -15.348   2.229  1.00  0.00    -0.247 OA
HETATM   27  N   UNL     1      41.685 -16.512   2.691  1.00  0.00    -0.324 N 
HETATM   28  C   UNL     1      43.091 -16.245   2.915  1.00  0.00     0.120 A 
HETATM   29  H   UNL     1      41.260 -17.427   2.630  1.00  0.00     0.165 HD
HETATM   30  C   UNL     1      43.601 -16.775   4.256  1.00  0.00     0.080 C 
HETATM   31  C   UNL     1      43.950 -16.741   1.753  1.00  0.00     0.046 C 
HETATM   32  C   UNL     1      43.051 -14.707   2.929  1.00  0.00     0.257 A 
HETATM   33  C   UNL     1      43.935 -18.250   4.226  1.00  0.00    -0.049 A 
HETATM   34  C   UNL     1      44.129 -18.938   3.015  1.00  0.00    -0.052 A 
HETATM   35  C   UNL     1      44.117 -18.926   5.442  1.00  0.00     0.007 A 
HETATM   36  C   UNL     1      43.939 -18.267   1.676  1.00  0.00     0.042 C 
HETATM   37  C   UNL     1      44.459 -20.302   3.047  1.00  0.00     0.007 A 
HETATM   38  C   UNL     1      44.625 -20.967   4.261  1.00  0.00     0.001 A 
HETATM   39  C   UNL     1      44.458 -20.278   5.459  1.00  0.00     0.001 A 
HETATM   40  O   UNL     1      44.001 -13.981   3.186  1.00  0.00    -0.270 OA
ENDBRANCH  23  24
ENDBRANCH   2  23
TORSDOF 6
ENDMDL
MODEL 5
REMARK VINA RESULT:     -10.2      3.473      9.825
REMARK  6 active torsions:
REMARK  status: ('A' for Active; 'I' for Inactive)
REMARK    1  A    between atoms: C_2  and  N_3 
REMARK    2  A    between atoms: C_2  and  C_32 
REMARK       I    between atoms: N_3  and  C_4 
REMARK    3  A    between atoms: C_4  and  C_5 
REMARK    4  A    between atoms: C_6  and  N_7 
REMARK       I    between atoms: N_7  and  C_8 
REMARK    5  A    between atoms: C_8  and  C_9 
REMARK    6  A    between atoms: C_9  and  N_10 
ROOT
HETATM    1  N   UNL     1      40.449 -14.286   0.804  1.00  0.00    -0.325 N 
HETATM    2  C   UNL     1      41.115 -13.258   1.448  1.00  0.00     0.240 C 
HETATM    3  O   UNL     1      41.612 -12.275   0.903  1.00  0.00    -0.271 OA
HETATM    4  H   UNL     1      40.196 -15.110   1.363  1.00  0.00     0.169 HD
ENDROOT
BRANCH   1   5
HETATM    5  C   UNL     1      40.083 -14.352  -0.567  1.00  0.00     0.050 A 
HETATM    6  C   UNL     1      38.797 -13.929  -0.968  1.00  0.00     0.058 A 
HETATM    7  C   UNL     1      38.426 -13.945  -2.325  1.00  0.00     0.019 A 
HETATM    8  C   UNL     1      39.319 -14.401  -3.290  1.00  0.00     0.001 A 
HETATM    9  C   UNL     1      40.582 -14.838  -2.904  1.00  0.00     0.002 A 
HETATM   10  C   UNL     1      40.961 -14.811  -1.558  1.00  0.00     0.030 A 
BRANCH   6  11
HETATM   11  C   UNL     1      37.809 -13.460   0.039  1.00  0.00     0.254 C 
HETATM   12  N   UNL     1      37.632 -12.095   0.113  1.00  0.00    -0.349 N 
HETATM   13  H   UNL     1      38.004 -11.529  -0.635  1.00  0.00     0.163 HD
HETATM   14  O   UNL     1      37.186 -14.279   0.704  1.00  0.00    -0.268 OA
BRANCH  12  15
HETATM   15  C   UNL     1      36.558 -11.511   0.901  1.00  0.00     0.114 C 
HETATM   16  C   UNL     1      37.098 -10.357   1.748  1.00  0.00     0.037 C 
BRANCH  15  17
HETATM   17  C   UNL     1      35.419 -11.074  -0.005  1.00  0.00    -0.036 A 
HETATM   18  C   UNL     1      35.640 -10.951  -1.386  1.00  0.00     0.009 A 
HETATM   19  C   UNL     1      34.604 -10.580  -2.245  1.00  0.00     0.001 A 
HETATM   20  C   UNL     1      33.338 -10.301  -1.735  1.00  0.00     0.000 A 
HETATM   21  C   UNL     1      33.109 -10.392  -0.364  1.00  0.00     0.001 A 
HETATM   22  C   UNL     1      34.141 -10.777   0.496  1.00  0.00     0.009 A 
ENDBRANCH  15  17
ENDBRANCH  12  15
ENDBRANCH   6  11
ENDBRANCH   1   5
BRANCH   2  23
HETATM   23  C   UNL     1      41.273 -13.474   2.951  1.00  0.00     0.240 C 
BRANCH  23  24
HETATM   24  N   UNL     1      41.983 -14.712   3.176  1.00  0.00    -0.259 N 
HETATM   25  C   UNL     1      43.334 -14.810   3.260  1.00  0.00     0.326 A 
HETATM   26  O   UNL     1      44.143 -13.904   3.167  1.00  0.00    -0.247 OA
HETATM   27  N   UNL     1      43.665 -16.129   3.442  1.00  0.00    -0.324 N 
HETATM   28  C   UNL     1      42.502 -16.983   3.560  1.00  0.00     0.120 A 
HETATM   29  H   UNL     1      44.628 -16.422   3.543  1.00  0.00     0.165 HD
HETATM   30  C   UNL     1      42.464 -18.101   2.516  1.00  0.00     0.080 C 
HETATM   31  C   UNL     1      42.352 -17.535   4.978  1.00  0.00     0.046 C 
HETATM   32  C   UNL     1      41.403 -15.946   3.273  1.00  0.00     0.257 A 
HETATM   33  C   UNL     1      43.319 -19.292   2.886  1.00  0.00    -0.049 A 
HETATM   34  C   UNL     1      43.763 -19.500   4.204  1.00  0.00    -0.052 A 
HETATM   35  C   UNL     1      43.618 -20.242   1.898  1.00  0.00     0.007 A 
HETATM   36  C   UNL     1      43.481 -18.510   5.308  1.00  0.00     0.042 C 
HETATM   37  C   UNL     1      44.536 -20.636   4.495  1.00  0.00     0.007 A 
HETATM   38  C   UNL     1      44.837 -21.566   3.502  1.00  0.00     0.001 A 
HETATM   39  C   UNL     1      44.374 -21.372   2.204  1.00  0.00     0.001 A 
HETATM   40  O   UNL     1      40.212 -16.197   3.161  1.00  0.00    -0.270 OA
ENDBRANCH  23  24
ENDBRANCH   2  23
TORSDOF 6
ENDMDL
MODEL 6
REMARK VINA RESULT:     -10.1      1.904      3.044
REMARK  6 active torsions:
REMARK  status: ('A' for Active; 'I' for Inactive)
REMARK    1  A    between atoms: C_2  and  N_3 
REMARK    2  A    between atoms: C_2  and  C_32 
REMARK       I    between atoms: N_3  and  C_4 
REMARK    3  A    between atoms: C_4  and  C_5 
REMARK    4  A    between atoms: C_6  and  N_7 
REMARK       I    between atoms: N_7  and  C_8 
REMARK    5  A    between atoms: C_8  and  C_9 
REMARK    6  A    between atoms: C_9  and  N_10 
ROOT
HETATM    1  N   UNL     1      41.590 -14.091   4.204  1.00  0.00    -0.325 N 
HETATM    2  C   UNL     1      41.780 -13.525   2.955  1.00  0.00     0.240 C 
HETATM    3  O   UNL     1      42.859 -13.166   2.489  1.00  0.00    -0.271 OA
HETATM    4  H   UNL     1      40.623 -14.227   4.520  1.00  0.00     0.169 HD
ENDROOT
BRANCH   1   5
HETATM    5  C   UNL     1      42.589 -14.495   5.129  1.00  0.00     0.050 A 
HETATM    6  C   UNL     1      43.085 -15.816   5.090  1.00  0.00     0.058 A 
HETATM    7  C   UNL     1      44.104 -16.228   5.967  1.00  0.00     0.019 A 
HETATM    8  C   UNL     1      44.622 -15.339   6.905  1.00  0.00     0.001 A 
HETATM    9  C   UNL     1      44.128 -14.040   6.966  1.00  0.00     0.002 A 
HETATM   10  C   UNL     1      43.124 -13.622   6.086  1.00  0.00     0.030 A 
BRANCH   6  11
HETATM   11  C   UNL     1      42.537 -16.799   4.118  1.00  0.00     0.254 C 
HETATM   12  N   UNL     1      43.383 -17.163   3.093  1.00  0.00    -0.349 N 
HETATM   13  H   UNL     1      44.359 -16.920   3.177  1.00  0.00     0.163 HD
HETATM   14  O   UNL     1      41.414 -17.259   4.289  1.00  0.00    -0.268 OA
BRANCH  12  15
HETATM   15  C   UNL     1      43.058 -18.260   2.194  1.00  0.00     0.114 C 
HETATM   16  C   UNL     1      43.529 -17.932   0.777  1.00  0.00     0.037 C 
BRANCH  15  17
HETATM   17  C   UNL     1      43.656 -19.558   2.712  1.00  0.00    -0.036 A 
HETATM   18  C   UNL     1      43.637 -20.703   1.901  1.00  0.00     0.009 A 
HETATM   19  C   UNL     1      44.205 -21.900   2.341  1.00  0.00     0.001 A 
HETATM   20  C   UNL     1      44.779 -21.978   3.607  1.00  0.00     0.000 A 
HETATM   21  C   UNL     1      44.784 -20.858   4.435  1.00  0.00     0.001 A 
HETATM   22  C   UNL     1      44.227 -19.655   3.992  1.00  0.00     0.009 A 
ENDBRANCH  15  17
ENDBRANCH  12  15
ENDBRANCH   6  11
ENDBRANCH   1   5
BRANCH   2  23
HETATM   23  C   UNL     1      40.484 -13.291   2.183  1.00  0.00     0.240 C 
BRANCH  23  24
HETATM   24  N   UNL     1      40.774 -12.511   1.002  1.00  0.00    -0.259 N 
HETATM   25  C   UNL     1      40.594 -11.169   0.913  1.00  0.00     0.326 A 
HETATM   26  O   UNL     1      40.178 -10.425   1.782  1.00  0.00    -0.247 OA
HETATM   27  N   UNL     1      40.934 -10.767  -0.354  1.00  0.00    -0.324 N 
HETATM   28  C   UNL     1      41.439 -11.855  -1.167  1.00  0.00     0.120 A 
HETATM   29  H   UNL     1      40.885  -9.795  -0.630  1.00  0.00     0.165 HD
HETATM   30  C   UNL     1      40.639 -12.069  -2.453  1.00  0.00     0.080 C 
HETATM   31  C   UNL     1      42.931 -11.696  -1.455  1.00  0.00     0.046 C 
HETATM   32  C   UNL     1      41.205 -13.021  -0.191  1.00  0.00     0.257 A 
HETATM   33  C   UNL     1      41.030 -11.120  -3.563  1.00  0.00    -0.049 A 
HETATM   34  C   UNL     1      42.244 -10.411  -3.535  1.00  0.00    -0.052 A 
HETATM   35  C   UNL     1      40.185 -10.999  -4.677  1.00  0.00     0.007 A 
HETATM   36  C   UNL     1      43.189 -10.493  -2.361  1.00  0.00     0.042 C 
HETATM   37  C   UNL     1      42.566  -9.560  -4.604  1.00  0.00     0.007 A 
HETATM   38  C   UNL     1      41.712  -9.438  -5.699  1.00  0.00     0.001 A 
HETATM   39  C   UNL     1      40.524 -10.160  -5.738  1.00  0.00     0.001 A 
HETATM   40  O   UNL     1      41.386 -14.202  -0.451  1.00  0.00    -0.270 OA
ENDBRANCH  23  24
ENDBRANCH   2  23
TORSDOF 6
ENDMDL
MODEL 7
REMARK VINA RESULT:     -10.1      3.595     10.068
REMARK  6 active torsions:
REMARK  status: ('A' for Active; 'I' for Inactive)
REMARK    1  A    between atoms: C_2  and  N_3 
REMARK    2  A    between atoms: C_2  and  C_32 
REMARK       I    between atoms: N_3  and  C_4 
REMARK    3  A    between atoms: C_4  and  C_5 
REMARK    4  A    between atoms: C_6  and  N_7 
REMARK       I    between atoms: N_7  and  C_8 
REMARK    5  A    between atoms: C_8  and  C_9 
REMARK    6  A    between atoms: C_9  and  N_10 
ROOT
HETATM    1  N   UNL     1      40.327 -14.546   0.467  1.00  0.00    -0.325 N 
HETATM    2  C   UNL     1      41.290 -13.796   1.120  1.00  0.00     0.240 C 
HETATM    3  O   UNL     1      42.017 -12.954   0.599  1.00  0.00    -0.271 OA
HETATM    4  H   UNL     1      39.879 -15.305   0.994  1.00  0.00     0.169 HD
ENDROOT
BRANCH   1   5
HETATM    5  C   UNL     1      39.888 -14.405  -0.877  1.00  0.00     0.050 A 
HETATM    6  C   UNL     1      38.648 -13.787  -1.146  1.00  0.00     0.058 A 
HETATM    7  C   UNL     1      38.212 -13.597  -2.469  1.00  0.00     0.019 A 
HETATM    8  C   UNL     1      38.991 -14.039  -3.535  1.00  0.00     0.001 A 
HETATM    9  C   UNL     1      40.207 -14.667  -3.281  1.00  0.00     0.002 A 
HETATM   10  C   UNL     1      40.652 -14.845  -1.966  1.00  0.00     0.030 A 
BRANCH   6  11
HETATM   11  C   UNL     1      37.779 -13.325  -0.032  1.00  0.00     0.254 C 
HETATM   12  N   UNL     1      37.433 -11.990  -0.056  1.00  0.00    -0.349 N 
HETATM   13  H   UNL     1      37.603 -11.473  -0.906  1.00  0.00     0.163 HD
HETATM   14  O   UNL     1      37.384 -14.130   0.803  1.00  0.00    -0.268 OA
BRANCH  12  15
HETATM   15  C   UNL     1      36.429 -11.451   0.848  1.00  0.00     0.114 C 
HETATM   16  C   UNL     1      37.019 -10.292   1.654  1.00  0.00     0.037 C 
BRANCH  15  17
HETATM   17  C   UNL     1      35.191 -11.037   0.070  1.00  0.00    -0.036 A 
HETATM   18  C   UNL     1      34.021 -10.686   0.763  1.00  0.00     0.009 A 
HETATM   19  C   UNL     1      32.879 -10.274   0.074  1.00  0.00     0.001 A 
HETATM   20  C   UNL     1      32.880 -10.230  -1.318  1.00  0.00     0.000 A 
HETATM   21  C   UNL     1      34.023 -10.599  -2.021  1.00  0.00     0.001 A 
HETATM   22  C   UNL     1      35.172 -11.000  -1.334  1.00  0.00     0.009 A 
ENDBRANCH  15  17
ENDBRANCH  12  15
ENDBRANCH   6  11
ENDBRANCH   1   5
BRANCH   2  23
HETATM   23  C   UNL     1      41.455 -14.159   2.594  1.00  0.00     0.240 C 
BRANCH  23  24
HETATM   24  N   UNL     1      41.868 -15.540   2.695  1.00  0.00    -0.259 N 
HETATM   25  C   UNL     1      41.012 -16.593   2.681  1.00  0.00     0.326 A 
HETATM   26  O   UNL     1      39.799 -16.552   2.578  1.00  0.00    -0.247 OA
HETATM   27  N   UNL     1      41.739 -17.747   2.832  1.00  0.00    -0.324 N 
HETATM   28  C   UNL     1      43.166 -17.503   2.886  1.00  0.00     0.120 A 
HETATM   29  H   UNL     1      41.293 -18.655   2.835  1.00  0.00     0.165 HD
HETATM   30  C   UNL     1      43.819 -18.025   4.167  1.00  0.00     0.080 C 
HETATM   31  C   UNL     1      43.874 -18.032   1.639  1.00  0.00     0.046 C 
HETATM   32  C   UNL     1      43.154 -15.965   2.880  1.00  0.00     0.257 A 
HETATM   33  C   UNL     1      44.121 -19.506   4.121  1.00  0.00    -0.049 A 
HETATM   34  C   UNL     1      44.161 -20.214   2.907  1.00  0.00    -0.052 A 
HETATM   35  C   UNL     1      44.433 -20.169   5.318  1.00  0.00     0.007 A 
HETATM   36  C   UNL     1      43.827 -19.558   1.589  1.00  0.00     0.042 C 
HETATM   37  C   UNL     1      44.468 -21.584   2.922  1.00  0.00     0.007 A 
HETATM   38  C   UNL     1      44.763 -22.234   4.119  1.00  0.00     0.001 A 
HETATM   39  C   UNL     1      44.750 -21.526   5.317  1.00  0.00     0.001 A 
HETATM   40  O   UNL     1      44.140 -15.254   3.012  1.00  0.00    -0.270 OA
ENDBRANCH  23  24
ENDBRANCH   2  23
TORSDOF 6
ENDMDL
MODEL 8
REMARK VINA RESULT:     -10.0      3.070      8.065
REMARK  6 active torsions:
REMARK  status: ('A' for Active; 'I' for Inactive)
REMARK    1  A    between atoms: C_2  and  N_3 
REMARK    2  A    between atoms: C_2  and  C_32 
REMARK       I    between atoms: N_3  and  C_4 
REMARK    3  A    between atoms: C_4  and  C_5 
REMARK    4  A    between atoms: C_6  and  N_7 
REMARK       I    between atoms: N_7  and  C_8 
REMARK    5  A    between atoms: C_8  and  C_9 
REMARK    6  A    between atoms: C_9  and  N_10 
ROOT
HETATM    1  N   UNL     1      40.773 -12.251   3.101  1.00  0.00    -0.325 N 
HETATM    2  C   UNL     1      40.128 -13.210   2.339  1.00  0.00     0.240 C 
HETATM    3  O   UNL     1      38.934 -13.494   2.407  1.00  0.00    -0.271 OA
HETATM    4  H   UNL     1      41.796 -12.203   3.036  1.00  0.00     0.169 HD
ENDROOT
BRANCH   1   5
HETATM    5  C   UNL     1      40.182 -11.318   3.995  1.00  0.00     0.050 A 
HETATM    6  C   UNL     1      40.440 -11.418   5.380  1.00  0.00     0.058 A 
HETATM    7  C   UNL     1      39.902 -10.481   6.280  1.00  0.00     0.019 A 
HETATM    8  C   UNL     1      39.085  -9.453   5.817  1.00  0.00     0.001 A 
HETATM    9  C   UNL     1      38.809  -9.356   4.457  1.00  0.00     0.002 A 
HETATM   10  C   UNL     1      39.353 -10.277   3.555  1.00  0.00     0.030 A 
BRANCH   6  11
HETATM   11  C   UNL     1      41.286 -12.518   5.911  1.00  0.00     0.254 C 
HETATM   12  N   UNL     1      42.461 -12.129   6.520  1.00  0.00    -0.349 N 
HETATM   13  H   UNL     1      42.571 -11.154   6.754  1.00  0.00     0.163 HD
HETATM   14  O   UNL     1      40.897 -13.677   5.828  1.00  0.00    -0.268 OA
BRANCH  12  15
HETATM   15  C   UNL     1      43.280 -13.076   7.262  1.00  0.00     0.114 C 
HETATM   16  C   UNL     1      44.136 -13.896   6.295  1.00  0.00     0.037 C 
BRANCH  15  17
HETATM   17  C   UNL     1      44.121 -12.345   8.295  1.00  0.00    -0.036 A 
HETATM   18  C   UNL     1      43.523 -11.375   9.115  1.00  0.00     0.009 A 
HETATM   19  C   UNL     1      44.266 -10.710  10.092  1.00  0.00     0.001 A 
HETATM   20  C   UNL     1      45.621 -10.986  10.249  1.00  0.00     0.000 A 
HETATM   21  C   UNL     1      46.236 -11.928   9.428  1.00  0.00     0.001 A 
HETATM   22  C   UNL     1      45.492 -12.604   8.457  1.00  0.00     0.009 A 
ENDBRANCH  15  17
ENDBRANCH  12  15
ENDBRANCH   6  11
ENDBRANCH   1   5
BRANCH   2  23
HETATM   23  C   UNL     1      41.060 -13.991   1.417  1.00  0.00     0.240 C 
BRANCH  23  24
HETATM   24  N   UNL     1      41.731 -15.016   2.183  1.00  0.00    -0.259 N 
HETATM   25  C   UNL     1      42.914 -14.836   2.823  1.00  0.00     0.326 A 
HETATM   26  O   UNL     1      43.581 -13.818   2.862  1.00  0.00    -0.247 OA
HETATM   27  N   UNL     1      43.273 -16.020   3.417  1.00  0.00    -0.324 N 
HETATM   28  C   UNL     1      42.272 -17.053   3.247  1.00  0.00     0.120 A 
HETATM   29  H   UNL     1      44.122 -16.101   3.961  1.00  0.00     0.165 HD
HETATM   30  C   UNL     1      42.811 -18.309   2.558  1.00  0.00     0.080 C 
HETATM   31  C   UNL     1      41.583 -17.391   4.568  1.00  0.00     0.046 C 
HETATM   32  C   UNL     1      41.302 -16.307   2.315  1.00  0.00     0.257 A 
HETATM   33  C   UNL     1      43.543 -19.237   3.500  1.00  0.00    -0.049 A 
HETATM   34  C   UNL     1      43.392 -19.144   4.895  1.00  0.00    -0.052 A 
HETATM   35  C   UNL     1      44.341 -20.257   2.959  1.00  0.00     0.007 A 
HETATM   36  C   UNL     1      42.554 -18.064   5.536  1.00  0.00     0.042 C 
HETATM   37  C   UNL     1      44.079 -20.047   5.722  1.00  0.00     0.007 A 
HETATM   38  C   UNL     1      44.879 -21.048   5.172  1.00  0.00     0.001 A 
HETATM   39  C   UNL     1      45.007 -21.156   3.792  1.00  0.00     0.001 A 
HETATM   40  O   UNL     1      40.312 -16.798   1.792  1.00  0.00    -0.270 OA
ENDBRANCH  23  24
ENDBRANCH   2  23
TORSDOF 6
ENDMDL
MODEL 9
REMARK VINA RESULT:      -9.9      3.972      8.200
REMARK  6 active torsions:
REMARK  status: ('A' for Active; 'I' for Inactive)
REMARK    1  A    between atoms: C_2  and  N_3 
REMARK    2  A    between atoms: C_2  and  C_32 
REMARK       I    between atoms: N_3  and  C_4 
REMARK    3  A    between atoms: C_4  and  C_5 
REMARK    4  A    between atoms: C_6  and  N_7 
REMARK       I    between atoms: N_7  and  C_8 
REMARK    5  A    between atoms: C_8  and  C_9 
REMARK    6  A    between atoms: C_9  and  N_10 
ROOT
HETATM    1  N   UNL     1      39.453 -13.257   2.732  1.00  0.00    -0.325 N 
HETATM    2  C   UNL     1      39.654 -11.942   3.115  1.00  0.00     0.240 C 
HETATM    3  O   UNL     1      40.567 -11.216   2.728  1.00  0.00    -0.271 OA
HETATM    4  H   UNL     1      38.730 -13.790   3.228  1.00  0.00     0.169 HD
ENDROOT
BRANCH   1   5
HETATM    5  C   UNL     1      40.155 -13.982   1.731  1.00  0.00     0.050 A 
HETATM    6  C   UNL     1      41.233 -14.816   2.098  1.00  0.00     0.058 A 
HETATM    7  C   UNL     1      41.915 -15.576   1.132  1.00  0.00     0.019 A 
HETATM    8  C   UNL     1      41.548 -15.497  -0.209  1.00  0.00     0.001 A 
HETATM    9  C   UNL     1      40.500 -14.663  -0.585  1.00  0.00     0.002 A 
HETATM   10  C   UNL     1      39.808 -13.916   0.375  1.00  0.00     0.030 A 
BRANCH   6  11
HETATM   11  C   UNL     1      41.668 -14.905   3.517  1.00  0.00     0.254 C 
HETATM   12  N   UNL     1      41.254 -16.029   4.201  1.00  0.00    -0.349 N 
HETATM   13  H   UNL     1      40.879 -16.797   3.664  1.00  0.00     0.163 HD
HETATM   14  O   UNL     1      42.386 -14.031   3.987  1.00  0.00    -0.268 OA
BRANCH  12  15
HETATM   15  C   UNL     1      41.772 -16.346   5.523  1.00  0.00     0.114 C 
HETATM   16  C   UNL     1      40.641 -16.854   6.419  1.00  0.00     0.037 C 
BRANCH  15  17
HETATM   17  C   UNL     1      42.911 -17.345   5.414  1.00  0.00    -0.036 A 
HETATM   18  C   UNL     1      44.004 -17.249   6.290  1.00  0.00     0.009 A 
HETATM   19  C   UNL     1      45.050 -18.172   6.231  1.00  0.00     0.001 A 
HETATM   20  C   UNL     1      45.033 -19.189   5.280  1.00  0.00     0.000 A 
HETATM   21  C   UNL     1      43.970 -19.283   4.386  1.00  0.00     0.001 A 
HETATM   22  C   UNL     1      42.915 -18.369   4.452  1.00  0.00     0.009 A 
ENDBRANCH  15  17
ENDBRANCH  12  15
ENDBRANCH   6  11
ENDBRANCH   1   5
BRANCH   2  23
HETATM   23  C   UNL     1      38.663 -11.451   4.166  1.00  0.00     0.240 C 
BRANCH  23  24
HETATM   24  N   UNL     1      39.305 -11.463   5.461  1.00  0.00    -0.259 N 
HETATM   25  C   UNL     1      39.633 -12.594   6.137  1.00  0.00     0.326 A 
HETATM   26  O   UNL     1      39.452 -13.743   5.776  1.00  0.00    -0.247 OA
HETATM   27  N   UNL     1      40.190 -12.237   7.338  1.00  0.00    -0.324 N 
HETATM   28  C   UNL     1      40.323 -10.802   7.486  1.00  0.00     0.120 A 
HETATM   29  H   UNL     1      40.519 -12.932   7.995  1.00  0.00     0.165 HD
HETATM   30  C   UNL     1      39.599 -10.251   8.716  1.00  0.00     0.080 C 
HETATM   31  C   UNL     1      41.788 -10.368   7.457  1.00  0.00     0.046 C 
HETATM   32  C   UNL     1      39.609 -10.354   6.199  1.00  0.00     0.257 A 
HETATM   33  C   UNL     1      40.391 -10.409   9.994  1.00  0.00    -0.049 A 
HETATM   34  C   UNL     1      41.774 -10.663   9.979  1.00  0.00    -0.052 A 
HETATM   35  C   UNL     1      39.735 -10.232  11.221  1.00  0.00     0.007 A 
HETATM   36  C   UNL     1      42.534 -10.871   8.691  1.00  0.00     0.042 C 
HETATM   37  C   UNL     1      42.464 -10.778  11.197  1.00  0.00     0.007 A 
HETATM   38  C   UNL     1      41.797 -10.613  12.410  1.00  0.00     0.001 A 
HETATM   39  C   UNL     1      40.434 -10.336  12.423  1.00  0.00     0.001 A 
HETATM   40  O   UNL     1      39.366  -9.195   5.897  1.00  0.00    -0.270 OA
ENDBRANCH  23  24
ENDBRANCH   2  23
TORSDOF 6
ENDMDL
MODEL 10
REMARK VINA RESULT:      -9.8      2.747      9.256
REMARK  6 active torsions:
REMARK  status: ('A' for Active; 'I' for Inactive)
REMARK    1  A    between atoms: C_2  and  N_3 
REMARK    2  A    between atoms: C_2  and  C_32 
REMARK       I    between atoms: N_3  and  C_4 
REMARK    3  A    between atoms: C_4  and  C_5 
REMARK    4  A    between atoms: C_6  and  N_7 
REMARK       I    between atoms: N_7  and  C_8 
REMARK    5  A    between atoms: C_8  and  C_9 
REMARK    6  A    between atoms: C_9  and  N_10 
ROOT
HETATM    1  N   UNL     1      41.595 -13.749   0.514  1.00  0.00    -0.325 N 
HETATM    2  C   UNL     1      40.551 -13.560   1.403  1.00  0.00     0.240 C 
HETATM    3  O   UNL     1      39.451 -13.090   1.125  1.00  0.00    -0.271 OA
HETATM    4  H   UNL     1      42.503 -14.030   0.901  1.00  0.00     0.169 HD
ENDROOT
BRANCH   1   5
HETATM    5  C   UNL     1      41.569 -13.578  -0.896  1.00  0.00     0.050 A 
HETATM    6  C   UNL     1      41.793 -12.299  -1.450  1.00  0.00     0.058 A 
HETATM    7  C   UNL     1      41.815 -12.112  -2.843  1.00  0.00     0.019 A 
HETATM    8  C   UNL     1      41.592 -13.188  -3.698  1.00  0.00     0.001 A 
HETATM    9  C   UNL     1      41.352 -14.450  -3.164  1.00  0.00     0.002 A 
HETATM   10  C   UNL     1      41.343 -14.644  -1.778  1.00  0.00     0.030 A 
BRANCH   6  11
HETATM   11  C   UNL     1      42.009 -11.123  -0.566  1.00  0.00     0.254 C 
HETATM   12  N   UNL     1      40.878 -10.405  -0.237  1.00  0.00    -0.349 N 
HETATM   13  H   UNL     1      39.980 -10.824  -0.429  1.00  0.00     0.163 HD
HETATM   14  O   UNL     1      43.134 -10.878  -0.147  1.00  0.00    -0.268 OA
BRANCH  12  15
HETATM   15  C   UNL     1      40.910  -9.362   0.776  1.00  0.00     0.114 C 
HETATM   16  C   UNL     1      40.488  -8.025   0.165  1.00  0.00     0.037 C 
BRANCH  15  17
HETATM   17  C   UNL     1      40.039  -9.753   1.959  1.00  0.00    -0.036 A 
HETATM   18  C   UNL     1      40.642 -10.184   3.151  1.00  0.00     0.009 A 
HETATM   19  C   UNL     1      39.866 -10.521   4.262  1.00  0.00     0.001 A 
HETATM   20  C   UNL     1      38.477 -10.456   4.191  1.00  0.00     0.000 A 
HETATM   21  C   UNL     1      37.863 -10.055   3.008  1.00  0.00     0.001 A 
HETATM   22  C   UNL     1      38.637  -9.705   1.898  1.00  0.00     0.009 A 
ENDBRANCH  15  17
ENDBRANCH  12  15
ENDBRANCH   6  11
ENDBRANCH   1   5
BRANCH   2  23
HETATM   23  C   UNL     1      40.901 -13.918   2.845  1.00  0.00     0.240 C 
BRANCH  23  24
HETATM   24  N   UNL     1      41.451 -15.253   2.878  1.00  0.00    -0.259 N 
HETATM   25  C   UNL     1      40.729 -16.380   2.654  1.00  0.00     0.326 A 
HETATM   26  O   UNL     1      39.541 -16.451   2.392  1.00  0.00    -0.247 OA
HETATM   27  N   UNL     1      41.556 -17.465   2.799  1.00  0.00    -0.324 N 
HETATM   28  C   UNL     1      42.928 -17.086   3.068  1.00  0.00     0.120 A 
HETATM   29  H   UNL     1      41.218 -18.408   2.661  1.00  0.00     0.165 HD
HETATM   30  C   UNL     1      43.471 -17.669   4.373  1.00  0.00     0.080 C 
HETATM   31  C   UNL     1      43.842 -17.410   1.886  1.00  0.00     0.046 C 
HETATM   32  C   UNL     1      42.744 -15.564   3.197  1.00  0.00     0.257 A 
HETATM   33  C   UNL     1      43.942 -19.099   4.238  1.00  0.00    -0.049 A 
HETATM   34  C   UNL     1      44.212 -19.671   2.982  1.00  0.00    -0.052 A 
HETATM   35  C   UNL     1      44.173 -19.848   5.402  1.00  0.00     0.007 A 
HETATM   36  C   UNL     1      43.974 -18.920   1.694  1.00  0.00     0.042 C 
HETATM   37  C   UNL     1      44.668 -20.998   2.916  1.00  0.00     0.007 A 
HETATM   38  C   UNL     1      44.882 -21.735   4.080  1.00  0.00     0.001 A 
HETATM   39  C   UNL     1      44.640 -21.159   5.323  1.00  0.00     0.001 A 
HETATM   40  O   UNL     1      43.618 -14.776   3.524  1.00  0.00    -0.270 OA
ENDBRANCH  23  24
ENDBRANCH   2  23
TORSDOF 6
ENDMDL
