MODEL 1
REMARK VINA RESULT:      -8.3      0.000      0.000
REMARK  8 active torsions:
REMARK  status: ('A' for Active; 'I' for Inactive)
REMARK    1  A    between atoms: C_8  and  C_9 
REMARK       I    between atoms: C_9  and  N_10 
REMARK    2  A    between atoms: N_10  and  N_11 
REMARK    3  A    between atoms: N_11  and  C_12 
REMARK    4  A    between atoms: C_12  and  N_13 
REMARK    5  A    between atoms: N_13  and  C_14 
REMARK    6  A    between atoms: C_15  and  O_16 
REMARK    7  A    between atoms: C_19  and  O_20 
REMARK    8  A    between atoms: C_26  and  C_27 
ROOT
HETATM    1  C   UNL     1      42.284 -16.862   6.603  1.00  0.00     0.275 C 
HETATM    2  N   UNL     1      40.934 -16.973   6.330  1.00  0.00    -0.263 N 
HETATM    3  O   UNL     1      42.793 -15.820   7.011  1.00  0.00    -0.266 OA
HETATM    4  H   UNL     1      40.640 -17.705   5.684  1.00  0.00     0.190 HD
ENDROOT
BRANCH   2   5
HETATM    5  N   UNL     1      40.147 -15.805   6.323  1.00  0.00    -0.273 N 
HETATM    6  H   UNL     1      39.995 -15.396   7.247  1.00  0.00     0.189 HD
BRANCH   5   7
HETATM    7  C   UNL     1      40.180 -14.954   5.216  1.00  0.00     0.191 C 
HETATM    8  S   UNL     1      40.229 -13.282   5.372  1.00  0.00    -0.039 SA
BRANCH   7   9
HETATM    9  N   UNL     1      40.257 -15.693   4.048  1.00  0.00    -0.330 N 
HETATM   10  H   UNL     1      40.425 -16.686   4.184  1.00  0.00     0.168 HD
BRANCH   9  11
HETATM   11  C   UNL     1      40.460 -15.288   2.707  1.00  0.00     0.068 A 
HETATM   12  C   UNL     1      41.794 -15.134   2.275  1.00  0.00     0.097 A 
HETATM   13  C   UNL     1      42.065 -14.749   0.955  1.00  0.00     0.075 A 
HETATM   14  C   UNL     1      41.016 -14.529   0.060  1.00  0.00     0.070 A 
HETATM   15  C   UNL     1      39.701 -14.722   0.482  1.00  0.00     0.039 A 
HETATM   16  C   UNL     1      39.421 -15.105   1.795  1.00  0.00     0.035 A 
BRANCH  12  17
HETATM   17  O   UNL     1      42.751 -15.384   3.233  1.00  0.00    -0.354 OA
HETATM   18  C   UNL     1      43.600 -14.302   3.601  1.00  0.00     0.210 C 
ENDBRANCH  12  17
BRANCH  14  19
HETATM   19  O   UNL     1      41.139 -14.149  -1.249  1.00  0.00    -0.356 OA
HETATM   20  C   UNL     1      40.862 -15.135  -2.236  1.00  0.00     0.210 C 
ENDBRANCH  14  19
ENDBRANCH   9  11
ENDBRANCH   7   9
ENDBRANCH   5   7
ENDBRANCH   2   5
BRANCH   1  21
HETATM   21  C   UNL     1      43.052 -18.053   6.303  1.00  0.00     0.098 A 
HETATM   22  C   UNL     1      43.458 -18.556   5.080  1.00  0.00     0.138 A 
HETATM   23  N   UNL     1      43.257 -18.176   3.795  1.00  0.00    -0.370 N 
HETATM   24  N   UNL     1      44.185 -19.691   5.361  1.00  0.00    -0.240 N 
HETATM   25  C   UNL     1      44.080 -18.733   2.726  1.00  0.00     0.081 C 
HETATM   26  H   UNL     1      42.586 -17.456   3.524  1.00  0.00     0.161 HD
HETATM   27  C   UNL     1      43.426 -18.454   1.377  1.00  0.00     0.032 C 
HETATM   28  C   UNL     1      44.247 -20.235   2.961  1.00  0.00     0.061 C 
HETATM   29  C   UNL     1      44.847 -20.507   4.355  1.00  0.00     0.221 C 
HETATM   30  N   UNL     1      44.325 -19.927   6.674  1.00  0.00    -0.181 NA
HETATM   31  C   UNL     1      43.597 -18.962   7.241  1.00  0.00     0.160 A 
BRANCH  29  32
HETATM   32  C   UNL     1      44.759 -21.986   4.664  1.00  0.00     0.409 C 
HETATM   33  F   UNL     1      44.648 -22.744   3.550  1.00  0.00    -0.169 F 
HETATM   34  F   UNL     1      45.905 -22.385   5.286  1.00  0.00    -0.169 F 
HETATM   35  F   UNL     1      43.753 -22.307   5.504  1.00  0.00    -0.169 F 
ENDBRANCH  29  32
ENDBRANCH   1  21
TORSDOF 8
ENDMDL
MODEL 2
REMARK VINA RESULT:      -8.2      2.183      3.083
REMARK  8 active torsions:
REMARK  status: ('A' for Active; 'I' for Inactive)
REMARK    1  A    between atoms: C_8  and  C_9 
REMARK       I    between atoms: C_9  and  N_10 
REMARK    2  A    between atoms: N_10  and  N_11 
REMARK    3  A    between atoms: N_11  and  C_12 
REMARK    4  A    between atoms: C_12  and  N_13 
REMARK    5  A    between atoms: N_13  and  C_14 
REMARK    6  A    between atoms: C_15  and  O_16 
REMARK    7  A    between atoms: C_19  and  O_20 
REMARK    8  A    between atoms: C_26  and  C_27 
ROOT
HETATM    1  C   UNL     1      43.323 -17.540   6.677  1.00  0.00     0.275 C 
HETATM    2  N   UNL     1      44.074 -16.383   6.580  1.00  0.00    -0.263 N 
HETATM    3  O   UNL     1      42.419 -17.675   7.498  1.00  0.00    -0.266 OA
HETATM    4  H   UNL     1      44.998 -16.452   6.155  1.00  0.00     0.190 HD
ENDROOT
BRANCH   2   5
HETATM    5  N   UNL     1      43.939 -15.404   7.584  1.00  0.00    -0.273 N 
HETATM    6  H   UNL     1      44.239 -15.709   8.511  1.00  0.00     0.189 HD
BRANCH   5   7
HETATM    7  C   UNL     1      44.066 -14.053   7.254  1.00  0.00     0.191 C 
HETATM    8  S   UNL     1      45.486 -13.195   7.521  1.00  0.00    -0.039 SA
BRANCH   7   9
HETATM    9  N   UNL     1      42.919 -13.605   6.621  1.00  0.00    -0.330 N 
HETATM   10  H   UNL     1      42.151 -13.376   7.246  1.00  0.00     0.168 HD
BRANCH   9  11
HETATM   11  C   UNL     1      42.508 -13.704   5.270  1.00  0.00     0.068 A 
HETATM   12  C   UNL     1      41.121 -13.789   5.023  1.00  0.00     0.097 A 
HETATM   13  C   UNL     1      40.646 -13.874   3.707  1.00  0.00     0.075 A 
HETATM   14  C   UNL     1      41.542 -13.862   2.636  1.00  0.00     0.070 A 
HETATM   15  C   UNL     1      42.909 -13.736   2.885  1.00  0.00     0.039 A 
HETATM   16  C   UNL     1      43.392 -13.652   4.193  1.00  0.00     0.035 A 
BRANCH  12  17
HETATM   17  O   UNL     1      40.326 -13.784   6.148  1.00  0.00    -0.354 OA
HETATM   18  C   UNL     1      39.460 -12.669   6.326  1.00  0.00     0.210 C 
ENDBRANCH  12  17
BRANCH  14  19
HETATM   19  O   UNL     1      41.215 -13.940   1.310  1.00  0.00    -0.356 OA
HETATM   20  C   UNL     1      40.146 -14.810   0.959  1.00  0.00     0.210 C 
ENDBRANCH  14  19
ENDBRANCH   9  11
ENDBRANCH   7   9
ENDBRANCH   5   7
ENDBRANCH   2   5
BRANCH   1  21
HETATM   21  C   UNL     1      43.738 -18.596   5.776  1.00  0.00     0.098 A 
HETATM   22  C   UNL     1      43.811 -18.598   4.394  1.00  0.00     0.138 A 
HETATM   23  N   UNL     1      43.494 -17.693   3.436  1.00  0.00    -0.370 N 
HETATM   24  N   UNL     1      44.294 -19.838   4.044  1.00  0.00    -0.240 N 
HETATM   25  C   UNL     1      43.981 -17.868   2.071  1.00  0.00     0.081 C 
HETATM   26  H   UNL     1      42.972 -16.838   3.626  1.00  0.00     0.161 HD
HETATM   27  C   UNL     1      43.197 -16.964   1.127  1.00  0.00     0.032 C 
HETATM   28  C   UNL     1      43.835 -19.339   1.677  1.00  0.00     0.061 C 
HETATM   29  C   UNL     1      44.577 -20.249   2.678  1.00  0.00     0.221 C 
HETATM   30  N   UNL     1      44.590 -20.616   5.096  1.00  0.00    -0.181 NA
HETATM   31  C   UNL     1      44.206 -19.880   6.142  1.00  0.00     0.160 A 
BRANCH  29  32
HETATM   32  C   UNL     1      44.204 -21.693   2.420  1.00  0.00     0.409 C 
HETATM   33  F   UNL     1      42.965 -21.825   1.895  1.00  0.00    -0.169 F 
HETATM   34  F   UNL     1      45.065 -22.225   1.507  1.00  0.00    -0.169 F 
HETATM   35  F   UNL     1      44.293 -22.480   3.512  1.00  0.00    -0.169 F 
ENDBRANCH  29  32
ENDBRANCH   1  21
TORSDOF 8
ENDMDL
MODEL 3
REMARK VINA RESULT:      -8.0      5.360      7.772
REMARK  8 active torsions:
REMARK  status: ('A' for Active; 'I' for Inactive)
REMARK    1  A    between atoms: C_8  and  C_9 
REMARK       I    between atoms: C_9  and  N_10 
REMARK    2  A    between atoms: N_10  and  N_11 
REMARK    3  A    between atoms: N_11  and  C_12 
REMARK    4  A    between atoms: C_12  and  N_13 
REMARK    5  A    between atoms: N_13  and  C_14 
REMARK    6  A    between atoms: C_15  and  O_16 
REMARK    7  A    between atoms: C_19  and  O_20 
REMARK    8  A    between atoms: C_26  and  C_27 
ROOT
HETATM    1  C   UNL     1      43.371 -14.069   6.132  1.00  0.00     0.275 C 
HETATM    2  N   UNL     1      42.456 -13.043   6.273  1.00  0.00    -0.263 N 
HETATM    3  O   UNL     1      44.271 -14.270   6.945  1.00  0.00    -0.266 OA
HETATM    4  H   UNL     1      41.983 -12.712   5.433  1.00  0.00     0.190 HD
ENDROOT
BRANCH   2   5
HETATM    5  N   UNL     1      42.678 -12.071   7.268  1.00  0.00    -0.273 N 
HETATM    6  H   UNL     1      43.658 -11.810   7.388  1.00  0.00     0.189 HD
BRANCH   5   7
HETATM    7  C   UNL     1      41.697 -11.113   7.531  1.00  0.00     0.191 C 
HETATM    8  S   UNL     1      40.170 -11.179   6.833  1.00  0.00    -0.039 SA
BRANCH   7   9
HETATM    9  N   UNL     1      42.149 -10.216   8.484  1.00  0.00    -0.330 N 
HETATM   10  H   UNL     1      42.686  -9.438   8.112  1.00  0.00     0.168 HD
BRANCH   9  11
HETATM   11  C   UNL     1      42.273 -10.339   9.888  1.00  0.00     0.068 A 
HETATM   12  C   UNL     1      43.575 -10.502  10.408  1.00  0.00     0.097 A 
HETATM   13  C   UNL     1      43.770 -10.615  11.791  1.00  0.00     0.075 A 
HETATM   14  C   UNL     1      42.678 -10.555  12.660  1.00  0.00     0.070 A 
HETATM   15  C   UNL     1      41.399 -10.354  12.142  1.00  0.00     0.039 A 
HETATM   16  C   UNL     1      41.195 -10.240  10.766  1.00  0.00     0.035 A 
BRANCH  12  17
HETATM   17  O   UNL     1      44.580 -10.539   9.466  1.00  0.00    -0.354 OA
HETATM   18  C   UNL     1      45.485 -11.636   9.526  1.00  0.00     0.210 C 
ENDBRANCH  12  17
BRANCH  14  19
HETATM   19  O   UNL     1      42.727 -10.654  14.024  1.00  0.00    -0.356 OA
HETATM   20  C   UNL     1      41.738  -9.945  14.758  1.00  0.00     0.210 C 
ENDBRANCH  14  19
ENDBRANCH   9  11
ENDBRANCH   7   9
ENDBRANCH   5   7
ENDBRANCH   2   5
BRANCH   1  21
HETATM   21  C   UNL     1      43.219 -14.840   4.914  1.00  0.00     0.098 A 
HETATM   22  C   UNL     1      43.262 -16.210   4.727  1.00  0.00     0.138 A 
HETATM   23  N   UNL     1      43.499 -17.263   5.548  1.00  0.00    -0.370 N 
HETATM   24  N   UNL     1      43.029 -16.416   3.386  1.00  0.00    -0.240 N 
HETATM   25  C   UNL     1      43.164 -18.618   5.120  1.00  0.00     0.081 C 
HETATM   26  H   UNL     1      43.850 -17.161   6.500  1.00  0.00     0.161 HD
HETATM   27  C   UNL     1      43.858 -19.628   6.026  1.00  0.00     0.032 C 
HETATM   28  C   UNL     1      43.591 -18.796   3.662  1.00  0.00     0.061 C 
HETATM   29  C   UNL     1      42.935 -17.727   2.765  1.00  0.00     0.221 C 
HETATM   30  N   UNL     1      42.784 -15.286   2.705  1.00  0.00    -0.181 NA
HETATM   31  C   UNL     1      42.948 -14.330   3.622  1.00  0.00     0.160 A 
BRANCH  29  32
HETATM   32  C   UNL     1      43.569 -17.761   1.390  1.00  0.00     0.409 C 
HETATM   33  F   UNL     1      44.756 -17.115   1.350  1.00  0.00    -0.169 F 
HETATM   34  F   UNL     1      43.824 -19.054   1.045  1.00  0.00    -0.169 F 
HETATM   35  F   UNL     1      42.779 -17.267   0.415  1.00  0.00    -0.169 F 
ENDBRANCH  29  32
ENDBRANCH   1  21
TORSDOF 8
ENDMDL
MODEL 4
REMARK VINA RESULT:      -8.0      2.592      3.808
REMARK  8 active torsions:
REMARK  status: ('A' for Active; 'I' for Inactive)
REMARK    1  A    between atoms: C_8  and  C_9 
REMARK       I    between atoms: C_9  and  N_10 
REMARK    2  A    between atoms: N_10  and  N_11 
REMARK    3  A    between atoms: N_11  and  C_12 
REMARK    4  A    between atoms: C_12  and  N_13 
REMARK    5  A    between atoms: N_13  and  C_14 
REMARK    6  A    between atoms: C_15  and  O_16 
REMARK    7  A    between atoms: C_19  and  O_20 
REMARK    8  A    between atoms: C_26  and  C_27 
ROOT
HETATM    1  C   UNL     1      40.661 -16.705   2.244  1.00  0.00     0.275 C 
HETATM    2  N   UNL     1      39.833 -15.654   2.591  1.00  0.00    -0.263 N 
HETATM    3  O   UNL     1      40.532 -17.332   1.195  1.00  0.00    -0.266 OA
HETATM    4  H   UNL     1      39.755 -15.418   3.579  1.00  0.00     0.190 HD
ENDROOT
BRANCH   2   5
HETATM    5  N   UNL     1      38.679 -15.420   1.818  1.00  0.00    -0.273 N 
HETATM    6  H   UNL     1      37.803 -15.643   2.295  1.00  0.00     0.189 HD
BRANCH   5   7
HETATM    7  C   UNL     1      38.678 -14.398   0.867  1.00  0.00     0.191 C 
HETATM    8  S   UNL     1      37.935 -12.916   1.144  1.00  0.00    -0.039 SA
BRANCH   7   9
HETATM    9  N   UNL     1      39.434 -14.767  -0.233  1.00  0.00    -0.330 N 
HETATM   10  H   UNL     1      39.664 -15.756  -0.276  1.00  0.00     0.168 HD
BRANCH   9  11
HETATM   11  C   UNL     1      40.204 -13.991  -1.131  1.00  0.00     0.068 A 
HETATM   12  C   UNL     1      41.506 -13.633  -0.721  1.00  0.00     0.097 A 
HETATM   13  C   UNL     1      42.326 -12.877  -1.569  1.00  0.00     0.075 A 
HETATM   14  C   UNL     1      41.863 -12.486  -2.827  1.00  0.00     0.070 A 
HETATM   15  C   UNL     1      40.591 -12.878  -3.243  1.00  0.00     0.039 A 
HETATM   16  C   UNL     1      39.766 -13.630  -2.404  1.00  0.00     0.035 A 
BRANCH  12  17
HETATM   17  O   UNL     1      41.866 -14.076   0.532  1.00  0.00    -0.354 OA
HETATM   18  C   UNL     1      42.129 -13.086   1.520  1.00  0.00     0.210 C 
ENDBRANCH  12  17
BRANCH  14  19
HETATM   19  O   UNL     1      42.556 -11.749  -3.748  1.00  0.00    -0.356 OA
HETATM   20  C   UNL     1      41.790 -10.997  -4.681  1.00  0.00     0.210 C 
ENDBRANCH  14  19
ENDBRANCH   9  11
ENDBRANCH   7   9
ENDBRANCH   5   7
ENDBRANCH   2   5
BRANCH   1  21
HETATM   21  C   UNL     1      41.646 -17.044   3.252  1.00  0.00     0.098 A 
HETATM   22  C   UNL     1      42.555 -18.087   3.280  1.00  0.00     0.138 A 
HETATM   23  N   UNL     1      42.808 -19.135   2.458  1.00  0.00    -0.370 N 
HETATM   24  N   UNL     1      43.272 -17.932   4.445  1.00  0.00    -0.240 N 
HETATM   25  C   UNL     1      44.047 -19.895   2.595  1.00  0.00     0.081 C 
HETATM   26  H   UNL     1      42.197 -19.398   1.685  1.00  0.00     0.161 HD
HETATM   27  C   UNL     1      43.925 -21.214   1.843  1.00  0.00     0.032 C 
HETATM   28  C   UNL     1      44.322 -20.128   4.082  1.00  0.00     0.061 C 
HETATM   29  C   UNL     1      44.376 -18.789   4.845  1.00  0.00     0.221 C 
HETATM   30  N   UNL     1      42.933 -16.837   5.142  1.00  0.00    -0.181 NA
HETATM   31  C   UNL     1      41.914 -16.329   4.443  1.00  0.00     0.160 A 
BRANCH  29  32
HETATM   32  C   UNL     1      44.387 -19.056   6.335  1.00  0.00     0.409 C 
HETATM   33  F   UNL     1      43.197 -18.790   6.920  1.00  0.00    -0.169 F 
HETATM   34  F   UNL     1      44.634 -20.378   6.553  1.00  0.00    -0.169 F 
HETATM   35  F   UNL     1      45.351 -18.387   7.000  1.00  0.00    -0.169 F 
ENDBRANCH  29  32
ENDBRANCH   1  21
TORSDOF 8
ENDMDL
MODEL 5
REMARK VINA RESULT:      -8.0      5.214      7.758
REMARK  8 active torsions:
REMARK  status: ('A' for Active; 'I' for Inactive)
REMARK    1  A    between atoms: C_8  and  C_9 
REMARK       I    between atoms: C_9  and  N_10 
REMARK    2  A    between atoms: N_10  and  N_11 
REMARK    3  A    between atoms: N_11  and  C_12 
REMARK    4  A    between atoms: C_12  and  N_13 
REMARK    5  A    between atoms: N_13  and  C_14 
REMARK    6  A    between atoms: C_15  and  O_16 
REMARK    7  A    between atoms: C_19  and  O_20 
REMARK    8  A    between atoms: C_26  and  C_27 
ROOT
HETATM    1  C   UNL     1      40.223 -13.612   5.631  1.00  0.00     0.275 C 
HETATM    2  N   UNL     1      41.177 -12.888   6.319  1.00  0.00    -0.263 N 
HETATM    3  O   UNL     1      39.038 -13.285   5.601  1.00  0.00    -0.266 OA
HETATM    4  H   UNL     1      42.029 -13.373   6.600  1.00  0.00     0.190 HD
ENDROOT
BRANCH   2   5
HETATM    5  N   UNL     1      40.753 -11.857   7.181  1.00  0.00    -0.273 N 
HETATM    6  H   UNL     1      40.114 -12.163   7.916  1.00  0.00     0.189 HD
BRANCH   5   7
HETATM    7  C   UNL     1      41.602 -10.780   7.442  1.00  0.00     0.191 C 
HETATM    8  S   UNL     1      41.327  -9.248   6.807  1.00  0.00    -0.039 SA
BRANCH   7   9
HETATM    9  N   UNL     1      42.589 -11.155   8.338  1.00  0.00    -0.330 N 
HETATM   10  H   UNL     1      43.132 -11.966   8.055  1.00  0.00     0.168 HD
BRANCH   9  11
HETATM   11  C   UNL     1      42.778 -10.823   9.701  1.00  0.00     0.068 A 
HETATM   12  C   UNL     1      44.107 -10.643  10.141  1.00  0.00     0.097 A 
HETATM   13  C   UNL     1      44.363 -10.299  11.475  1.00  0.00     0.075 A 
HETATM   14  C   UNL     1      43.306 -10.122  12.370  1.00  0.00     0.070 A 
HETATM   15  C   UNL     1      41.994 -10.261  11.918  1.00  0.00     0.039 A 
HETATM   16  C   UNL     1      41.728 -10.605  10.591  1.00  0.00     0.035 A 
BRANCH  12  17
HETATM   17  O   UNL     1      45.073 -10.833   9.178  1.00  0.00    -0.354 OA
HETATM   18  C   UNL     1      45.755 -12.082   9.181  1.00  0.00     0.210 C 
ENDBRANCH  12  17
BRANCH  14  19
HETATM   19  O   UNL     1      43.415  -9.790  13.692  1.00  0.00    -0.356 OA
HETATM   20  C   UNL     1      42.326 -10.137  14.538  1.00  0.00     0.210 C 
ENDBRANCH  14  19
ENDBRANCH   9  11
ENDBRANCH   7   9
ENDBRANCH   5   7
ENDBRANCH   2   5
BRANCH   1  21
HETATM   21  C   UNL     1      40.725 -14.819   5.008  1.00  0.00     0.098 A 
HETATM   22  C   UNL     1      41.478 -15.844   5.552  1.00  0.00     0.138 A 
HETATM   23  N   UNL     1      42.030 -16.059   6.772  1.00  0.00    -0.370 N 
HETATM   24  N   UNL     1      41.659 -16.760   4.539  1.00  0.00    -0.240 N 
HETATM   25  C   UNL     1      42.505 -17.390   7.139  1.00  0.00     0.081 C 
HETATM   26  H   UNL     1      42.080 -15.342   7.495  1.00  0.00     0.161 HD
HETATM   27  C   UNL     1      43.405 -17.291   8.366  1.00  0.00     0.032 C 
HETATM   28  C   UNL     1      43.254 -17.994   5.950  1.00  0.00     0.061 C 
HETATM   29  C   UNL     1      42.355 -18.026   4.697  1.00  0.00     0.221 C 
HETATM   30  N   UNL     1      41.033 -16.429   3.399  1.00  0.00    -0.181 NA
HETATM   31  C   UNL     1      40.510 -15.230   3.670  1.00  0.00     0.160 A 
BRANCH  29  32
HETATM   32  C   UNL     1      43.190 -18.380   3.485  1.00  0.00     0.409 C 
HETATM   33  F   UNL     1      43.885 -17.324   3.006  1.00  0.00    -0.169 F 
HETATM   34  F   UNL     1      44.113 -19.320   3.833  1.00  0.00    -0.169 F 
HETATM   35  F   UNL     1      42.478 -18.920   2.474  1.00  0.00    -0.169 F 
ENDBRANCH  29  32
ENDBRANCH   1  21
TORSDOF 8
ENDMDL
MODEL 6
REMARK VINA RESULT:      -7.9      4.840      8.149
REMARK  8 active torsions:
REMARK  status: ('A' for Active; 'I' for Inactive)
REMARK    1  A    between atoms: C_8  and  C_9 
REMARK       I    between atoms: C_9  and  N_10 
REMARK    2  A    between atoms: N_10  and  N_11 
REMARK    3  A    between atoms: N_11  and  C_12 
REMARK    4  A    between atoms: C_12  and  N_13 
REMARK    5  A    between atoms: N_13  and  C_14 
REMARK    6  A    between atoms: C_15  and  O_16 
REMARK    7  A    between atoms: C_19  and  O_20 
REMARK    8  A    between atoms: C_26  and  C_27 
ROOT
HETATM    1  C   UNL     1      39.970 -14.777   1.877  1.00  0.00     0.275 C 
HETATM    2  N   UNL     1      40.783 -14.987   2.975  1.00  0.00    -0.263 N 
HETATM    3  O   UNL     1      38.863 -15.299   1.764  1.00  0.00    -0.266 OA
HETATM    4  H   UNL     1      41.784 -14.832   2.860  1.00  0.00     0.190 HD
ENDROOT
BRANCH   2   5
HETATM    5  N   UNL     1      40.426 -15.989   3.899  1.00  0.00    -0.273 N 
HETATM    6  H   UNL     1      39.726 -16.647   3.553  1.00  0.00     0.189 HD
BRANCH   5   7
HETATM    7  C   UNL     1      41.366 -16.442   4.826  1.00  0.00     0.191 C 
HETATM    8  S   UNL     1      40.993 -16.652   6.451  1.00  0.00    -0.039 SA
BRANCH   7   9
HETATM    9  N   UNL     1      42.553 -16.759   4.187  1.00  0.00    -0.330 N 
HETATM   10  H   UNL     1      43.010 -15.977   3.728  1.00  0.00     0.168 HD
BRANCH   9  11
HETATM   11  C   UNL     1      43.085 -18.009   3.788  1.00  0.00     0.068 A 
HETATM   12  C   UNL     1      42.800 -18.440   2.475  1.00  0.00     0.097 A 
HETATM   13  C   UNL     1      43.308 -19.661   2.011  1.00  0.00     0.075 A 
HETATM   14  C   UNL     1      44.109 -20.448   2.842  1.00  0.00     0.070 A 
HETATM   15  C   UNL     1      44.420 -19.997   4.124  1.00  0.00     0.039 A 
HETATM   16  C   UNL     1      43.917 -18.782   4.595  1.00  0.00     0.035 A 
BRANCH  12  17
HETATM   17  O   UNL     1      42.010 -17.586   1.738  1.00  0.00    -0.354 OA
HETATM   18  C   UNL     1      42.600 -16.983   0.591  1.00  0.00     0.210 C 
ENDBRANCH  12  17
BRANCH  14  19
HETATM   19  O   UNL     1      44.665 -21.655   2.518  1.00  0.00    -0.356 OA
HETATM   20  C   UNL     1      44.667 -22.657   3.527  1.00  0.00     0.210 C 
ENDBRANCH  14  19
ENDBRANCH   9  11
ENDBRANCH   7   9
ENDBRANCH   5   7
ENDBRANCH   2   5
BRANCH   1  21
HETATM   21  C   UNL     1      40.561 -13.945   0.849  1.00  0.00     0.098 A 
HETATM   22  C   UNL     1      40.223 -13.821  -0.487  1.00  0.00     0.138 A 
HETATM   23  N   UNL     1      39.311 -14.428  -1.285  1.00  0.00    -0.370 N 
HETATM   24  N   UNL     1      41.079 -12.877  -1.008  1.00  0.00    -0.240 N 
HETATM   25  C   UNL     1      38.977 -13.857  -2.586  1.00  0.00     0.081 C 
HETATM   26  H   UNL     1      38.780 -15.252  -1.000  1.00  0.00     0.161 HD
HETATM   27  C   UNL     1      38.243 -14.895  -3.428  1.00  0.00     0.032 C 
HETATM   28  C   UNL     1      40.266 -13.399  -3.271  1.00  0.00     0.061 C 
HETATM   29  C   UNL     1      41.033 -12.401  -2.381  1.00  0.00     0.221 C 
HETATM   30  N   UNL     1      41.907 -12.343  -0.096  1.00  0.00    -0.181 NA
HETATM   31  C   UNL     1      41.625 -13.027   1.016  1.00  0.00     0.160 A 
BRANCH  29  32
HETATM   32  C   UNL     1      42.414 -12.167  -2.956  1.00  0.00     0.409 C 
HETATM   33  F   UNL     1      43.018 -11.077  -2.432  1.00  0.00    -0.169 F 
HETATM   34  F   UNL     1      43.212 -13.230  -2.655  1.00  0.00    -0.169 F 
HETATM   35  F   UNL     1      42.431 -12.062  -4.301  1.00  0.00    -0.169 F 
ENDBRANCH  29  32
ENDBRANCH   1  21
TORSDOF 8
ENDMDL
MODEL 7
REMARK VINA RESULT:      -7.9      3.281      5.019
REMARK  8 active torsions:
REMARK  status: ('A' for Active; 'I' for Inactive)
REMARK    1  A    between atoms: C_8  and  C_9 
REMARK       I    between atoms: C_9  and  N_10 
REMARK    2  A    between atoms: N_10  and  N_11 
REMARK    3  A    between atoms: N_11  and  C_12 
REMARK    4  A    between atoms: C_12  and  N_13 
REMARK    5  A    between atoms: N_13  and  C_14 
REMARK    6  A    between atoms: C_15  and  O_16 
REMARK    7  A    between atoms: C_19  and  O_20 
REMARK    8  A    between atoms: C_26  and  C_27 
ROOT
HETATM    1  C   UNL     1      41.884 -17.255   1.150  1.00  0.00     0.275 C 
HETATM    2  N   UNL     1      42.549 -16.378   0.315  1.00  0.00    -0.263 N 
HETATM    3  O   UNL     1      40.772 -17.708   0.885  1.00  0.00    -0.266 OA
HETATM    4  H   UNL     1      43.265 -15.781   0.728  1.00  0.00     0.190 HD
ENDROOT
BRANCH   2   5
HETATM    5  N   UNL     1      41.852 -15.823  -0.776  1.00  0.00    -0.273 N 
HETATM    6  H   UNL     1      41.277 -16.493  -1.290  1.00  0.00     0.189 HD
BRANCH   5   7
HETATM    7  C   UNL     1      41.440 -14.490  -0.729  1.00  0.00     0.191 C 
HETATM    8  S   UNL     1      41.583 -13.556   0.661  1.00  0.00    -0.039 SA
BRANCH   7   9
HETATM    9  N   UNL     1      41.012 -14.078  -1.980  1.00  0.00    -0.330 N 
HETATM   10  H   UNL     1      41.546 -13.310  -2.379  1.00  0.00     0.168 HD
BRANCH   9  11
HETATM   11  C   UNL     1      39.795 -14.306  -2.664  1.00  0.00     0.068 A 
HETATM   12  C   UNL     1      38.809 -13.299  -2.578  1.00  0.00     0.097 A 
HETATM   13  C   UNL     1      37.586 -13.456  -3.244  1.00  0.00     0.075 A 
HETATM   14  C   UNL     1      37.344 -14.601  -4.006  1.00  0.00     0.070 A 
HETATM   15  C   UNL     1      38.338 -15.573  -4.120  1.00  0.00     0.039 A 
HETATM   16  C   UNL     1      39.559 -15.426  -3.459  1.00  0.00     0.035 A 
BRANCH  12  17
HETATM   17  O   UNL     1      39.152 -12.209  -1.810  1.00  0.00    -0.354 OA
HETATM   18  C   UNL     1      38.268 -11.855  -0.753  1.00  0.00     0.210 C 
ENDBRANCH  12  17
BRANCH  14  19
HETATM   19  O   UNL     1      36.199 -14.880  -4.701  1.00  0.00    -0.356 OA
HETATM   20  C   UNL     1      35.438 -13.771  -5.164  1.00  0.00     0.210 C 
ENDBRANCH  14  19
ENDBRANCH   9  11
ENDBRANCH   7   9
ENDBRANCH   5   7
ENDBRANCH   2   5
BRANCH   1  21
HETATM   21  C   UNL     1      42.578 -17.540   2.390  1.00  0.00     0.098 A 
HETATM   22  C   UNL     1      43.301 -18.661   2.757  1.00  0.00     0.138 A 
HETATM   23  N   UNL     1      43.566 -19.846   2.156  1.00  0.00    -0.370 N 
HETATM   24  N   UNL     1      43.775 -18.405   4.024  1.00  0.00    -0.240 N 
HETATM   25  C   UNL     1      44.627 -20.709   2.667  1.00  0.00     0.081 C 
HETATM   26  H   UNL     1      43.098 -20.157   1.305  1.00  0.00     0.161 HD
HETATM   27  C   UNL     1      44.476 -22.108   2.083  1.00  0.00     0.032 C 
HETATM   28  C   UNL     1      44.550 -20.735   4.195  1.00  0.00     0.061 C 
HETATM   29  C   UNL     1      44.637 -19.307   4.772  1.00  0.00     0.221 C 
HETATM   30  N   UNL     1      43.459 -17.183   4.479  1.00  0.00    -0.181 NA
HETATM   31  C   UNL     1      42.692 -16.681   3.508  1.00  0.00     0.160 A 
BRANCH  29  32
HETATM   32  C   UNL     1      44.299 -19.336   6.247  1.00  0.00     0.409 C 
HETATM   33  F   UNL     1      43.035 -18.927   6.499  1.00  0.00    -0.169 F 
HETATM   34  F   UNL     1      44.385 -20.618   6.703  1.00  0.00    -0.169 F 
HETATM   35  F   UNL     1      45.145 -18.616   7.012  1.00  0.00    -0.169 F 
ENDBRANCH  29  32
ENDBRANCH   1  21
TORSDOF 8
ENDMDL
MODEL 8
REMARK VINA RESULT:      -7.8      6.673      9.162
REMARK  8 active torsions:
REMARK  status: ('A' for Active; 'I' for Inactive)
REMARK    1  A    between atoms: C_8  and  C_9 
REMARK       I    between atoms: C_9  and  N_10 
REMARK    2  A    between atoms: N_10  and  N_11 
REMARK    3  A    between atoms: N_11  and  C_12 
REMARK    4  A    between atoms: C_12  and  N_13 
REMARK    5  A    between atoms: N_13  and  C_14 
REMARK    6  A    between atoms: C_15  and  O_16 
REMARK    7  A    between atoms: C_19  and  O_20 
REMARK    8  A    between atoms: C_26  and  C_27 
ROOT
HETATM    1  C   UNL     1      39.484 -11.193   7.955  1.00  0.00     0.275 C 
HETATM    2  N   UNL     1      39.464 -12.574   7.907  1.00  0.00    -0.263 N 
HETATM    3  O   UNL     1      39.076 -10.493   7.030  1.00  0.00    -0.266 OA
HETATM    4  H   UNL     1      40.112 -13.078   8.511  1.00  0.00     0.190 HD
ENDROOT
BRANCH   2   5
HETATM    5  N   UNL     1      39.159 -13.204   6.685  1.00  0.00    -0.273 N 
HETATM    6  H   UNL     1      38.328 -12.834   6.218  1.00  0.00     0.189 HD
BRANCH   5   7
HETATM    7  C   UNL     1      40.188 -13.725   5.898  1.00  0.00     0.191 C 
HETATM    8  S   UNL     1      41.485 -12.789   5.385  1.00  0.00    -0.039 SA
BRANCH   7   9
HETATM    9  N   UNL     1      40.007 -15.085   5.713  1.00  0.00    -0.330 N 
HETATM   10  H   UNL     1      39.071 -15.421   5.923  1.00  0.00     0.168 HD
BRANCH   9  11
HETATM   11  C   UNL     1      40.946 -16.137   5.591  1.00  0.00     0.068 A 
HETATM   12  C   UNL     1      41.263 -16.569   4.285  1.00  0.00     0.097 A 
HETATM   13  C   UNL     1      42.196 -17.597   4.093  1.00  0.00     0.075 A 
HETATM   14  C   UNL     1      42.824 -18.188   5.191  1.00  0.00     0.070 A 
HETATM   15  C   UNL     1      42.536 -17.728   6.477  1.00  0.00     0.039 A 
HETATM   16  C   UNL     1      41.607 -16.706   6.678  1.00  0.00     0.035 A 
BRANCH  12  17
HETATM   17  O   UNL     1      40.594 -15.915   3.275  1.00  0.00    -0.354 OA
HETATM   18  C   UNL     1      40.195 -16.691   2.151  1.00  0.00     0.210 C 
ENDBRANCH  12  17
BRANCH  14  19
HETATM   19  O   UNL     1      43.747 -19.197   5.146  1.00  0.00    -0.356 OA
HETATM   20  C   UNL     1      43.890 -19.994   6.314  1.00  0.00     0.210 C 
ENDBRANCH  14  19
ENDBRANCH   9  11
ENDBRANCH   7   9
ENDBRANCH   5   7
ENDBRANCH   2   5
BRANCH   1  21
HETATM   21  C   UNL     1      40.084 -10.647   9.155  1.00  0.00     0.098 A 
HETATM   22  C   UNL     1      41.401 -10.682   9.576  1.00  0.00     0.138 A 
HETATM   23  N   UNL     1      42.531 -11.246   9.081  1.00  0.00    -0.370 N 
HETATM   24  N   UNL     1      41.437  -9.990  10.765  1.00  0.00    -0.240 N 
HETATM   25  C   UNL     1      43.838 -10.841   9.590  1.00  0.00     0.081 C 
HETATM   26  H   UNL     1      42.530 -11.913   8.309  1.00  0.00     0.161 HD
HETATM   27  C   UNL     1      44.889 -11.862   9.169  1.00  0.00     0.032 C 
HETATM   28  C   UNL     1      43.761 -10.721  11.113  1.00  0.00     0.061 C 
HETATM   29  C   UNL     1      42.649  -9.737  11.528  1.00  0.00     0.221 C 
HETATM   30  N   UNL     1      40.253  -9.463  11.115  1.00  0.00    -0.181 NA
HETATM   31  C   UNL     1      39.425  -9.905  10.164  1.00  0.00     0.160 A 
BRANCH  29  32
HETATM   32  C   UNL     1      42.420  -9.832  13.021  1.00  0.00     0.409 C 
HETATM   33  F   UNL     1      41.808 -10.983  13.381  1.00  0.00    -0.169 F 
HETATM   34  F   UNL     1      43.623  -9.822  13.662  1.00  0.00    -0.169 F 
HETATM   35  F   UNL     1      41.722  -8.797  13.532  1.00  0.00    -0.169 F 
ENDBRANCH  29  32
ENDBRANCH   1  21
TORSDOF 8
ENDMDL
MODEL 9
REMARK VINA RESULT:      -7.8      3.760      5.046
REMARK  8 active torsions:
REMARK  status: ('A' for Active; 'I' for Inactive)
REMARK    1  A    between atoms: C_8  and  C_9 
REMARK       I    between atoms: C_9  and  N_10 
REMARK    2  A    between atoms: N_10  and  N_11 
REMARK    3  A    between atoms: N_11  and  C_12 
REMARK    4  A    between atoms: C_12  and  N_13 
REMARK    5  A    between atoms: N_13  and  C_14 
REMARK    6  A    between atoms: C_15  and  O_16 
REMARK    7  A    between atoms: C_19  and  O_20 
REMARK    8  A    between atoms: C_26  and  C_27 
ROOT
HETATM    1  C   UNL     1      41.422 -16.927   1.073  1.00  0.00     0.275 C 
HETATM    2  N   UNL     1      41.537 -15.651   0.555  1.00  0.00    -0.263 N 
HETATM    3  O   UNL     1      40.649 -17.762   0.608  1.00  0.00    -0.266 OA
HETATM    4  H   UNL     1      41.903 -14.923   1.168  1.00  0.00     0.190 HD
ENDROOT
BRANCH   2   5
HETATM    5  N   UNL     1      40.599 -15.222  -0.404  1.00  0.00    -0.273 N 
HETATM    6  H   UNL     1      39.822 -14.683  -0.018  1.00  0.00     0.189 HD
BRANCH   5   7
HETATM    7  C   UNL     1      41.017 -14.949  -1.707  1.00  0.00     0.191 C 
HETATM    8  S   UNL     1      40.140 -15.446  -3.052  1.00  0.00    -0.039 SA
BRANCH   7   9
HETATM    9  N   UNL     1      42.155 -14.162  -1.689  1.00  0.00    -0.330 N 
HETATM   10  H   UNL     1      42.949 -14.574  -1.206  1.00  0.00     0.168 HD
BRANCH   9  11
HETATM   11  C   UNL     1      42.331 -12.780  -1.937  1.00  0.00     0.068 A 
HETATM   12  C   UNL     1      42.502 -11.940  -0.815  1.00  0.00     0.097 A 
HETATM   13  C   UNL     1      42.695 -10.564  -0.991  1.00  0.00     0.075 A 
HETATM   14  C   UNL     1      42.731 -10.019  -2.277  1.00  0.00     0.070 A 
HETATM   15  C   UNL     1      42.602 -10.860  -3.382  1.00  0.00     0.039 A 
HETATM   16  C   UNL     1      42.408 -12.233  -3.217  1.00  0.00     0.035 A 
BRANCH  12  17
HETATM   17  O   UNL     1      42.459 -12.579   0.404  1.00  0.00    -0.354 OA
HETATM   18  C   UNL     1      41.513 -12.102   1.354  1.00  0.00     0.210 C 
ENDBRANCH  12  17
BRANCH  14  19
HETATM   19  O   UNL     1      42.909  -8.699  -2.589  1.00  0.00    -0.356 OA
HETATM   20  C   UNL     1      42.010  -8.132  -3.534  1.00  0.00     0.210 C 
ENDBRANCH  14  19
ENDBRANCH   9  11
ENDBRANCH   7   9
ENDBRANCH   5   7
ENDBRANCH   2   5
BRANCH   1  21
HETATM   21  C   UNL     1      42.237 -17.171   2.245  1.00  0.00     0.098 A 
HETATM   22  C   UNL     1      42.988 -18.283   2.581  1.00  0.00     0.138 A 
HETATM   23  N   UNL     1      43.185 -19.493   2.002  1.00  0.00    -0.370 N 
HETATM   24  N   UNL     1      43.590 -17.984   3.782  1.00  0.00    -0.240 N 
HETATM   25  C   UNL     1      44.288 -20.345   2.436  1.00  0.00     0.081 C 
HETATM   26  H   UNL     1      42.631 -19.832   1.216  1.00  0.00     0.161 HD
HETATM   27  C   UNL     1      44.071 -21.764   1.925  1.00  0.00     0.032 C 
HETATM   28  C   UNL     1      44.367 -20.312   3.964  1.00  0.00     0.061 C 
HETATM   29  C   UNL     1      44.519 -18.865   4.473  1.00  0.00     0.221 C 
HETATM   30  N   UNL     1      43.329 -16.742   4.219  1.00  0.00    -0.181 NA
HETATM   31  C   UNL     1      42.469 -16.270   3.312  1.00  0.00     0.160 A 
BRANCH  29  32
HETATM   32  C   UNL     1      44.334 -18.834   5.975  1.00  0.00     0.409 C 
HETATM   33  F   UNL     1      43.069 -18.522   6.336  1.00  0.00    -0.169 F 
HETATM   34  F   UNL     1      44.582 -20.074   6.484  1.00  0.00    -0.169 F 
HETATM   35  F   UNL     1      45.180 -17.998   6.610  1.00  0.00    -0.169 F 
ENDBRANCH  29  32
ENDBRANCH   1  21
TORSDOF 8
ENDMDL
MODEL 10
REMARK VINA RESULT:      -7.7      7.092      9.220
REMARK  8 active torsions:
REMARK  status: ('A' for Active; 'I' for Inactive)
REMARK    1  A    between atoms: C_8  and  C_9 
REMARK       I    between atoms: C_9  and  N_10 
REMARK    2  A    between atoms: N_10  and  N_11 
REMARK    3  A    between atoms: N_11  and  C_12 
REMARK    4  A    between atoms: C_12  and  N_13 
REMARK    5  A    between atoms: N_13  and  C_14 
REMARK    6  A    between atoms: C_15  and  O_16 
REMARK    7  A    between atoms: C_19  and  O_20 
REMARK    8  A    between atoms: C_26  and  C_27 
ROOT
HETATM    1  C   UNL     1      39.315 -10.866   8.669  1.00  0.00     0.275 C 
HETATM    2  N   UNL     1      39.475 -12.231   8.525  1.00  0.00    -0.263 N 
HETATM    3  O   UNL     1      38.728 -10.177   7.837  1.00  0.00    -0.266 OA
HETATM    4  H   UNL     1      40.242 -12.674   9.031  1.00  0.00     0.190 HD
ENDROOT
BRANCH   2   5
HETATM    5  N   UNL     1      39.136 -12.826   7.294  1.00  0.00    -0.273 N 
HETATM    6  H   UNL     1      38.245 -12.508   6.907  1.00  0.00     0.189 HD
BRANCH   5   7
HETATM    7  C   UNL     1      40.145 -13.216   6.412  1.00  0.00     0.191 C 
HETATM    8  S   UNL     1      41.283 -12.132   5.817  1.00  0.00    -0.039 SA
BRANCH   7   9
HETATM    9  N   UNL     1      40.099 -14.584   6.208  1.00  0.00    -0.330 N 
HETATM   10  H   UNL     1      39.954 -15.135   7.050  1.00  0.00     0.168 HD
BRANCH   9  11
HETATM   11  C   UNL     1      40.523 -15.372   5.111  1.00  0.00     0.068 A 
HETATM   12  C   UNL     1      41.108 -16.623   5.405  1.00  0.00     0.097 A 
HETATM   13  C   UNL     1      41.537 -17.459   4.365  1.00  0.00     0.075 A 
HETATM   14  C   UNL     1      41.375 -17.063   3.036  1.00  0.00     0.070 A 
HETATM   15  C   UNL     1      40.759 -15.845   2.751  1.00  0.00     0.039 A 
HETATM   16  C   UNL     1      40.330 -15.005   3.781  1.00  0.00     0.035 A 
BRANCH  12  17
HETATM   17  O   UNL     1      41.212 -16.919   6.746  1.00  0.00    -0.354 OA
HETATM   18  C   UNL     1      42.510 -17.220   7.246  1.00  0.00     0.210 C 
ENDBRANCH  12  17
BRANCH  14  19
HETATM   19  O   UNL     1      41.749 -17.778   1.930  1.00  0.00    -0.356 OA
HETATM   20  C   UNL     1      42.589 -17.121   0.990  1.00  0.00     0.210 C 
ENDBRANCH  14  19
ENDBRANCH   9  11
ENDBRANCH   7   9
ENDBRANCH   5   7
ENDBRANCH   2   5
BRANCH   1  21
HETATM   21  C   UNL     1      39.955 -10.312   9.845  1.00  0.00     0.098 A 
HETATM   22  C   UNL     1      41.285 -10.342  10.222  1.00  0.00     0.138 A 
HETATM   23  N   UNL     1      42.399 -10.908   9.693  1.00  0.00    -0.370 N 
HETATM   24  N   UNL     1      41.359  -9.643  11.405  1.00  0.00    -0.240 N 
HETATM   25  C   UNL     1      43.721 -10.497  10.154  1.00  0.00     0.081 C 
HETATM   26  H   UNL     1      42.373 -11.579   8.925  1.00  0.00     0.161 HD
HETATM   27  C   UNL     1      44.760 -11.518   9.704  1.00  0.00     0.032 C 
HETATM   28  C   UNL     1      43.695 -10.368  11.679  1.00  0.00     0.061 C 
HETATM   29  C   UNL     1      42.596  -9.384  12.126  1.00  0.00     0.221 C 
HETATM   30  N   UNL     1      40.187  -9.117  11.792  1.00  0.00    -0.181 NA
HETATM   31  C   UNL     1      39.329  -9.566  10.872  1.00  0.00     0.160 A 
BRANCH  29  32
HETATM   32  C   UNL     1      42.418  -9.472  13.626  1.00  0.00     0.409 C 
HETATM   33  F   UNL     1      41.606  -8.505  14.111  1.00  0.00    -0.169 F 
HETATM   34  F   UNL     1      41.829 -10.660  13.941  1.00  0.00    -0.169 F 
HETATM   35  F   UNL     1      43.578  -9.442  14.314  1.00  0.00    -0.169 F 
ENDBRANCH  29  32
ENDBRANCH   1  21
TORSDOF 8
ENDMDL
