MODEL 1
REMARK VINA RESULT:     -10.0      0.000      0.000
REMARK  5 active torsions:
REMARK  status: ('A' for Active; 'I' for Inactive)
REMARK    1  A    between atoms: C_7  and  C_8 
REMARK    2  A    between atoms: C_16  and  C_17 
REMARK    3  A    between atoms: C_19  and  O_20 
REMARK    4  A    between atoms: C_24  and  C_25 
REMARK       I    between atoms: C_25  and  N_26 
REMARK    5  A    between atoms: N_26  and  C_27 
ROOT
HETATM    1  C   UNL     1      40.324 -13.918  -1.292  1.00  0.00     0.070 C 
HETATM    2  C   UNL     1      40.612 -14.703  -0.036  1.00  0.00     0.037 C 
HETATM    3  N   UNL     1      41.727 -15.538  -0.087  1.00  0.00    -0.192 N 
HETATM    4  C   UNL     1      41.979 -16.473   0.851  1.00  0.00     0.726 A 
HETATM    5  N   UNL     1      41.236 -16.481   1.995  1.00  0.00    -0.083 N 
HETATM    6  N   UNL     1      41.576 -17.501   2.804  1.00  0.00    -0.135 NA
HETATM    7  C   UNL     1      42.562 -18.081   2.093  1.00  0.00     0.200 A 
HETATM    8  N   UNL     1      42.841 -17.454   0.893  1.00  0.00    -0.041 NA
HETATM    9  C   UNL     1      40.224 -15.475   2.321  1.00  0.00     0.202 C 
HETATM   10  C   UNL     1      39.859 -14.645   1.094  1.00  0.00     0.062 C 
HETATM   11  H   UNL     1      42.190 -15.636  -0.989  1.00  0.00     0.184 HD
ENDROOT
BRANCH  10  12
HETATM   12  C   UNL     1      38.539 -13.947   1.090  1.00  0.00     0.256 C 
HETATM   13  N   UNL     1      38.612 -12.582   1.252  1.00  0.00    -0.323 N 
HETATM   14  H   UNL     1      39.525 -12.152   1.323  1.00  0.00     0.169 HD
HETATM   15  O   UNL     1      37.516 -14.615   0.984  1.00  0.00    -0.267 OA
BRANCH  13  16
HETATM   16  C   UNL     1      37.537 -11.670   1.340  1.00  0.00     0.035 A 
HETATM   17  C   UNL     1      36.385 -11.739   0.556  1.00  0.00     0.029 A 
HETATM   18  C   UNL     1      35.367 -10.790   0.709  1.00  0.00     0.002 A 
HETATM   19  C   UNL     1      35.490  -9.774   1.653  1.00  0.00     0.000 A 
HETATM   20  C   UNL     1      36.634  -9.697   2.441  1.00  0.00     0.002 A 
HETATM   21  C   UNL     1      37.657 -10.637   2.280  1.00  0.00     0.029 A 
ENDBRANCH  13  16
ENDBRANCH  10  12
BRANCH   9  22
HETATM   22  C   UNL     1      40.737 -14.635   3.492  1.00  0.00    -0.025 A 
HETATM   23  C   UNL     1      39.993 -14.490   4.679  1.00  0.00     0.046 A 
HETATM   24  C   UNL     1      40.500 -13.732   5.730  1.00  0.00     0.066 A 
HETATM   25  C   UNL     1      41.733 -13.101   5.624  1.00  0.00     0.036 A 
HETATM   26  C   UNL     1      42.469 -13.217   4.448  1.00  0.00     0.003 A 
HETATM   27  C   UNL     1      41.976 -13.979   3.387  1.00  0.00     0.010 A 
BRANCH  24  28
HETATM   28  O   UNL     1      39.812 -13.583   6.897  1.00  0.00    -0.361 OA
HETATM   29  H   UNL     1      40.442 -13.550   7.636  1.00  0.00     0.217 HD
ENDBRANCH  24  28
ENDBRANCH   9  22
BRANCH   7  30
HETATM   30  C   UNL     1      43.330 -19.213   2.593  1.00  0.00     0.036 A 
HETATM   31  C   UNL     1      44.012 -19.196   3.819  1.00  0.00     0.048 A 
HETATM   32 CL   UNL     1      44.080 -17.802   4.844  1.00  0.00    -0.083 Cl
HETATM   33  C   UNL     1      44.723 -20.326   4.244  1.00  0.00     0.025 A 
HETATM   34  C   UNL     1      44.763 -21.478   3.457  1.00  0.00     0.002 A 
HETATM   35  C   UNL     1      44.098 -21.504   2.236  1.00  0.00     0.001 A 
HETATM   36  C   UNL     1      43.390 -20.380   1.807  1.00  0.00     0.017 A 
ENDBRANCH   7  30
TORSDOF 5
ENDMDL
MODEL 2
REMARK VINA RESULT:      -9.0      3.598      8.990
REMARK  5 active torsions:
REMARK  status: ('A' for Active; 'I' for Inactive)
REMARK    1  A    between atoms: C_7  and  C_8 
REMARK    2  A    between atoms: C_16  and  C_17 
REMARK    3  A    between atoms: C_19  and  O_20 
REMARK    4  A    between atoms: C_24  and  C_25 
REMARK       I    between atoms: C_25  and  N_26 
REMARK    5  A    between atoms: N_26  and  C_27 
ROOT
HETATM    1  C   UNL     1      44.688 -15.871   6.560  1.00  0.00     0.070 C 
HETATM    2  C   UNL     1      43.501 -15.108   6.024  1.00  0.00     0.037 C 
HETATM    3  N   UNL     1      43.379 -13.791   6.467  1.00  0.00    -0.192 N 
HETATM    4  C   UNL     1      42.262 -13.061   6.275  1.00  0.00     0.726 A 
HETATM    5  N   UNL     1      41.287 -13.543   5.452  1.00  0.00    -0.083 N 
HETATM    6  N   UNL     1      40.221 -12.724   5.406  1.00  0.00    -0.135 NA
HETATM    7  C   UNL     1      40.621 -11.730   6.223  1.00  0.00     0.200 A 
HETATM    8  N   UNL     1      41.884 -11.907   6.757  1.00  0.00    -0.041 NA
HETATM    9  C   UNL     1      41.407 -14.782   4.680  1.00  0.00     0.202 C 
HETATM   10  C   UNL     1      42.578 -15.626   5.173  1.00  0.00     0.062 C 
HETATM   11  H   UNL     1      44.027 -13.485   7.190  1.00  0.00     0.184 HD
ENDROOT
BRANCH  10  12
HETATM   12  C   UNL     1      42.555 -17.090   4.878  1.00  0.00     0.256 C 
HETATM   13  N   UNL     1      43.521 -17.510   3.992  1.00  0.00    -0.323 N 
HETATM   14  H   UNL     1      44.182 -16.830   3.640  1.00  0.00     0.169 HD
HETATM   15  O   UNL     1      41.689 -17.787   5.397  1.00  0.00    -0.267 OA
BRANCH  13  16
HETATM   16  C   UNL     1      43.713 -18.815   3.488  1.00  0.00     0.035 A 
HETATM   17  C   UNL     1      43.177 -19.277   2.284  1.00  0.00     0.029 A 
HETATM   18  C   UNL     1      43.416 -20.589   1.861  1.00  0.00     0.002 A 
HETATM   19  C   UNL     1      44.200 -21.445   2.631  1.00  0.00     0.000 A 
HETATM   20  C   UNL     1      44.740 -20.993   3.831  1.00  0.00     0.002 A 
HETATM   21  C   UNL     1      44.492 -19.687   4.261  1.00  0.00     0.029 A 
ENDBRANCH  13  16
ENDBRANCH  10  12
BRANCH   9  22
HETATM   22  C   UNL     1      41.502 -14.419   3.197  1.00  0.00    -0.025 A 
HETATM   23  C   UNL     1      42.074 -13.205   2.769  1.00  0.00     0.046 A 
HETATM   24  C   UNL     1      42.159 -12.918   1.409  1.00  0.00     0.066 A 
HETATM   25  C   UNL     1      41.675 -13.808   0.460  1.00  0.00     0.036 A 
HETATM   26  C   UNL     1      41.085 -15.001   0.871  1.00  0.00     0.003 A 
HETATM   27  C   UNL     1      40.998 -15.307   2.230  1.00  0.00     0.010 A 
BRANCH  24  28
HETATM   28  O   UNL     1      42.721 -11.759   0.962  1.00  0.00    -0.361 OA
HETATM   29  H   UNL     1      42.041 -11.228   0.513  1.00  0.00     0.217 HD
ENDBRANCH  24  28
ENDBRANCH   9  22
BRANCH   7  30
HETATM   30  C   UNL     1      39.826 -10.530   6.447  1.00  0.00     0.036 A 
HETATM   31  C   UNL     1      39.437 -10.094   7.722  1.00  0.00     0.048 A 
HETATM   32 CL   UNL     1      39.794 -10.971   9.171  1.00  0.00    -0.083 Cl
HETATM   33  C   UNL     1      38.682  -8.922   7.865  1.00  0.00     0.025 A 
HETATM   34  C   UNL     1      38.307  -8.178   6.745  1.00  0.00     0.002 A 
HETATM   35  C   UNL     1      38.679  -8.605   5.475  1.00  0.00     0.001 A 
HETATM   36  C   UNL     1      39.430  -9.772   5.327  1.00  0.00     0.017 A 
ENDBRANCH   7  30
TORSDOF 5
ENDMDL
MODEL 3
REMARK VINA RESULT:      -8.9      3.331      8.181
REMARK  5 active torsions:
REMARK  status: ('A' for Active; 'I' for Inactive)
REMARK    1  A    between atoms: C_7  and  C_8 
REMARK    2  A    between atoms: C_16  and  C_17 
REMARK    3  A    between atoms: C_19  and  O_20 
REMARK    4  A    between atoms: C_24  and  C_25 
REMARK       I    between atoms: C_25  and  N_26 
REMARK    5  A    between atoms: N_26  and  C_27 
ROOT
HETATM    1  C   UNL     1      40.516 -18.019   0.839  1.00  0.00     0.070 C 
HETATM    2  C   UNL     1      41.036 -16.661   1.241  1.00  0.00     0.037 C 
HETATM    3  N   UNL     1      40.712 -15.611   0.383  1.00  0.00    -0.192 N 
HETATM    4  C   UNL     1      41.292 -14.397   0.468  1.00  0.00     0.726 A 
HETATM    5  N   UNL     1      42.077 -14.111   1.546  1.00  0.00    -0.083 N 
HETATM    6  N   UNL     1      42.619 -12.883   1.458  1.00  0.00    -0.135 NA
HETATM    7  C   UNL     1      42.104 -12.454   0.290  1.00  0.00     0.200 A 
HETATM    8  N   UNL     1      41.267 -13.363  -0.331  1.00  0.00    -0.041 NA
HETATM    9  C   UNL     1      42.270 -15.016   2.681  1.00  0.00     0.202 C 
HETATM   10  C   UNL     1      41.785 -16.424   2.350  1.00  0.00     0.062 C 
HETATM   11  H   UNL     1      40.251 -15.855  -0.492  1.00  0.00     0.184 HD
ENDROOT
BRANCH  10  12
HETATM   12  C   UNL     1      42.340 -17.559   3.147  1.00  0.00     0.256 C 
HETATM   13  N   UNL     1      43.128 -18.430   2.429  1.00  0.00    -0.323 N 
HETATM   14  H   UNL     1      43.303 -18.231   1.453  1.00  0.00     0.169 HD
HETATM   15  O   UNL     1      42.039 -17.655   4.332  1.00  0.00    -0.267 OA
BRANCH  13  16
HETATM   16  C   UNL     1      43.743 -19.613   2.896  1.00  0.00     0.035 A 
HETATM   17  C   UNL     1      44.419 -19.717   4.112  1.00  0.00     0.029 A 
HETATM   18  C   UNL     1      45.002 -20.931   4.496  1.00  0.00     0.002 A 
HETATM   19  C   UNL     1      44.903 -22.049   3.672  1.00  0.00     0.000 A 
HETATM   20  C   UNL     1      44.230 -21.956   2.458  1.00  0.00     0.002 A 
HETATM   21  C   UNL     1      43.659 -20.741   2.068  1.00  0.00     0.029 A 
ENDBRANCH  13  16
ENDBRANCH  10  12
BRANCH   9  22
HETATM   22  C   UNL     1      41.581 -14.408   3.905  1.00  0.00    -0.025 A 
HETATM   23  C   UNL     1      42.301 -13.678   4.870  1.00  0.00     0.046 A 
HETATM   24  C   UNL     1      41.637 -13.125   5.961  1.00  0.00     0.066 A 
HETATM   25  C   UNL     1      40.268 -13.292   6.123  1.00  0.00     0.036 A 
HETATM   26  C   UNL     1      39.548 -14.031   5.188  1.00  0.00     0.003 A 
HETATM   27  C   UNL     1      40.198 -14.587   4.085  1.00  0.00     0.010 A 
BRANCH  24  28
HETATM   28  O   UNL     1      42.302 -12.400   6.906  1.00  0.00    -0.361 OA
HETATM   29  H   UNL     1      42.375 -12.928   7.719  1.00  0.00     0.217 HD
ENDBRANCH  24  28
ENDBRANCH   9  22
BRANCH   7  30
HETATM   30  C   UNL     1      42.335 -11.110  -0.224  1.00  0.00     0.036 A 
HETATM   31  C   UNL     1      41.734  -9.967   0.322  1.00  0.00     0.048 A 
HETATM   32 CL   UNL     1      40.593 -10.027   1.624  1.00  0.00    -0.083 Cl
HETATM   33  C   UNL     1      42.009  -8.702  -0.215  1.00  0.00     0.025 A 
HETATM   34  C   UNL     1      42.880  -8.565  -1.298  1.00  0.00     0.002 A 
HETATM   35  C   UNL     1      43.475  -9.693  -1.854  1.00  0.00     0.001 A 
HETATM   36  C   UNL     1      43.203 -10.955  -1.323  1.00  0.00     0.017 A 
ENDBRANCH   7  30
TORSDOF 5
ENDMDL
MODEL 4
REMARK VINA RESULT:      -8.9      2.582      3.274
REMARK  5 active torsions:
REMARK  status: ('A' for Active; 'I' for Inactive)
REMARK    1  A    between atoms: C_7  and  C_8 
REMARK    2  A    between atoms: C_16  and  C_17 
REMARK    3  A    between atoms: C_19  and  O_20 
REMARK    4  A    between atoms: C_24  and  C_25 
REMARK       I    between atoms: C_25  and  N_26 
REMARK    5  A    between atoms: N_26  and  C_27 
ROOT
HETATM    1  C   UNL     1      41.955 -13.035   1.077  1.00  0.00     0.070 C 
HETATM    2  C   UNL     1      42.191 -14.193   2.016  1.00  0.00     0.037 C 
HETATM    3  N   UNL     1      43.000 -15.215   1.522  1.00  0.00    -0.192 N 
HETATM    4  C   UNL     1      43.112 -16.412   2.133  1.00  0.00     0.726 A 
HETATM    5  N   UNL     1      42.579 -16.575   3.378  1.00  0.00    -0.083 N 
HETATM    6  N   UNL     1      42.730 -17.834   3.826  1.00  0.00    -0.135 NA
HETATM    7  C   UNL     1      43.391 -18.399   2.798  1.00  0.00     0.200 A 
HETATM    8  N   UNL     1      43.655 -17.537   1.748  1.00  0.00    -0.041 NA
HETATM    9  C   UNL     1      41.957 -15.496   4.148  1.00  0.00     0.202 C 
HETATM   10  C   UNL     1      41.665 -14.286   3.265  1.00  0.00     0.062 C 
HETATM   11  H   UNL     1      43.275 -15.156   0.543  1.00  0.00     0.184 HD
ENDROOT
BRANCH  10  12
HETATM   12  C   UNL     1      40.614 -13.328   3.719  1.00  0.00     0.256 C 
HETATM   13  N   UNL     1      41.101 -12.165   4.272  1.00  0.00    -0.323 N 
HETATM   14  H   UNL     1      42.103 -12.025   4.299  1.00  0.00     0.169 HD
HETATM   15  O   UNL     1      39.435 -13.644   3.607  1.00  0.00    -0.267 OA
BRANCH  13  16
HETATM   16  C   UNL     1      40.355 -11.104   4.832  1.00  0.00     0.035 A 
HETATM   17  C   UNL     1      40.187 -10.902   6.202  1.00  0.00     0.029 A 
HETATM   18  C   UNL     1      39.428  -9.824   6.671  1.00  0.00     0.002 A 
HETATM   19  C   UNL     1      38.841  -8.935   5.773  1.00  0.00     0.000 A 
HETATM   20  C   UNL     1      39.005  -9.126   4.405  1.00  0.00     0.002 A 
HETATM   21  C   UNL     1      39.752 -10.210   3.936  1.00  0.00     0.029 A 
ENDBRANCH  13  16
ENDBRANCH  10  12
BRANCH   9  22
HETATM   22  C   UNL     1      42.859 -15.173   5.341  1.00  0.00    -0.025 A 
HETATM   23  C   UNL     1      42.784 -15.904   6.543  1.00  0.00     0.046 A 
HETATM   24  C   UNL     1      43.634 -15.593   7.600  1.00  0.00     0.066 A 
HETATM   25  C   UNL     1      44.553 -14.557   7.496  1.00  0.00     0.036 A 
HETATM   26  C   UNL     1      44.621 -13.811   6.322  1.00  0.00     0.003 A 
HETATM   27  C   UNL     1      43.780 -14.115   5.250  1.00  0.00     0.010 A 
BRANCH  24  28
HETATM   28  O   UNL     1      43.597 -16.291   8.771  1.00  0.00    -0.361 OA
HETATM   29  H   UNL     1      43.097 -15.780   9.430  1.00  0.00     0.217 HD
ENDBRANCH  24  28
ENDBRANCH   9  22
BRANCH   7  30
HETATM   30  C   UNL     1      43.869 -19.774   2.832  1.00  0.00     0.036 A 
HETATM   31  C   UNL     1      44.605 -20.304   3.903  1.00  0.00     0.048 A 
HETATM   32 CL   UNL     1      45.091 -19.364   5.273  1.00  0.00    -0.083 Cl
HETATM   33  C   UNL     1      45.025 -21.641   3.876  1.00  0.00     0.025 A 
HETATM   34  C   UNL     1      44.719 -22.459   2.786  1.00  0.00     0.002 A 
HETATM   35  C   UNL     1      43.998 -21.943   1.715  1.00  0.00     0.001 A 
HETATM   36  C   UNL     1      43.579 -20.611   1.737  1.00  0.00     0.017 A 
ENDBRANCH   7  30
TORSDOF 5
ENDMDL
MODEL 5
REMARK VINA RESULT:      -8.8      2.410      4.262
REMARK  5 active torsions:
REMARK  status: ('A' for Active; 'I' for Inactive)
REMARK    1  A    between atoms: C_7  and  C_8 
REMARK    2  A    between atoms: C_16  and  C_17 
REMARK    3  A    between atoms: C_19  and  O_20 
REMARK    4  A    between atoms: C_24  and  C_25 
REMARK       I    between atoms: C_25  and  N_26 
REMARK    5  A    between atoms: N_26  and  C_27 
ROOT
HETATM    1  C   UNL     1      39.476 -13.652   6.290  1.00  0.00     0.070 C 
HETATM    2  C   UNL     1      40.319 -14.301   5.219  1.00  0.00     0.037 C 
HETATM    3  N   UNL     1      40.414 -15.690   5.284  1.00  0.00    -0.192 N 
HETATM    4  C   UNL     1      41.307 -16.392   4.558  1.00  0.00     0.726 A 
HETATM    5  N   UNL     1      42.014 -15.756   3.580  1.00  0.00    -0.083 N 
HETATM    6  N   UNL     1      42.896 -16.579   2.985  1.00  0.00    -0.135 NA
HETATM    7  C   UNL     1      42.664 -17.731   3.644  1.00  0.00     0.200 A 
HETATM    8  N   UNL     1      41.675 -17.645   4.607  1.00  0.00    -0.041 NA
HETATM    9  C   UNL     1      41.804 -14.359   3.197  1.00  0.00     0.202 C 
HETATM   10  C   UNL     1      40.972 -13.621   4.241  1.00  0.00     0.062 C 
HETATM   11  H   UNL     1      40.004 -16.145   6.098  1.00  0.00     0.184 HD
ENDROOT
BRANCH  10  12
HETATM   12  C   UNL     1      41.079 -12.132   4.294  1.00  0.00     0.256 C 
HETATM   13  N   UNL     1      40.095 -11.463   3.602  1.00  0.00    -0.323 N 
HETATM   14  H   UNL     1      39.369 -12.004   3.150  1.00  0.00     0.169 HD
HETATM   15  O   UNL     1      42.020 -11.626   4.896  1.00  0.00    -0.267 OA
BRANCH  13  16
HETATM   16  C   UNL     1      39.966 -10.067   3.430  1.00  0.00     0.035 A 
HETATM   17  C   UNL     1      40.592  -9.341   2.415  1.00  0.00     0.029 A 
HETATM   18  C   UNL     1      40.410  -7.956   2.321  1.00  0.00     0.002 A 
HETATM   19  C   UNL     1      39.594  -7.291   3.232  1.00  0.00     0.000 A 
HETATM   20  C   UNL     1      38.964  -8.006   4.246  1.00  0.00     0.002 A 
HETATM   21  C   UNL     1      39.155  -9.386   4.349  1.00  0.00     0.029 A 
ENDBRANCH  13  16
ENDBRANCH  10  12
BRANCH   9  22
HETATM   22  C   UNL     1      41.187 -14.329   1.797  1.00  0.00    -0.025 A 
HETATM   23  C   UNL     1      41.981 -14.186   0.642  1.00  0.00     0.046 A 
HETATM   24  C   UNL     1      41.385 -14.181  -0.615  1.00  0.00     0.066 A 
HETATM   25  C   UNL     1      40.009 -14.305  -0.753  1.00  0.00     0.036 A 
HETATM   26  C   UNL     1      39.210 -14.424   0.381  1.00  0.00     0.003 A 
HETATM   27  C   UNL     1      39.793 -14.436   1.649  1.00  0.00     0.010 A 
BRANCH  24  28
HETATM   28  O   UNL     1      42.126 -14.059  -1.753  1.00  0.00    -0.361 OA
HETATM   29  H   UNL     1      41.567 -14.265  -2.521  1.00  0.00     0.217 HD
ENDBRANCH  24  28
ENDBRANCH   9  22
BRANCH   7  30
HETATM   30  C   UNL     1      43.332 -18.979   3.302  1.00  0.00     0.036 A 
HETATM   31  C   UNL     1      44.325 -19.562   4.103  1.00  0.00     0.048 A 
HETATM   32 CL   UNL     1      44.921 -18.828   5.554  1.00  0.00    -0.083 Cl
HETATM   33  C   UNL     1      44.918 -20.772   3.720  1.00  0.00     0.025 A 
HETATM   34  C   UNL     1      44.533 -21.409   2.539  1.00  0.00     0.002 A 
HETATM   35  C   UNL     1      43.556 -20.836   1.731  1.00  0.00     0.001 A 
HETATM   36  C   UNL     1      42.963 -19.630   2.109  1.00  0.00     0.017 A 
ENDBRANCH   7  30
TORSDOF 5
ENDMDL
MODEL 6
REMARK VINA RESULT:      -8.6      3.112      8.400
REMARK  5 active torsions:
REMARK  status: ('A' for Active; 'I' for Inactive)
REMARK    1  A    between atoms: C_7  and  C_8 
REMARK    2  A    between atoms: C_16  and  C_17 
REMARK    3  A    between atoms: C_19  and  O_20 
REMARK    4  A    between atoms: C_24  and  C_25 
REMARK       I    between atoms: C_25  and  N_26 
REMARK    5  A    between atoms: N_26  and  C_27 
ROOT
HETATM    1  C   UNL     1      40.667 -17.773   0.586  1.00  0.00     0.070 C 
HETATM    2  C   UNL     1      41.211 -16.428   1.005  1.00  0.00     0.037 C 
HETATM    3  N   UNL     1      40.437 -15.325   0.646  1.00  0.00    -0.192 N 
HETATM    4  C   UNL     1      40.893 -14.060   0.731  1.00  0.00     0.726 A 
HETATM    5  N   UNL     1      42.074 -13.821   1.372  1.00  0.00    -0.083 N 
HETATM    6  N   UNL     1      42.413 -12.520   1.327  1.00  0.00    -0.135 NA
HETATM    7  C   UNL     1      41.371 -12.002   0.648  1.00  0.00     0.200 A 
HETATM    8  N   UNL     1      40.412 -12.930   0.285  1.00  0.00    -0.041 NA
HETATM    9  C   UNL     1      42.853 -14.851   2.061  1.00  0.00     0.202 C 
HETATM   10  C   UNL     1      42.377 -16.249   1.678  1.00  0.00     0.062 C 
HETATM   11  H   UNL     1      39.634 -15.500   0.044  1.00  0.00     0.184 HD
ENDROOT
BRANCH  10  12
HETATM   12  C   UNL     1      43.330 -17.385   1.860  1.00  0.00     0.256 C 
HETATM   13  N   UNL     1      42.855 -18.409   2.648  1.00  0.00    -0.323 N 
HETATM   14  H   UNL     1      41.912 -18.344   3.008  1.00  0.00     0.169 HD
HETATM   15  O   UNL     1      44.441 -17.315   1.346  1.00  0.00    -0.267 OA
BRANCH  13  16
HETATM   16  C   UNL     1      43.542 -19.580   3.037  1.00  0.00     0.035 A 
HETATM   17  C   UNL     1      44.187 -19.739   4.264  1.00  0.00     0.029 A 
HETATM   18  C   UNL     1      44.847 -20.936   4.567  1.00  0.00     0.002 A 
HETATM   19  C   UNL     1      44.857 -21.984   3.650  1.00  0.00     0.000 A 
HETATM   20  C   UNL     1      44.215 -21.837   2.425  1.00  0.00     0.002 A 
HETATM   21  C   UNL     1      43.567 -20.637   2.116  1.00  0.00     0.029 A 
ENDBRANCH  13  16
ENDBRANCH  10  12
BRANCH   9  22
HETATM   22  C   UNL     1      42.788 -14.579   3.566  1.00  0.00    -0.025 A 
HETATM   23  C   UNL     1      41.614 -14.811   4.308  1.00  0.00     0.046 A 
HETATM   24  C   UNL     1      41.599 -14.568   5.679  1.00  0.00     0.066 A 
HETATM   25  C   UNL     1      42.727 -14.087   6.331  1.00  0.00     0.036 A 
HETATM   26  C   UNL     1      43.887 -13.832   5.604  1.00  0.00     0.003 A 
HETATM   27  C   UNL     1      43.920 -14.075   4.230  1.00  0.00     0.010 A 
BRANCH  24  28
HETATM   28  O   UNL     1      40.484 -14.796   6.429  1.00  0.00    -0.361 OA
HETATM   29  H   UNL     1      40.566 -14.322   7.274  1.00  0.00     0.217 HD
ENDBRANCH  24  28
ENDBRANCH   9  22
BRANCH   7  30
HETATM   30  C   UNL     1      41.226 -10.574   0.402  1.00  0.00     0.036 A 
HETATM   31  C   UNL     1      41.985  -9.878  -0.550  1.00  0.00     0.048 A 
HETATM   32 CL   UNL     1      43.232 -10.622  -1.493  1.00  0.00    -0.083 Cl
HETATM   33  C   UNL     1      41.785  -8.504  -0.742  1.00  0.00     0.025 A 
HETATM   34  C   UNL     1      40.834  -7.813   0.010  1.00  0.00     0.002 A 
HETATM   35  C   UNL     1      40.081  -8.490   0.964  1.00  0.00     0.001 A 
HETATM   36  C   UNL     1      40.277  -9.858   1.160  1.00  0.00     0.017 A 
ENDBRANCH   7  30
TORSDOF 5
ENDMDL
MODEL 7
REMARK VINA RESULT:      -8.6      3.397      8.470
REMARK  5 active torsions:
REMARK  status: ('A' for Active; 'I' for Inactive)
REMARK    1  A    between atoms: C_7  and  C_8 
REMARK    2  A    between atoms: C_16  and  C_17 
REMARK    3  A    between atoms: C_19  and  O_20 
REMARK    4  A    between atoms: C_24  and  C_25 
REMARK       I    between atoms: C_25  and  N_26 
REMARK    5  A    between atoms: N_26  and  C_27 
ROOT
HETATM    1  C   UNL     1      39.852 -17.042   2.110  1.00  0.00     0.070 C 
HETATM    2  C   UNL     1      40.635 -15.959   2.812  1.00  0.00     0.037 C 
HETATM    3  N   UNL     1      39.911 -14.819   3.161  1.00  0.00    -0.192 N 
HETATM    4  C   UNL     1      40.504 -13.680   3.571  1.00  0.00     0.726 A 
HETATM    5  N   UNL     1      41.839 -13.688   3.847  1.00  0.00    -0.083 N 
HETATM    6  N   UNL     1      42.286 -12.467   4.193  1.00  0.00    -0.135 NA
HETATM    7  C   UNL     1      41.151 -11.746   4.126  1.00  0.00     0.200 A 
HETATM    8  N   UNL     1      40.034 -12.476   3.762  1.00  0.00    -0.041 NA
HETATM    9  C   UNL     1      42.674 -14.890   3.811  1.00  0.00     0.202 C 
HETATM   10  C   UNL     1      41.961 -16.035   3.098  1.00  0.00     0.062 C 
HETATM   11  H   UNL     1      38.952 -14.760   2.825  1.00  0.00     0.184 HD
ENDROOT
BRANCH  10  12
HETATM   12  C   UNL     1      42.799 -17.131   2.526  1.00  0.00     0.256 C 
HETATM   13  N   UNL     1      42.720 -18.325   3.208  1.00  0.00    -0.323 N 
HETATM   14  H   UNL     1      42.095 -18.389   4.000  1.00  0.00     0.169 HD
HETATM   15  O   UNL     1      43.500 -16.894   1.549  1.00  0.00    -0.267 OA
BRANCH  13  16
HETATM   16  C   UNL     1      43.432 -19.515   2.936  1.00  0.00     0.035 A 
HETATM   17  C   UNL     1      44.524 -19.962   3.681  1.00  0.00     0.029 A 
HETATM   18  C   UNL     1      45.173 -21.154   3.339  1.00  0.00     0.002 A 
HETATM   19  C   UNL     1      44.727 -21.912   2.258  1.00  0.00     0.000 A 
HETATM   20  C   UNL     1      43.638 -21.476   1.511  1.00  0.00     0.002 A 
HETATM   21  C   UNL     1      42.997 -20.279   1.844  1.00  0.00     0.029 A 
ENDBRANCH  13  16
ENDBRANCH  10  12
BRANCH   9  22
HETATM   22  C   UNL     1      43.090 -15.232   5.244  1.00  0.00    -0.025 A 
HETATM   23  C   UNL     1      42.530 -16.325   5.934  1.00  0.00     0.046 A 
HETATM   24  C   UNL     1      42.946 -16.615   7.230  1.00  0.00     0.066 A 
HETATM   25  C   UNL     1      43.902 -15.834   7.865  1.00  0.00     0.036 A 
HETATM   26  C   UNL     1      44.447 -14.737   7.202  1.00  0.00     0.003 A 
HETATM   27  C   UNL     1      44.045 -14.435   5.900  1.00  0.00     0.010 A 
BRANCH  24  28
HETATM   28  O   UNL     1      42.435 -17.674   7.920  1.00  0.00    -0.361 OA
HETATM   29  H   UNL     1      41.583 -17.929   7.527  1.00  0.00     0.217 HD
ENDBRANCH  24  28
ENDBRANCH   9  22
BRANCH   7  30
HETATM   30  C   UNL     1      41.091 -10.339   4.499  1.00  0.00     0.036 A 
HETATM   31  C   UNL     1      41.350  -9.878   5.799  1.00  0.00     0.048 A 
HETATM   32 CL   UNL     1      41.701 -10.935   7.125  1.00  0.00    -0.083 Cl
HETATM   33  C   UNL     1      41.286  -8.508   6.085  1.00  0.00     0.025 A 
HETATM   34  C   UNL     1      40.962  -7.588   5.087  1.00  0.00     0.002 A 
HETATM   35  C   UNL     1      40.694  -8.033   3.797  1.00  0.00     0.001 A 
HETATM   36  C   UNL     1      40.755  -9.397   3.506  1.00  0.00     0.017 A 
ENDBRANCH   7  30
TORSDOF 5
ENDMDL
MODEL 8
REMARK VINA RESULT:      -8.4      2.963      9.073
REMARK  5 active torsions:
REMARK  status: ('A' for Active; 'I' for Inactive)
REMARK    1  A    between atoms: C_7  and  C_8 
REMARK    2  A    between atoms: C_16  and  C_17 
REMARK    3  A    between atoms: C_19  and  O_20 
REMARK    4  A    between atoms: C_24  and  C_25 
REMARK       I    between atoms: C_25  and  N_26 
REMARK    5  A    between atoms: N_26  and  C_27 
ROOT
HETATM    1  C   UNL     1      44.478 -14.645   6.412  1.00  0.00     0.070 C 
HETATM    2  C   UNL     1      43.208 -14.504   5.608  1.00  0.00     0.037 C 
HETATM    3  N   UNL     1      42.844 -13.199   5.278  1.00  0.00    -0.192 N 
HETATM    4  C   UNL     1      41.631 -12.888   4.779  1.00  0.00     0.726 A 
HETATM    5  N   UNL     1      40.794 -13.893   4.394  1.00  0.00    -0.083 N 
HETATM    6  N   UNL     1      39.609 -13.421   3.967  1.00  0.00    -0.135 NA
HETATM    7  C   UNL     1      39.793 -12.094   4.101  1.00  0.00     0.200 A 
HETATM    8  N   UNL     1      41.040 -11.739   4.583  1.00  0.00    -0.041 NA
HETATM    9  C   UNL     1      41.159 -15.311   4.405  1.00  0.00     0.202 C 
HETATM   10  C   UNL     1      42.430 -15.546   5.217  1.00  0.00     0.062 C 
HETATM   11  H   UNL     1      43.394 -12.447   5.690  1.00  0.00     0.184 HD
ENDROOT
BRANCH  10  12
HETATM   12  C   UNL     1      42.669 -16.917   5.757  1.00  0.00     0.256 C 
HETATM   13  N   UNL     1      43.494 -17.701   4.982  1.00  0.00    -0.323 N 
HETATM   14  H   UNL     1      43.899 -17.299   4.147  1.00  0.00     0.169 HD
HETATM   15  O   UNL     1      42.108 -17.252   6.795  1.00  0.00    -0.267 OA
BRANCH  13  16
HETATM   16  C   UNL     1      43.858 -19.047   5.209  1.00  0.00     0.035 A 
HETATM   17  C   UNL     1      43.656 -19.721   6.414  1.00  0.00     0.029 A 
HETATM   18  C   UNL     1      44.051 -21.057   6.552  1.00  0.00     0.002 A 
HETATM   19  C   UNL     1      44.638 -21.730   5.484  1.00  0.00     0.000 A 
HETATM   20  C   UNL     1      44.841 -21.068   4.277  1.00  0.00     0.002 A 
HETATM   21  C   UNL     1      44.460 -19.730   4.143  1.00  0.00     0.029 A 
ENDBRANCH  13  16
ENDBRANCH  10  12
BRANCH   9  22
HETATM   22  C   UNL     1      41.266 -15.793   2.957  1.00  0.00    -0.025 A 
HETATM   23  C   UNL     1      41.686 -14.935   1.922  1.00  0.00     0.046 A 
HETATM   24  C   UNL     1      41.788 -15.415   0.619  1.00  0.00     0.066 A 
HETATM   25  C   UNL     1      41.469 -16.732   0.317  1.00  0.00     0.036 A 
HETATM   26  C   UNL     1      41.031 -17.585   1.326  1.00  0.00     0.003 A 
HETATM   27  C   UNL     1      40.928 -17.121   2.639  1.00  0.00     0.010 A 
BRANCH  24  28
HETATM   28  O   UNL     1      42.205 -14.614  -0.402  1.00  0.00    -0.361 OA
HETATM   29  H   UNL     1      41.546 -13.914  -0.548  1.00  0.00     0.217 HD
ENDBRANCH  24  28
ENDBRANCH   9  22
BRANCH   7  30
HETATM   30  C   UNL     1      38.798 -11.116   3.682  1.00  0.00     0.036 A 
HETATM   31  C   UNL     1      38.463  -9.988   4.445  1.00  0.00     0.048 A 
HETATM   32 CL   UNL     1      39.142  -9.665   6.004  1.00  0.00    -0.083 Cl
HETATM   33  C   UNL     1      37.503  -9.081   3.975  1.00  0.00     0.025 A 
HETATM   34  C   UNL     1      36.868  -9.290   2.750  1.00  0.00     0.002 A 
HETATM   35  C   UNL     1      37.185 -10.410   1.988  1.00  0.00     0.001 A 
HETATM   36  C   UNL     1      38.140 -11.316   2.452  1.00  0.00     0.017 A 
ENDBRANCH   7  30
TORSDOF 5
ENDMDL
MODEL 9
REMARK VINA RESULT:      -8.4      2.845      9.149
REMARK  5 active torsions:
REMARK  status: ('A' for Active; 'I' for Inactive)
REMARK    1  A    between atoms: C_7  and  C_8 
REMARK    2  A    between atoms: C_16  and  C_17 
REMARK    3  A    between atoms: C_19  and  O_20 
REMARK    4  A    between atoms: C_24  and  C_25 
REMARK       I    between atoms: C_25  and  N_26 
REMARK    5  A    between atoms: N_26  and  C_27 
ROOT
HETATM    1  C   UNL     1      40.387 -14.271   4.528  1.00  0.00     0.070 C 
HETATM    2  C   UNL     1      39.838 -13.974   3.154  1.00  0.00     0.037 C 
HETATM    3  N   UNL     1      39.112 -12.789   3.037  1.00  0.00    -0.192 N 
HETATM    4  C   UNL     1      38.364 -12.500   1.953  1.00  0.00     0.726 A 
HETATM    5  N   UNL     1      38.466 -13.290   0.846  1.00  0.00    -0.083 N 
HETATM    6  N   UNL     1      37.621 -12.900  -0.126  1.00  0.00    -0.135 NA
HETATM    7  C   UNL     1      37.031 -11.836   0.452  1.00  0.00     0.200 A 
HETATM    8  N   UNL     1      37.486 -11.558   1.729  1.00  0.00    -0.041 NA
HETATM    9  C   UNL     1      39.412 -14.399   0.717  1.00  0.00     0.202 C 
HETATM   10  C   UNL     1      40.003 -14.779   2.072  1.00  0.00     0.062 C 
HETATM   11  H   UNL     1      38.918 -12.279   3.896  1.00  0.00     0.184 HD
ENDROOT
BRANCH  10  12
HETATM   12  C   UNL     1      40.565 -16.154   2.228  1.00  0.00     0.256 C 
HETATM   13  N   UNL     1      41.923 -16.194   2.452  1.00  0.00    -0.323 N 
HETATM   14  H   UNL     1      42.426 -15.320   2.531  1.00  0.00     0.169 HD
HETATM   15  O   UNL     1      39.816 -17.118   2.114  1.00  0.00    -0.267 OA
BRANCH  13  16
HETATM   16  C   UNL     1      42.736 -17.341   2.587  1.00  0.00     0.035 A 
HETATM   17  C   UNL     1      43.194 -18.107   1.514  1.00  0.00     0.029 A 
HETATM   18  C   UNL     1      43.994 -19.233   1.739  1.00  0.00     0.002 A 
HETATM   19  C   UNL     1      44.352 -19.593   3.036  1.00  0.00     0.000 A 
HETATM   20  C   UNL     1      43.903 -18.834   4.112  1.00  0.00     0.002 A 
HETATM   21  C   UNL     1      43.092 -17.718   3.889  1.00  0.00     0.029 A 
ENDBRANCH  13  16
ENDBRANCH  10  12
BRANCH   9  22
HETATM   22  C   UNL     1      40.469 -14.015  -0.320  1.00  0.00    -0.025 A 
HETATM   23  C   UNL     1      40.709 -14.807  -1.460  1.00  0.00     0.046 A 
HETATM   24  C   UNL     1      41.667 -14.415  -2.390  1.00  0.00     0.066 A 
HETATM   25  C   UNL     1      42.405 -13.253  -2.208  1.00  0.00     0.036 A 
HETATM   26  C   UNL     1      42.195 -12.472  -1.074  1.00  0.00     0.003 A 
HETATM   27  C   UNL     1      41.234 -12.849  -0.134  1.00  0.00     0.010 A 
BRANCH  24  28
HETATM   28  O   UNL     1      41.912 -15.151  -3.511  1.00  0.00    -0.361 OA
HETATM   29  H   UNL     1      41.805 -16.094  -3.301  1.00  0.00     0.217 HD
ENDBRANCH  24  28
ENDBRANCH   9  22
BRANCH   7  30
HETATM   30  C   UNL     1      36.068 -10.997  -0.246  1.00  0.00     0.036 A 
HETATM   31  C   UNL     1      36.414 -10.160  -1.318  1.00  0.00     0.048 A 
HETATM   32 CL   UNL     1      38.038  -9.976  -1.887  1.00  0.00    -0.083 Cl
HETATM   33  C   UNL     1      35.432  -9.387  -1.952  1.00  0.00     0.025 A 
HETATM   34  C   UNL     1      34.104  -9.436  -1.526  1.00  0.00     0.002 A 
HETATM   35  C   UNL     1      33.750 -10.254  -0.458  1.00  0.00     0.001 A 
HETATM   36  C   UNL     1      34.724 -11.026   0.178  1.00  0.00     0.017 A 
ENDBRANCH   7  30
TORSDOF 5
ENDMDL
MODEL 10
REMARK VINA RESULT:      -8.4      3.575      7.970
REMARK  5 active torsions:
REMARK  status: ('A' for Active; 'I' for Inactive)
REMARK    1  A    between atoms: C_7  and  C_8 
REMARK    2  A    between atoms: C_16  and  C_17 
REMARK    3  A    between atoms: C_19  and  O_20 
REMARK    4  A    between atoms: C_24  and  C_25 
REMARK       I    between atoms: C_25  and  N_26 
REMARK    5  A    between atoms: N_26  and  C_27 
ROOT
HETATM    1  C   UNL     1      41.089 -17.764   1.204  1.00  0.00     0.070 C 
HETATM    2  C   UNL     1      41.410 -16.298   1.364  1.00  0.00     0.037 C 
HETATM    3  N   UNL     1      40.890 -15.456   0.382  1.00  0.00    -0.192 N 
HETATM    4  C   UNL     1      41.279 -14.172   0.247  1.00  0.00     0.726 A 
HETATM    5  N   UNL     1      42.057 -13.608   1.215  1.00  0.00    -0.083 N 
HETATM    6  N   UNL     1      42.398 -12.344   0.909  1.00  0.00    -0.135 NA
HETATM    7  C   UNL     1      41.773 -12.183  -0.273  1.00  0.00     0.200 A 
HETATM    8  N   UNL     1      41.060 -13.291  -0.694  1.00  0.00    -0.041 NA
HETATM    9  C   UNL     1      42.435 -14.286   2.457  1.00  0.00     0.202 C 
HETATM   10  C   UNL     1      42.160 -15.784   2.373  1.00  0.00     0.062 C 
HETATM   11  H   UNL     1      40.434 -15.898  -0.414  1.00  0.00     0.184 HD
ENDROOT
BRANCH  10  12
HETATM   12  C   UNL     1      42.918 -16.686   3.291  1.00  0.00     0.256 C 
HETATM   13  N   UNL     1      42.342 -16.854   4.530  1.00  0.00    -0.323 N 
HETATM   14  H   UNL     1      41.458 -16.401   4.718  1.00  0.00     0.169 HD
HETATM   15  O   UNL     1      43.978 -17.168   2.907  1.00  0.00    -0.267 OA
BRANCH  13  16
HETATM   16  C   UNL     1      42.850 -17.600   5.616  1.00  0.00     0.035 A 
HETATM   17  C   UNL     1      43.275 -18.926   5.526  1.00  0.00     0.029 A 
HETATM   18  C   UNL     1      43.764 -19.592   6.656  1.00  0.00     0.002 A 
HETATM   19  C   UNL     1      43.841 -18.933   7.880  1.00  0.00     0.000 A 
HETATM   20  C   UNL     1      43.422 -17.610   7.981  1.00  0.00     0.002 A 
HETATM   21  C   UNL     1      42.922 -16.949   6.856  1.00  0.00     0.029 A 
ENDBRANCH  13  16
ENDBRANCH  10  12
BRANCH   9  22
HETATM   22  C   UNL     1      41.715 -13.600   3.620  1.00  0.00    -0.025 A 
HETATM   23  C   UNL     1      42.404 -13.195   4.780  1.00  0.00     0.046 A 
HETATM   24  C   UNL     1      41.718 -12.558   5.810  1.00  0.00     0.066 A 
HETATM   25  C   UNL     1      40.352 -12.323   5.719  1.00  0.00     0.036 A 
HETATM   26  C   UNL     1      39.655 -12.738   4.587  1.00  0.00     0.003 A 
HETATM   27  C   UNL     1      40.330 -13.374   3.543  1.00  0.00     0.010 A 
BRANCH  24  28
HETATM   28  O   UNL     1      42.358 -12.141   6.939  1.00  0.00    -0.361 OA
HETATM   29  H   UNL     1      41.832 -12.398   7.715  1.00  0.00     0.217 HD
ENDBRANCH  24  28
ENDBRANCH   9  22
BRANCH   7  30
HETATM   30  C   UNL     1      41.771 -10.918  -0.995  1.00  0.00     0.036 A 
HETATM   31  C   UNL     1      40.867  -9.881  -0.723  1.00  0.00     0.048 A 
HETATM   32 CL   UNL     1      39.603 -10.012   0.454  1.00  0.00    -0.083 Cl
HETATM   33  C   UNL     1      40.929  -8.684  -1.450  1.00  0.00     0.025 A 
HETATM   34  C   UNL     1      41.885  -8.511  -2.452  1.00  0.00     0.002 A 
HETATM   35  C   UNL     1      42.781  -9.536  -2.737  1.00  0.00     0.001 A 
HETATM   36  C   UNL     1      42.723 -10.730  -2.017  1.00  0.00     0.017 A 
ENDBRANCH   7  30
TORSDOF 5
ENDMDL
