MODEL 1
REMARK VINA RESULT:      -9.2      0.000      0.000
REMARK  7 active torsions:
REMARK  status: ('A' for Active; 'I' for Inactive)
REMARK    1  A    between atoms: C_5  and  C_6 
REMARK       I    between atoms: C_6  and  N_7 
REMARK    2  A    between atoms: N_7  and  C_8 
REMARK    3  A    between atoms: C_8  and  C_9 
REMARK    4  A    between atoms: C_9  and  C_10 
REMARK    5  A    between atoms: N_15  and  C_17 
REMARK    6  A    between atoms: C_17  and  C_18 
REMARK    7  A    between atoms: C_21  and  C_22 
ROOT
HETATM    1  C   UNL     1      38.846 -11.877   3.116  1.00  0.00     0.131 A 
HETATM    2  N   UNL     1      38.902 -13.052   2.400  1.00  0.00    -0.319 N 
HETATM    3  C   UNL     1      38.287 -12.790   1.202  1.00  0.00     0.131 A 
HETATM    4  C   UNL     1      38.225 -13.697   0.025  1.00  0.00     0.108 C 
HETATM    5  C   UNL     1      39.617 -14.191  -0.349  1.00  0.00     0.243 C 
HETATM    6  N   UNL     1      40.135 -15.310   0.562  1.00  0.00    -0.065 N 
HETATM    7  H   UNL     1      39.919 -16.175   0.047  1.00  0.00     0.280 HD
HETATM    8  C   UNL     1      39.454 -15.474   1.909  1.00  0.00     0.255 C 
HETATM    9  C   UNL     1      39.572 -14.258   2.827  1.00  0.00     0.159 C 
HETATM   10  N   UNL     1      37.835 -11.558   1.220  1.00  0.00    -0.135 NA
HETATM   11  N   UNL     1      38.183 -10.989   2.412  1.00  0.00    -0.135 NA
ENDROOT
BRANCH   1  12
HETATM   12  C   UNL     1      39.508 -11.617   4.424  1.00  0.00     0.100 C 
BRANCH  12  13
HETATM   13  C   UNL     1      41.017 -11.458   4.221  1.00  0.00     0.130 C 
BRANCH  13  14
HETATM   14  N   UNL     1      41.790 -12.573   4.745  1.00  0.00    -0.360 N 
HETATM   15  C   UNL     1      42.715 -13.241   3.979  1.00  0.00     0.223 C 
HETATM   16  O   UNL     1      42.896 -12.996   2.789  1.00  0.00    -0.273 OA
HETATM   17  H   UNL     1      41.710 -12.757   5.740  1.00  0.00     0.162 HD
BRANCH  15  18
HETATM   18  C   UNL     1      43.538 -14.280   4.733  1.00  0.00     0.103 C 
HETATM   19  C   UNL     1      42.759 -15.596   4.772  1.00  0.00     0.248 C 
HETATM   20  N   UNL     1      43.537 -16.646   5.543  1.00  0.00    -0.074 N 
HETATM   21  C   UNL     1      42.838 -17.983   5.518  1.00  0.00     0.269 C 
HETATM   22  H   UNL     1      44.438 -16.791   5.066  1.00  0.00     0.279 HD
HETATM   23  C   UNL     1      43.840 -16.213   6.958  1.00  0.00     0.234 C 
HETATM   24  C   UNL     1      44.623 -14.909   6.925  1.00  0.00     0.029 C 
HETATM   25  C   UNL     1      43.889 -13.816   6.151  1.00  0.00     0.017 C 
ENDBRANCH  15  18
ENDBRANCH  13  14
ENDBRANCH  12  13
ENDBRANCH   1  12
BRANCH   6  26
HETATM   26  C   UNL     1      41.653 -15.307   0.669  1.00  0.00     0.273 C 
BRANCH  26  27
HETATM   27  C   UNL     1      42.224 -16.619   1.125  1.00  0.00    -0.033 A 
HETATM   28  C   UNL     1      41.397 -17.739   1.282  1.00  0.00     0.010 A 
HETATM   29  C   UNL     1      41.928 -18.958   1.715  1.00  0.00     0.015 A 
HETATM   30  C   UNL     1      43.295 -19.094   1.997  1.00  0.00    -0.002 A 
HETATM   31  C   UNL     1      44.117 -17.971   1.837  1.00  0.00     0.015 A 
HETATM   32  C   UNL     1      43.591 -16.746   1.410  1.00  0.00     0.010 A 
BRANCH  30  33
HETATM   33  C   UNL     1      43.850 -20.372   2.436  1.00  0.00     0.085 A 
HETATM   34  O   UNL     1      44.371 -20.399   3.701  1.00  0.00    -0.322 OA
HETATM   35  C   UNL     1      44.835 -21.655   3.924  1.00  0.00     0.142 A 
HETATM   36  C   UNL     1      44.623 -22.446   2.823  1.00  0.00     0.027 A 
HETATM   37  C   UNL     1      43.990 -21.621   1.860  1.00  0.00     0.040 A 
ENDBRANCH  30  33
ENDBRANCH  26  27
ENDBRANCH   6  26
TORSDOF 7
ENDMDL
MODEL 2
REMARK VINA RESULT:      -9.2      2.525      6.205
REMARK  7 active torsions:
REMARK  status: ('A' for Active; 'I' for Inactive)
REMARK    1  A    between atoms: C_5  and  C_6 
REMARK       I    between atoms: C_6  and  N_7 
REMARK    2  A    between atoms: N_7  and  C_8 
REMARK    3  A    between atoms: C_8  and  C_9 
REMARK    4  A    between atoms: C_9  and  C_10 
REMARK    5  A    between atoms: N_15  and  C_17 
REMARK    6  A    between atoms: C_17  and  C_18 
REMARK    7  A    between atoms: C_21  and  C_22 
ROOT
HETATM    1  C   UNL     1      41.125 -13.690   1.863  1.00  0.00     0.131 A 
HETATM    2  N   UNL     1      41.209 -13.615   3.235  1.00  0.00    -0.319 N 
HETATM    3  C   UNL     1      40.150 -14.343   3.715  1.00  0.00     0.131 A 
HETATM    4  C   UNL     1      39.889 -14.689   5.138  1.00  0.00     0.108 C 
HETATM    5  C   UNL     1      41.120 -15.322   5.773  1.00  0.00     0.243 C 
HETATM    6  N   UNL     1      42.203 -14.308   6.155  1.00  0.00    -0.065 N 
HETATM    7  H   UNL     1      42.039 -14.128   7.156  1.00  0.00     0.280 HD
HETATM    8  C   UNL     1      42.134 -12.942   5.494  1.00  0.00     0.255 C 
HETATM    9  C   UNL     1      42.271 -12.970   3.973  1.00  0.00     0.159 C 
HETATM   10  N   UNL     1      39.440 -14.775   2.699  1.00  0.00    -0.135 NA
HETATM   11  N   UNL     1      40.048 -14.369   1.545  1.00  0.00    -0.135 NA
ENDROOT
BRANCH   1  12
HETATM   12  C   UNL     1      42.135 -13.177   0.895  1.00  0.00     0.100 C 
BRANCH  12  13
HETATM   13  C   UNL     1      41.482 -12.165  -0.050  1.00  0.00     0.130 C 
BRANCH  13  14
HETATM   14  N   UNL     1      40.717 -12.785  -1.119  1.00  0.00    -0.360 N 
HETATM   15  C   UNL     1      41.260 -13.021  -2.360  1.00  0.00     0.223 C 
HETATM   16  O   UNL     1      42.391 -12.658  -2.671  1.00  0.00    -0.273 OA
HETATM   17  H   UNL     1      39.804 -13.153  -0.873  1.00  0.00     0.162 HD
BRANCH  15  18
HETATM   18  C   UNL     1      40.366 -13.814  -3.307  1.00  0.00     0.103 C 
HETATM   19  C   UNL     1      38.948 -13.245  -3.243  1.00  0.00     0.248 C 
HETATM   20  N   UNL     1      38.023 -14.032  -4.153  1.00  0.00    -0.074 N 
HETATM   21  C   UNL     1      36.638 -13.435  -4.185  1.00  0.00     0.269 C 
HETATM   22  H   UNL     1      38.382 -13.957  -5.115  1.00  0.00     0.279 HD
HETATM   23  C   UNL     1      37.980 -15.499  -3.799  1.00  0.00     0.234 C 
HETATM   24  C   UNL     1      39.387 -16.073  -3.870  1.00  0.00     0.029 C 
HETATM   25  C   UNL     1      40.365 -15.311  -2.978  1.00  0.00     0.017 C 
ENDBRANCH  15  18
ENDBRANCH  13  14
ENDBRANCH  12  13
ENDBRANCH   1  12
BRANCH   6  26
HETATM   26  C   UNL     1      43.600 -14.911   6.108  1.00  0.00     0.273 C 
BRANCH  26  27
HETATM   27  C   UNL     1      43.670 -16.199   5.338  1.00  0.00    -0.033 A 
HETATM   28  C   UNL     1      43.459 -16.213   3.954  1.00  0.00     0.010 A 
HETATM   29  C   UNL     1      43.517 -17.413   3.240  1.00  0.00     0.015 A 
HETATM   30  C   UNL     1      43.790 -18.628   3.884  1.00  0.00    -0.002 A 
HETATM   31  C   UNL     1      44.002 -18.607   5.269  1.00  0.00     0.015 A 
HETATM   32  C   UNL     1      43.939 -17.410   5.991  1.00  0.00     0.010 A 
BRANCH  30  33
HETATM   33  C   UNL     1      43.864 -19.879   3.134  1.00  0.00     0.085 A 
HETATM   34  O   UNL     1      44.550 -20.900   3.733  1.00  0.00    -0.322 OA
HETATM   35  C   UNL     1      44.511 -21.966   2.893  1.00  0.00     0.142 A 
HETATM   36  C   UNL     1      43.809 -21.653   1.755  1.00  0.00     0.027 A 
HETATM   37  C   UNL     1      43.392 -20.307   1.907  1.00  0.00     0.040 A 
ENDBRANCH  30  33
ENDBRANCH  26  27
ENDBRANCH   6  26
TORSDOF 7
ENDMDL
MODEL 3
REMARK VINA RESULT:      -9.1      4.134      4.781
REMARK  7 active torsions:
REMARK  status: ('A' for Active; 'I' for Inactive)
REMARK    1  A    between atoms: C_5  and  C_6 
REMARK       I    between atoms: C_6  and  N_7 
REMARK    2  A    between atoms: N_7  and  C_8 
REMARK    3  A    between atoms: C_8  and  C_9 
REMARK    4  A    between atoms: C_9  and  C_10 
REMARK    5  A    between atoms: N_15  and  C_17 
REMARK    6  A    between atoms: C_17  and  C_18 
REMARK    7  A    between atoms: C_21  and  C_22 
ROOT
HETATM    1  C   UNL     1      39.192 -12.029   5.450  1.00  0.00     0.131 A 
HETATM    2  N   UNL     1      39.405 -12.809   4.336  1.00  0.00    -0.319 N 
HETATM    3  C   UNL     1      39.102 -12.015   3.259  1.00  0.00     0.131 A 
HETATM    4  C   UNL     1      39.315 -12.351   1.827  1.00  0.00     0.108 C 
HETATM    5  C   UNL     1      40.750 -12.804   1.587  1.00  0.00     0.243 C 
HETATM    6  N   UNL     1      41.018 -14.247   2.028  1.00  0.00    -0.065 N 
HETATM    7  H   UNL     1      40.922 -14.798   1.163  1.00  0.00     0.280 HD
HETATM    8  C   UNL     1      40.029 -14.868   2.999  1.00  0.00     0.255 C 
HETATM    9  C   UNL     1      39.936 -14.153   4.347  1.00  0.00     0.159 C 
HETATM   10  N   UNL     1      38.674 -10.854   3.698  1.00  0.00    -0.135 NA
HETATM   11  N   UNL     1      38.730 -10.863   5.063  1.00  0.00    -0.135 NA
ENDROOT
BRANCH   1  12
HETATM   12  C   UNL     1      39.521 -12.401   6.855  1.00  0.00     0.100 C 
BRANCH  12  13
HETATM   13  C   UNL     1      39.548 -11.146   7.731  1.00  0.00     0.130 C 
BRANCH  13  14
HETATM   14  N   UNL     1      40.611 -11.160   8.724  1.00  0.00    -0.360 N 
HETATM   15  C   UNL     1      40.403 -10.750  10.019  1.00  0.00     0.223 C 
HETATM   16  O   UNL     1      39.337 -10.275  10.404  1.00  0.00    -0.273 OA
HETATM   17  H   UNL     1      41.482 -11.606   8.454  1.00  0.00     0.162 HD
BRANCH  15  18
HETATM   18  C   UNL     1      41.583 -10.974  10.957  1.00  0.00     0.103 C 
HETATM   19  C   UNL     1      41.234 -10.415  12.337  1.00  0.00     0.248 C 
HETATM   20  N   UNL     1      42.401 -10.594  13.290  1.00  0.00    -0.074 N 
HETATM   21  C   UNL     1      42.053 -10.138  14.685  1.00  0.00     0.269 C 
HETATM   22  H   UNL     1      42.599 -11.602  13.365  1.00  0.00     0.279 HD
HETATM   23  C   UNL     1      43.659  -9.923  12.792  1.00  0.00     0.234 C 
HETATM   24  C   UNL     1      44.017 -10.482  11.423  1.00  0.00     0.029 C 
HETATM   25  C   UNL     1      42.871 -10.336  10.424  1.00  0.00     0.017 C 
ENDBRANCH  15  18
ENDBRANCH  13  14
ENDBRANCH  12  13
ENDBRANCH   1  12
BRANCH   6  26
HETATM   26  C   UNL     1      42.465 -14.461   2.449  1.00  0.00     0.273 C 
BRANCH  26  27
HETATM   27  C   UNL     1      42.857 -15.908   2.534  1.00  0.00    -0.033 A 
HETATM   28  C   UNL     1      43.215 -16.477   3.764  1.00  0.00     0.010 A 
HETATM   29  C   UNL     1      43.588 -17.822   3.841  1.00  0.00     0.015 A 
HETATM   30  C   UNL     1      43.611 -18.635   2.698  1.00  0.00    -0.002 A 
HETATM   31  C   UNL     1      43.251 -18.060   1.472  1.00  0.00     0.015 A 
HETATM   32  C   UNL     1      42.883 -16.713   1.386  1.00  0.00     0.010 A 
BRANCH  30  33
HETATM   33  C   UNL     1      43.988 -20.044   2.784  1.00  0.00     0.085 A 
HETATM   34  O   UNL     1      44.485 -20.461   3.988  1.00  0.00    -0.322 OA
HETATM   35  C   UNL     1      44.777 -21.782   3.872  1.00  0.00     0.142 A 
HETATM   36  C   UNL     1      44.477 -22.230   2.610  1.00  0.00     0.027 A 
HETATM   37  C   UNL     1      43.969 -21.110   1.905  1.00  0.00     0.040 A 
ENDBRANCH  30  33
ENDBRANCH  26  27
ENDBRANCH   6  26
TORSDOF 7
ENDMDL
MODEL 4
REMARK VINA RESULT:      -8.9      1.470      2.275
REMARK  7 active torsions:
REMARK  status: ('A' for Active; 'I' for Inactive)
REMARK    1  A    between atoms: C_5  and  C_6 
REMARK       I    between atoms: C_6  and  N_7 
REMARK    2  A    between atoms: N_7  and  C_8 
REMARK    3  A    between atoms: C_8  and  C_9 
REMARK    4  A    between atoms: C_9  and  C_10 
REMARK    5  A    between atoms: N_15  and  C_17 
REMARK    6  A    between atoms: C_17  and  C_18 
REMARK    7  A    between atoms: C_21  and  C_22 
ROOT
HETATM    1  C   UNL     1      38.775 -12.157   2.202  1.00  0.00     0.131 A 
HETATM    2  N   UNL     1      39.189 -13.363   1.683  1.00  0.00    -0.319 N 
HETATM    3  C   UNL     1      39.157 -13.216   0.320  1.00  0.00     0.131 A 
HETATM    4  C   UNL     1      39.657 -14.190  -0.686  1.00  0.00     0.108 C 
HETATM    5  C   UNL     1      41.090 -14.601  -0.371  1.00  0.00     0.243 C 
HETATM    6  N   UNL     1      41.198 -15.626   0.764  1.00  0.00    -0.065 N 
HETATM    7  H   UNL     1      41.266 -16.532   0.281  1.00  0.00     0.280 HD
HETATM    8  C   UNL     1      39.998 -15.763   1.687  1.00  0.00     0.255 C 
HETATM    9  C   UNL     1      39.649 -14.491   2.459  1.00  0.00     0.159 C 
HETATM   10  N   UNL     1      38.693 -12.020   0.036  1.00  0.00    -0.135 NA
HETATM   11  N   UNL     1      38.456 -11.361   1.208  1.00  0.00    -0.135 NA
ENDROOT
BRANCH   1  12
HETATM   12  C   UNL     1      38.780 -11.775   3.642  1.00  0.00     0.100 C 
BRANCH  12  13
HETATM   13  C   UNL     1      40.134 -11.165   4.013  1.00  0.00     0.130 C 
BRANCH  13  14
HETATM   14  N   UNL     1      40.842 -11.915   5.038  1.00  0.00    -0.360 N 
HETATM   15  C   UNL     1      41.983 -12.629   4.760  1.00  0.00     0.223 C 
HETATM   16  O   UNL     1      42.435 -12.745   3.624  1.00  0.00    -0.273 OA
HETATM   17  H   UNL     1      40.531 -11.786   5.996  1.00  0.00     0.162 HD
BRANCH  15  18
HETATM   18  C   UNL     1      42.675 -13.227   5.980  1.00  0.00     0.103 C 
HETATM   19  C   UNL     1      43.032 -12.100   6.950  1.00  0.00     0.248 C 
HETATM   20  N   UNL     1      43.751 -12.657   8.165  1.00  0.00    -0.074 N 
HETATM   21  C   UNL     1      44.031 -11.582   9.185  1.00  0.00     0.269 C 
HETATM   22  H   UNL     1      43.121 -13.327   8.629  1.00  0.00     0.279 HD
HETATM   23  C   UNL     1      45.011 -13.403   7.795  1.00  0.00     0.234 C 
HETATM   24  C   UNL     1      44.661 -14.532   6.837  1.00  0.00     0.029 C 
HETATM   25  C   UNL     1      43.925 -14.027   5.597  1.00  0.00     0.017 C 
ENDBRANCH  15  18
ENDBRANCH  13  14
ENDBRANCH  12  13
ENDBRANCH   1  12
BRANCH   6  26
HETATM   26  C   UNL     1      42.511 -15.507   1.524  1.00  0.00     0.273 C 
BRANCH  26  27
HETATM   27  C   UNL     1      42.973 -16.801   2.129  1.00  0.00    -0.033 A 
HETATM   28  C   UNL     1      43.499 -17.817   1.320  1.00  0.00     0.010 A 
HETATM   29  C   UNL     1      43.921 -19.025   1.883  1.00  0.00     0.015 A 
HETATM   30  C   UNL     1      43.834 -19.251   3.264  1.00  0.00    -0.002 A 
HETATM   31  C   UNL     1      43.309 -18.231   4.068  1.00  0.00     0.015 A 
HETATM   32  C   UNL     1      42.878 -17.021   3.510  1.00  0.00     0.010 A 
BRANCH  30  33
HETATM   33  C   UNL     1      44.289 -20.508   3.852  1.00  0.00     0.085 A 
HETATM   34  O   UNL     1      44.250 -21.604   3.033  1.00  0.00    -0.322 OA
HETATM   35  C   UNL     1      44.703 -22.665   3.749  1.00  0.00     0.142 A 
HETATM   36  C   UNL     1      45.037 -22.275   5.022  1.00  0.00     0.027 A 
HETATM   37  C   UNL     1      44.770 -20.885   5.092  1.00  0.00     0.040 A 
ENDBRANCH  30  33
ENDBRANCH  26  27
ENDBRANCH   6  26
TORSDOF 7
ENDMDL
MODEL 5
REMARK VINA RESULT:      -8.9      2.723      5.836
REMARK  7 active torsions:
REMARK  status: ('A' for Active; 'I' for Inactive)
REMARK    1  A    between atoms: C_5  and  C_6 
REMARK       I    between atoms: C_6  and  N_7 
REMARK    2  A    between atoms: N_7  and  C_8 
REMARK    3  A    between atoms: C_8  and  C_9 
REMARK    4  A    between atoms: C_9  and  C_10 
REMARK    5  A    between atoms: N_15  and  C_17 
REMARK    6  A    between atoms: C_17  and  C_18 
REMARK    7  A    between atoms: C_21  and  C_22 
ROOT
HETATM    1  C   UNL     1      40.039 -11.587   0.308  1.00  0.00     0.131 A 
HETATM    2  N   UNL     1      40.293 -12.310   1.452  1.00  0.00    -0.319 N 
HETATM    3  C   UNL     1      39.303 -13.257   1.524  1.00  0.00     0.131 A 
HETATM    4  C   UNL     1      39.222 -14.377   2.499  1.00  0.00     0.108 C 
HETATM    5  C   UNL     1      40.524 -15.168   2.519  1.00  0.00     0.243 C 
HETATM    6  N   UNL     1      41.646 -14.483   3.308  1.00  0.00    -0.065 N 
HETATM    7  H   UNL     1      41.608 -14.925   4.238  1.00  0.00     0.280 HD
HETATM    8  C   UNL     1      41.493 -12.995   3.574  1.00  0.00     0.255 C 
HETATM    9  C   UNL     1      41.438 -12.132   2.314  1.00  0.00     0.159 C 
HETATM   10  N   UNL     1      38.472 -13.076   0.524  1.00  0.00    -0.135 NA
HETATM   11  N   UNL     1      38.930 -12.036  -0.234  1.00  0.00    -0.135 NA
ENDROOT
BRANCH   1  12
HETATM   12  C   UNL     1      40.919 -10.538  -0.278  1.00  0.00     0.100 C 
BRANCH  12  13
HETATM   13  C   UNL     1      41.725 -11.126  -1.440  1.00  0.00     0.130 C 
BRANCH  13  14
HETATM   14  N   UNL     1      40.928 -11.950  -2.335  1.00  0.00    -0.360 N 
HETATM   15  C   UNL     1      41.398 -13.139  -2.839  1.00  0.00     0.223 C 
HETATM   16  O   UNL     1      42.539 -13.545  -2.635  1.00  0.00    -0.273 OA
HETATM   17  H   UNL     1      39.961 -11.674  -2.470  1.00  0.00     0.162 HD
BRANCH  15  18
HETATM   18  C   UNL     1      40.376 -13.942  -3.636  1.00  0.00     0.103 C 
HETATM   19  C   UNL     1      38.995 -13.311  -3.450  1.00  0.00     0.248 C 
HETATM   20  N   UNL     1      37.946 -14.105  -4.207  1.00  0.00    -0.074 N 
HETATM   21  C   UNL     1      36.589 -13.452  -4.121  1.00  0.00     0.269 C 
HETATM   22  H   UNL     1      38.199 -14.098  -5.205  1.00  0.00     0.279 HD
HETATM   23  C   UNL     1      37.889 -15.548  -3.766  1.00  0.00     0.234 C 
HETATM   24  C   UNL     1      39.258 -16.185  -3.957  1.00  0.00     0.029 C 
HETATM   25  C   UNL     1      40.356 -15.418  -3.223  1.00  0.00     0.017 C 
ENDBRANCH  15  18
ENDBRANCH  13  14
ENDBRANCH  12  13
ENDBRANCH   1  12
BRANCH   6  26
HETATM   26  C   UNL     1      43.026 -14.844   2.778  1.00  0.00     0.273 C 
BRANCH  26  27
HETATM   27  C   UNL     1      43.355 -16.304   2.909  1.00  0.00    -0.033 A 
HETATM   28  C   UNL     1      43.688 -17.063   1.779  1.00  0.00     0.010 A 
HETATM   29  C   UNL     1      43.986 -18.423   1.902  1.00  0.00     0.015 A 
HETATM   30  C   UNL     1      43.963 -19.061   3.150  1.00  0.00    -0.002 A 
HETATM   31  C   UNL     1      43.631 -18.297   4.276  1.00  0.00     0.015 A 
HETATM   32  C   UNL     1      43.325 -16.935   4.160  1.00  0.00     0.010 A 
BRANCH  30  33
HETATM   33  C   UNL     1      44.289 -20.480   3.277  1.00  0.00     0.085 A 
HETATM   34  O   UNL     1      44.648 -20.905   4.527  1.00  0.00    -0.322 OA
HETATM   35  C   UNL     1      44.912 -22.234   4.445  1.00  0.00     0.142 A 
HETATM   36  C   UNL     1      44.728 -22.680   3.160  1.00  0.00     0.027 A 
HETATM   37  C   UNL     1      44.328 -21.550   2.403  1.00  0.00     0.040 A 
ENDBRANCH  30  33
ENDBRANCH  26  27
ENDBRANCH   6  26
TORSDOF 7
ENDMDL
MODEL 6
REMARK VINA RESULT:      -8.7      3.565      4.200
REMARK  7 active torsions:
REMARK  status: ('A' for Active; 'I' for Inactive)
REMARK    1  A    between atoms: C_5  and  C_6 
REMARK       I    between atoms: C_6  and  N_7 
REMARK    2  A    between atoms: N_7  and  C_8 
REMARK    3  A    between atoms: C_8  and  C_9 
REMARK    4  A    between atoms: C_9  and  C_10 
REMARK    5  A    between atoms: N_15  and  C_17 
REMARK    6  A    between atoms: C_17  and  C_18 
REMARK    7  A    between atoms: C_21  and  C_22 
ROOT
HETATM    1  C   UNL     1      39.292 -12.103   4.650  1.00  0.00     0.131 A 
HETATM    2  N   UNL     1      39.473 -13.047   3.665  1.00  0.00    -0.319 N 
HETATM    3  C   UNL     1      39.095 -12.444   2.493  1.00  0.00     0.131 A 
HETATM    4  C   UNL     1      39.248 -13.003   1.123  1.00  0.00     0.108 C 
HETATM    5  C   UNL     1      40.683 -13.458   0.885  1.00  0.00     0.243 C 
HETATM    6  N   UNL     1      41.015 -14.805   1.536  1.00  0.00    -0.065 N 
HETATM    7  H   UNL     1      40.893 -15.490   0.777  1.00  0.00     0.280 HD
HETATM    8  C   UNL     1      40.092 -15.281   2.645  1.00  0.00     0.255 C 
HETATM    9  C   UNL     1      40.043 -14.360   3.863  1.00  0.00     0.159 C 
HETATM   10  N   UNL     1      38.655 -11.237   2.762  1.00  0.00    -0.135 NA
HETATM   11  N   UNL     1      38.778 -11.024   4.106  1.00  0.00    -0.135 NA
ENDROOT
BRANCH   1  12
HETATM   12  C   UNL     1      39.699 -12.235   6.077  1.00  0.00     0.100 C 
BRANCH  12  13
HETATM   13  C   UNL     1      40.895 -11.324   6.363  1.00  0.00     0.130 C 
BRANCH  13  14
HETATM   14  N   UNL     1      41.440 -11.492   7.700  1.00  0.00    -0.360 N 
HETATM   15  C   UNL     1      42.024 -10.452   8.384  1.00  0.00     0.223 C 
HETATM   16  O   UNL     1      42.194  -9.341   7.887  1.00  0.00    -0.273 OA
HETATM   17  H   UNL     1      41.257 -12.378   8.161  1.00  0.00     0.162 HD
BRANCH  15  18
HETATM   18  C   UNL     1      42.401 -10.769   9.827  1.00  0.00     0.103 C 
HETATM   19  C   UNL     1      41.528  -9.932  10.763  1.00  0.00     0.248 C 
HETATM   20  N   UNL     1      41.899 -10.201  12.210  1.00  0.00    -0.074 N 
HETATM   21  C   UNL     1      40.991  -9.462  13.161  1.00  0.00     0.269 C 
HETATM   22  H   UNL     1      41.748 -11.201  12.398  1.00  0.00     0.279 HD
HETATM   23  C   UNL     1      43.352  -9.902  12.496  1.00  0.00     0.234 C 
HETATM   24  C   UNL     1      44.226 -10.739  11.574  1.00  0.00     0.029 C 
HETATM   25  C   UNL     1      43.888 -10.515  10.101  1.00  0.00     0.017 C 
ENDBRANCH  15  18
ENDBRANCH  13  14
ENDBRANCH  12  13
ENDBRANCH   1  12
BRANCH   6  26
HETATM   26  C   UNL     1      42.485 -14.917   1.909  1.00  0.00     0.273 C 
BRANCH  26  27
HETATM   27  C   UNL     1      42.919 -16.320   2.225  1.00  0.00    -0.033 A 
HETATM   28  C   UNL     1      43.142 -17.244   1.196  1.00  0.00     0.010 A 
HETATM   29  C   UNL     1      43.537 -18.552   1.492  1.00  0.00     0.015 A 
HETATM   30  C   UNL     1      43.724 -18.971   2.816  1.00  0.00    -0.002 A 
HETATM   31  C   UNL     1      43.501 -18.042   3.841  1.00  0.00     0.015 A 
HETATM   32  C   UNL     1      43.099 -16.733   3.553  1.00  0.00     0.010 A 
BRANCH  30  33
HETATM   33  C   UNL     1      44.151 -20.335   3.122  1.00  0.00     0.085 A 
HETATM   34  O   UNL     1      44.645 -20.543   4.381  1.00  0.00    -0.322 OA
HETATM   35  C   UNL     1      44.986 -21.854   4.474  1.00  0.00     0.142 A 
HETATM   36  C   UNL     1      44.721 -22.502   3.293  1.00  0.00     0.027 A 
HETATM   37  C   UNL     1      44.184 -21.524   2.418  1.00  0.00     0.040 A 
ENDBRANCH  30  33
ENDBRANCH  26  27
ENDBRANCH   6  26
TORSDOF 7
ENDMDL
MODEL 7
REMARK VINA RESULT:      -8.7      1.562      2.153
REMARK  7 active torsions:
REMARK  status: ('A' for Active; 'I' for Inactive)
REMARK    1  A    between atoms: C_5  and  C_6 
REMARK       I    between atoms: C_6  and  N_7 
REMARK    2  A    between atoms: N_7  and  C_8 
REMARK    3  A    between atoms: C_8  and  C_9 
REMARK    4  A    between atoms: C_9  and  C_10 
REMARK    5  A    between atoms: N_15  and  C_17 
REMARK    6  A    between atoms: C_17  and  C_18 
REMARK    7  A    between atoms: C_21  and  C_22 
ROOT
HETATM    1  C   UNL     1      38.630 -11.933   0.832  1.00  0.00     0.131 A 
HETATM    2  N   UNL     1      39.275 -13.077   0.422  1.00  0.00    -0.319 N 
HETATM    3  C   UNL     1      39.842 -12.774  -0.790  1.00  0.00     0.131 A 
HETATM    4  C   UNL     1      40.771 -13.633  -1.571  1.00  0.00     0.108 C 
HETATM    5  C   UNL     1      41.932 -14.100  -0.701  1.00  0.00     0.243 C 
HETATM    6  N   UNL     1      41.567 -15.249   0.245  1.00  0.00    -0.065 N 
HETATM    7  H   UNL     1      41.876 -16.095  -0.255  1.00  0.00     0.280 HD
HETATM    8  C   UNL     1      40.090 -15.473   0.520  1.00  0.00     0.255 C 
HETATM    9  C   UNL     1      39.388 -14.294   1.192  1.00  0.00     0.159 C 
HETATM   10  N   UNL     1      39.507 -11.547  -1.117  1.00  0.00    -0.135 NA
HETATM   11  N   UNL     1      38.752 -11.023  -0.106  1.00  0.00    -0.135 NA
ENDROOT
BRANCH   1  12
HETATM   12  C   UNL     1      37.985 -11.719   2.158  1.00  0.00     0.100 C 
BRANCH  12  13
HETATM   13  C   UNL     1      39.019 -11.202   3.162  1.00  0.00     0.130 C 
BRANCH  13  14
HETATM   14  N   UNL     1      39.457 -12.214   4.110  1.00  0.00    -0.360 N 
HETATM   15  C   UNL     1      40.772 -12.603   4.204  1.00  0.00     0.223 C 
HETATM   16  O   UNL     1      41.645 -12.185   3.448  1.00  0.00    -0.273 OA
HETATM   17  H   UNL     1      38.772 -12.530   4.789  1.00  0.00     0.162 HD
BRANCH  15  18
HETATM   18  C   UNL     1      41.074 -13.560   5.351  1.00  0.00     0.103 C 
HETATM   19  C   UNL     1      42.589 -13.732   5.468  1.00  0.00     0.248 C 
HETATM   20  N   UNL     1      42.925 -14.704   6.583  1.00  0.00    -0.074 N 
HETATM   21  C   UNL     1      44.416 -14.822   6.786  1.00  0.00     0.269 C 
HETATM   22  H   UNL     1      42.552 -14.322   7.463  1.00  0.00     0.279 HD
HETATM   23  C   UNL     1      42.292 -16.059   6.376  1.00  0.00     0.234 C 
HETATM   24  C   UNL     1      40.783 -15.896   6.269  1.00  0.00     0.029 C 
HETATM   25  C   UNL     1      40.388 -14.917   5.164  1.00  0.00     0.017 C 
ENDBRANCH  15  18
ENDBRANCH  13  14
ENDBRANCH  12  13
ENDBRANCH   1  12
BRANCH   6  26
HETATM   26  C   UNL     1      42.404 -15.238   1.515  1.00  0.00     0.273 C 
BRANCH  26  27
HETATM   27  C   UNL     1      42.851 -16.603   1.951  1.00  0.00    -0.033 A 
HETATM   28  C   UNL     1      42.339 -17.180   3.120  1.00  0.00     0.010 A 
HETATM   29  C   UNL     1      42.762 -18.448   3.530  1.00  0.00     0.015 A 
HETATM   30  C   UNL     1      43.701 -19.175   2.785  1.00  0.00    -0.002 A 
HETATM   31  C   UNL     1      44.209 -18.593   1.616  1.00  0.00     0.015 A 
HETATM   32  C   UNL     1      43.795 -17.322   1.203  1.00  0.00     0.010 A 
BRANCH  30  33
HETATM   33  C   UNL     1      44.131 -20.506   3.208  1.00  0.00     0.085 A 
HETATM   34  O   UNL     1      44.591 -20.609   4.492  1.00  0.00    -0.322 OA
HETATM   35  C   UNL     1      44.942 -21.905   4.696  1.00  0.00     0.142 A 
HETATM   36  C   UNL     1      44.715 -22.646   3.563  1.00  0.00     0.027 A 
HETATM   37  C   UNL     1      44.194 -21.746   2.600  1.00  0.00     0.040 A 
ENDBRANCH  30  33
ENDBRANCH  26  27
ENDBRANCH   6  26
TORSDOF 7
ENDMDL
MODEL 8
REMARK VINA RESULT:      -8.6      2.055      4.470
REMARK  7 active torsions:
REMARK  status: ('A' for Active; 'I' for Inactive)
REMARK    1  A    between atoms: C_5  and  C_6 
REMARK       I    between atoms: C_6  and  N_7 
REMARK    2  A    between atoms: N_7  and  C_8 
REMARK    3  A    between atoms: C_8  and  C_9 
REMARK    4  A    between atoms: C_9  and  C_10 
REMARK    5  A    between atoms: N_15  and  C_17 
REMARK    6  A    between atoms: C_17  and  C_18 
REMARK    7  A    between atoms: C_21  and  C_22 
ROOT
HETATM    1  C   UNL     1      40.097 -10.286   3.418  1.00  0.00     0.131 A 
HETATM    2  N   UNL     1      40.510 -11.398   4.117  1.00  0.00    -0.319 N 
HETATM    3  C   UNL     1      39.406 -12.205   4.223  1.00  0.00     0.131 A 
HETATM    4  C   UNL     1      39.374 -13.591   4.763  1.00  0.00     0.108 C 
HETATM    5  C   UNL     1      40.429 -14.457   4.086  1.00  0.00     0.243 C 
HETATM    6  N   UNL     1      41.848 -14.219   4.614  1.00  0.00    -0.065 N 
HETATM    7  H   UNL     1      41.986 -14.965   5.312  1.00  0.00     0.280 HD
HETATM    8  C   UNL     1      42.096 -12.925   5.369  1.00  0.00     0.255 C 
HETATM    9  C   UNL     1      41.865 -11.660   4.543  1.00  0.00     0.159 C 
HETATM   10  N   UNL     1      38.381 -11.592   3.679  1.00  0.00    -0.135 NA
HETATM   11  N   UNL     1      38.811 -10.396   3.178  1.00  0.00    -0.135 NA
ENDROOT
BRANCH   1  12
HETATM   12  C   UNL     1      40.972  -9.186   2.926  1.00  0.00     0.100 C 
BRANCH  12  13
HETATM   13  C   UNL     1      41.076  -9.247   1.400  1.00  0.00     0.130 C 
BRANCH  13  14
HETATM   14  N   UNL     1      41.100 -10.605   0.878  1.00  0.00    -0.360 N 
HETATM   15  C   UNL     1      42.171 -11.092   0.168  1.00  0.00     0.223 C 
HETATM   16  O   UNL     1      43.138 -10.398  -0.139  1.00  0.00    -0.273 OA
HETATM   17  H   UNL     1      40.348 -11.220   1.170  1.00  0.00     0.162 HD
BRANCH  15  18
HETATM   18  C   UNL     1      42.091 -12.576  -0.170  1.00  0.00     0.103 C 
HETATM   19  C   UNL     1      41.759 -12.731  -1.655  1.00  0.00     0.248 C 
HETATM   20  N   UNL     1      41.642 -14.199  -2.019  1.00  0.00    -0.074 N 
HETATM   21  C   UNL     1      41.409 -14.386  -3.497  1.00  0.00     0.269 C 
HETATM   22  H   UNL     1      42.545 -14.651  -1.817  1.00  0.00     0.279 HD
HETATM   23  C   UNL     1      40.588 -14.911  -1.204  1.00  0.00     0.234 C 
HETATM   24  C   UNL     1      40.919 -14.769   0.275  1.00  0.00     0.029 C 
HETATM   25  C   UNL     1      41.059 -13.307   0.695  1.00  0.00     0.017 C 
ENDBRANCH  15  18
ENDBRANCH  13  14
ENDBRANCH  12  13
ENDBRANCH   1  12
BRANCH   6  26
HETATM   26  C   UNL     1      42.909 -14.494   3.559  1.00  0.00     0.273 C 
BRANCH  26  27
HETATM   27  C   UNL     1      43.195 -15.955   3.363  1.00  0.00    -0.033 A 
HETATM   28  C   UNL     1      43.647 -16.432   2.125  1.00  0.00     0.010 A 
HETATM   29  C   UNL     1      43.905 -17.794   1.941  1.00  0.00     0.015 A 
HETATM   30  C   UNL     1      43.724 -18.713   2.984  1.00  0.00    -0.002 A 
HETATM   31  C   UNL     1      43.274 -18.230   4.220  1.00  0.00     0.015 A 
HETATM   32  C   UNL     1      43.007 -16.869   4.409  1.00  0.00     0.010 A 
BRANCH  30  33
HETATM   33  C   UNL     1      44.008 -20.134   2.794  1.00  0.00     0.085 A 
HETATM   34  O   UNL     1      44.518 -20.796   3.877  1.00  0.00    -0.322 OA
HETATM   35  C   UNL     1      44.716 -22.088   3.510  1.00  0.00     0.142 A 
HETATM   36  C   UNL     1      44.341 -22.276   2.203  1.00  0.00     0.027 A 
HETATM   37  C   UNL     1      43.886 -21.017   1.737  1.00  0.00     0.040 A 
ENDBRANCH  30  33
ENDBRANCH  26  27
ENDBRANCH   6  26
TORSDOF 7
ENDMDL
MODEL 9
REMARK VINA RESULT:      -8.6      4.107      7.494
REMARK  7 active torsions:
REMARK  status: ('A' for Active; 'I' for Inactive)
REMARK    1  A    between atoms: C_5  and  C_6 
REMARK       I    between atoms: C_6  and  N_7 
REMARK    2  A    between atoms: N_7  and  C_8 
REMARK    3  A    between atoms: C_8  and  C_9 
REMARK    4  A    between atoms: C_9  and  C_10 
REMARK    5  A    between atoms: N_15  and  C_17 
REMARK    6  A    between atoms: C_17  and  C_18 
REMARK    7  A    between atoms: C_21  and  C_22 
ROOT
HETATM    1  C   UNL     1      43.996 -15.122   6.867  1.00  0.00     0.131 A 
HETATM    2  N   UNL     1      43.608 -15.884   5.788  1.00  0.00    -0.319 N 
HETATM    3  C   UNL     1      43.245 -17.103   6.301  1.00  0.00     0.131 A 
HETATM    4  C   UNL     1      42.612 -18.222   5.554  1.00  0.00     0.108 C 
HETATM    5  C   UNL     1      41.384 -17.736   4.793  1.00  0.00     0.243 C 
HETATM    6  N   UNL     1      41.723 -16.984   3.501  1.00  0.00    -0.065 N 
HETATM    7  H   UNL     1      41.637 -17.699   2.764  1.00  0.00     0.280 HD
HETATM    8  C   UNL     1      43.137 -16.448   3.364  1.00  0.00     0.255 C 
HETATM    9  C   UNL     1      43.525 -15.417   4.424  1.00  0.00     0.159 C 
HETATM   10  N   UNL     1      43.459 -17.097   7.596  1.00  0.00    -0.135 NA
HETATM   11  N   UNL     1      43.927 -15.862   7.949  1.00  0.00    -0.135 NA
ENDROOT
BRANCH   1  12
HETATM   12  C   UNL     1      44.341 -13.673   6.837  1.00  0.00     0.100 C 
BRANCH  12  13
HETATM   13  C   UNL     1      44.990 -13.266   8.162  1.00  0.00     0.130 C 
BRANCH  13  14
HETATM   14  N   UNL     1      44.078 -12.584   9.065  1.00  0.00    -0.360 N 
HETATM   15  C   UNL     1      44.423 -12.288  10.363  1.00  0.00     0.223 C 
HETATM   16  O   UNL     1      45.485 -12.645  10.867  1.00  0.00    -0.273 OA
HETATM   17  H   UNL     1      43.221 -12.220   8.661  1.00  0.00     0.162 HD
BRANCH  15  18
HETATM   18  C   UNL     1      43.406 -11.438  11.116  1.00  0.00     0.103 C 
HETATM   19  C   UNL     1      42.446 -10.803  10.109  1.00  0.00     0.248 C 
HETATM   20  N   UNL     1      41.437  -9.925  10.823  1.00  0.00    -0.074 N 
HETATM   21  C   UNL     1      40.417  -9.360   9.866  1.00  0.00     0.269 C 
HETATM   22  H   UNL     1      40.907 -10.516  11.480  1.00  0.00     0.279 HD
HETATM   23  C   UNL     1      42.095  -8.831  11.630  1.00  0.00     0.234 C 
HETATM   24  C   UNL     1      43.044  -9.457  12.641  1.00  0.00     0.029 C 
HETATM   25  C   UNL     1      44.079 -10.363  11.975  1.00  0.00     0.017 C 
ENDBRANCH  15  18
ENDBRANCH  13  14
ENDBRANCH  12  13
ENDBRANCH   1  12
BRANCH   6  26
HETATM   26  C   UNL     1      40.666 -15.949   3.144  1.00  0.00     0.273 C 
BRANCH  26  27
HETATM   27  C   UNL     1      40.982 -15.176   1.896  1.00  0.00    -0.033 A 
HETATM   28  C   UNL     1      40.940 -15.799   0.642  1.00  0.00     0.010 A 
HETATM   29  C   UNL     1      41.243 -15.080  -0.518  1.00  0.00     0.015 A 
HETATM   30  C   UNL     1      41.591 -13.723  -0.460  1.00  0.00    -0.002 A 
HETATM   31  C   UNL     1      41.630 -13.105   0.797  1.00  0.00     0.015 A 
HETATM   32  C   UNL     1      41.334 -13.820   1.963  1.00  0.00     0.010 A 
BRANCH  30  33
HETATM   33  C   UNL     1      41.893 -12.970  -1.675  1.00  0.00     0.085 A 
HETATM   34  O   UNL     1      41.249 -13.378  -2.811  1.00  0.00    -0.322 OA
HETATM   35  C   UNL     1      41.656 -12.569  -3.823  1.00  0.00     0.142 A 
HETATM   36  C   UNL     1      42.555 -11.640  -3.361  1.00  0.00     0.027 A 
HETATM   37  C   UNL     1      42.712 -11.898  -1.976  1.00  0.00     0.040 A 
ENDBRANCH  30  33
ENDBRANCH  26  27
ENDBRANCH   6  26
TORSDOF 7
ENDMDL
MODEL 10
REMARK VINA RESULT:      -8.4      3.419      4.951
REMARK  7 active torsions:
REMARK  status: ('A' for Active; 'I' for Inactive)
REMARK    1  A    between atoms: C_5  and  C_6 
REMARK       I    between atoms: C_6  and  N_7 
REMARK    2  A    between atoms: N_7  and  C_8 
REMARK    3  A    between atoms: C_8  and  C_9 
REMARK    4  A    between atoms: C_9  and  C_10 
REMARK    5  A    between atoms: N_15  and  C_17 
REMARK    6  A    between atoms: C_17  and  C_18 
REMARK    7  A    between atoms: C_21  and  C_22 
ROOT
HETATM    1  C   UNL     1      43.391 -14.193   5.176  1.00  0.00     0.131 A 
HETATM    2  N   UNL     1      42.353 -13.817   4.354  1.00  0.00    -0.319 N 
HETATM    3  C   UNL     1      42.935 -13.378   3.192  1.00  0.00     0.131 A 
HETATM    4  C   UNL     1      42.230 -13.006   1.937  1.00  0.00     0.108 C 
HETATM    5  C   UNL     1      41.278 -14.115   1.505  1.00  0.00     0.243 C 
HETATM    6  N   UNL     1      39.970 -14.145   2.303  1.00  0.00    -0.065 N 
HETATM    7  H   UNL     1      39.302 -13.629   1.712  1.00  0.00     0.280 HD
HETATM    8  C   UNL     1      39.958 -13.418   3.636  1.00  0.00     0.255 C 
HETATM    9  C   UNL     1      40.950 -13.966   4.662  1.00  0.00     0.159 C 
HETATM   10  N   UNL     1      44.240 -13.428   3.329  1.00  0.00    -0.135 NA
HETATM   11  N   UNL     1      44.524 -13.936   4.564  1.00  0.00    -0.135 NA
ENDROOT
BRANCH   1  12
HETATM   12  C   UNL     1      43.262 -14.871   6.496  1.00  0.00     0.100 C 
BRANCH  12  13
HETATM   13  C   UNL     1      44.303 -14.315   7.471  1.00  0.00     0.130 C 
BRANCH  13  14
HETATM   14  N   UNL     1      43.843 -13.144   8.199  1.00  0.00    -0.360 N 
HETATM   15  C   UNL     1      44.695 -12.378   8.958  1.00  0.00     0.223 C 
HETATM   16  O   UNL     1      45.875 -12.671   9.135  1.00  0.00    -0.273 OA
HETATM   17  H   UNL     1      42.891 -12.840   8.021  1.00  0.00     0.162 HD
BRANCH  15  18
HETATM   18  C   UNL     1      44.075 -11.106   9.526  1.00  0.00     0.103 C 
HETATM   19  C   UNL     1      43.951 -11.250  11.044  1.00  0.00     0.248 C 
HETATM   20  N   UNL     1      43.308 -10.012  11.640  1.00  0.00    -0.074 N 
HETATM   21  C   UNL     1      43.258 -10.083  13.146  1.00  0.00     0.269 C 
HETATM   22  H   UNL     1      43.905  -9.203  11.417  1.00  0.00     0.279 HD
HETATM   23  C   UNL     1      41.941  -9.737  11.059  1.00  0.00     0.234 C 
HETATM   24  C   UNL     1      42.060  -9.583   9.550  1.00  0.00     0.029 C 
HETATM   25  C   UNL     1      42.712 -10.800   8.898  1.00  0.00     0.017 C 
ENDBRANCH  15  18
ENDBRANCH  13  14
ENDBRANCH  12  13
ENDBRANCH   1  12
BRANCH   6  26
HETATM   26  C   UNL     1      39.384 -15.547   2.394  1.00  0.00     0.273 C 
BRANCH  26  27
HETATM   27  C   UNL     1      40.424 -16.628   2.453  1.00  0.00    -0.033 A 
HETATM   28  C   UNL     1      41.019 -16.978   3.672  1.00  0.00     0.010 A 
HETATM   29  C   UNL     1      41.993 -17.979   3.725  1.00  0.00     0.015 A 
HETATM   30  C   UNL     1      42.396 -18.660   2.567  1.00  0.00    -0.002 A 
HETATM   31  C   UNL     1      41.797 -18.306   1.351  1.00  0.00     0.015 A 
HETATM   32  C   UNL     1      40.826 -17.301   1.290  1.00  0.00     0.010 A 
BRANCH  30  33
HETATM   33  C   UNL     1      43.405 -19.716   2.627  1.00  0.00     0.085 A 
HETATM   34  O   UNL     1      44.274 -19.658   3.681  1.00  0.00    -0.322 OA
HETATM   35  C   UNL     1      45.127 -20.708   3.564  1.00  0.00     0.142 A 
HETATM   36  C   UNL     1      44.824 -21.449   2.449  1.00  0.00     0.027 A 
HETATM   37  C   UNL     1      43.714 -20.810   1.841  1.00  0.00     0.040 A 
ENDBRANCH  30  33
ENDBRANCH  26  27
ENDBRANCH   6  26
TORSDOF 7
ENDMDL
