MODEL 1
REMARK VINA RESULT:      -7.9      0.000      0.000
REMARK  5 active torsions:
REMARK  status: ('A' for Active; 'I' for Inactive)
REMARK    1  A    between atoms: C_2  and  C_3 
REMARK    2  A    between atoms: C_4  and  N_5 
REMARK       I    between atoms: N_5  and  C_6 
REMARK    3  A    between atoms: C_6  and  C_7 
REMARK    4  A    between atoms: C_10  and  O_11 
REMARK    5  A    between atoms: C_20  and  C_21 
ROOT
HETATM    1  C   UNL     1      43.119 -17.407   3.811  1.00  0.00     0.018 A 
HETATM    2  C   UNL     1      43.054 -16.204   3.131  1.00  0.00     0.133 A 
HETATM    3  N   UNL     1      43.723 -16.386   1.960  1.00  0.00    -0.261 N 
HETATM    4  H   UNL     1      43.898 -15.693   1.237  1.00  0.00     0.191 HD
HETATM    5  N   UNL     1      44.127 -17.641   1.770  1.00  0.00    -0.172 NA
HETATM    6  C   UNL     1      43.767 -18.311   2.883  1.00  0.00     0.097 A 
ENDROOT
BRANCH   2   7
HETATM    7  N   UNL     1      42.409 -15.057   3.568  1.00  0.00    -0.307 N 
HETATM    8  C   UNL     1      41.026 -14.818   3.280  1.00  0.00     0.260 C 
HETATM    9  O   UNL     1      40.426 -15.572   2.530  1.00  0.00    -0.267 OA
HETATM   10  H   UNL     1      42.925 -14.407   4.151  1.00  0.00     0.170 HD
BRANCH   8  11
HETATM   11  C   UNL     1      40.386 -13.645   3.908  1.00  0.00     0.073 A 
HETATM   12  C   UNL     1      40.076 -13.645   5.269  1.00  0.00     0.165 A 
HETATM   13  F   UNL     1      40.427 -14.703   6.017  1.00  0.00    -0.202 F 
HETATM   14  C   UNL     1      39.424 -12.555   5.849  1.00  0.00     0.107 A 
HETATM   15  C   UNL     1      39.135 -11.439   5.058  1.00  0.00     0.040 A 
HETATM   16  C   UNL     1      39.445 -11.429   3.696  1.00  0.00     0.004 A 
HETATM   17  C   UNL     1      40.059 -12.538   3.115  1.00  0.00     0.020 A 
BRANCH  14  18
HETATM   18  O   UNL     1      39.051 -12.442   7.159  1.00  0.00    -0.353 OA
HETATM   19  C   UNL     1      39.566 -11.320   7.868  1.00  0.00     0.210 C 
ENDBRANCH  14  18
ENDBRANCH   8  11
ENDBRANCH   2   7
BRANCH   1  20
HETATM   20  C   UNL     1      42.615 -17.642   5.198  1.00  0.00     0.040 C 
HETATM   21  C   UNL     1      41.123 -17.931   5.246  1.00  0.00     0.010 C 
ENDBRANCH   1  20
BRANCH   6  22
HETATM   22  C   UNL     1      44.062 -19.760   2.952  1.00  0.00    -0.002 A 
HETATM   23  C   UNL     1      43.710 -20.582   1.869  1.00  0.00     0.033 A 
HETATM   24  C   UNL     1      43.958 -21.944   1.930  1.00  0.00     0.117 A 
HETATM   25  N   UNL     1      44.534 -22.548   2.986  1.00  0.00    -0.273 NA
HETATM   26  C   UNL     1      44.869 -21.754   4.021  1.00  0.00     0.117 A 
HETATM   27  C   UNL     1      44.653 -20.381   4.052  1.00  0.00     0.033 A 
ENDBRANCH   6  22
TORSDOF 5
ENDMDL
MODEL 2
REMARK VINA RESULT:      -7.6      4.264      6.089
REMARK  5 active torsions:
REMARK  status: ('A' for Active; 'I' for Inactive)
REMARK    1  A    between atoms: C_2  and  C_3 
REMARK    2  A    between atoms: C_4  and  N_5 
REMARK       I    between atoms: N_5  and  C_6 
REMARK    3  A    between atoms: C_6  and  C_7 
REMARK    4  A    between atoms: C_10  and  O_11 
REMARK    5  A    between atoms: C_20  and  C_21 
ROOT
HETATM    1  C   UNL     1      41.724 -17.197   2.933  1.00  0.00     0.018 A 
HETATM    2  C   UNL     1      40.735 -16.330   2.507  1.00  0.00     0.133 A 
HETATM    3  N   UNL     1      40.258 -15.709   3.621  1.00  0.00    -0.261 N 
HETATM    4  H   UNL     1      39.500 -15.035   3.673  1.00  0.00     0.191 HD
HETATM    5  N   UNL     1      40.930 -16.021   4.729  1.00  0.00    -0.172 NA
HETATM    6  C   UNL     1      41.852 -16.928   4.351  1.00  0.00     0.097 A 
ENDROOT
BRANCH   2   7
HETATM    7  N   UNL     1      40.337 -16.132   1.193  1.00  0.00    -0.307 N 
HETATM    8  C   UNL     1      40.719 -14.960   0.463  1.00  0.00     0.260 C 
HETATM    9  O   UNL     1      41.300 -14.052   1.037  1.00  0.00    -0.267 OA
HETATM   10  H   UNL     1      39.812 -16.867   0.734  1.00  0.00     0.170 HD
BRANCH   8  11
HETATM   11  C   UNL     1      40.374 -14.902  -0.972  1.00  0.00     0.073 A 
HETATM   12  C   UNL     1      39.212 -14.258  -1.400  1.00  0.00     0.165 A 
HETATM   13  F   UNL     1      38.442 -13.632  -0.494  1.00  0.00    -0.202 F 
HETATM   14  C   UNL     1      38.861 -14.249  -2.751  1.00  0.00     0.107 A 
HETATM   15  C   UNL     1      39.718 -14.849  -3.678  1.00  0.00     0.040 A 
HETATM   16  C   UNL     1      40.885 -15.493  -3.258  1.00  0.00     0.004 A 
HETATM   17  C   UNL     1      41.208 -15.533  -1.903  1.00  0.00     0.020 A 
BRANCH  14  18
HETATM   18  O   UNL     1      37.745 -13.673  -3.291  1.00  0.00    -0.353 OA
HETATM   19  C   UNL     1      36.895 -14.528  -4.049  1.00  0.00     0.210 C 
ENDBRANCH  14  18
ENDBRANCH   8  11
ENDBRANCH   2   7
BRANCH   1  20
HETATM   20  C   UNL     1      42.451 -18.170   2.064  1.00  0.00     0.040 C 
HETATM   21  C   UNL     1      43.637 -17.550   1.342  1.00  0.00     0.010 C 
ENDBRANCH   1  20
BRANCH   6  22
HETATM   22  C   UNL     1      42.783 -17.446   5.379  1.00  0.00    -0.002 A 
HETATM   23  C   UNL     1      42.441 -17.327   6.736  1.00  0.00     0.033 A 
HETATM   24  C   UNL     1      43.314 -17.786   7.709  1.00  0.00     0.117 A 
HETATM   25  N   UNL     1      44.501 -18.358   7.432  1.00  0.00    -0.273 NA
HETATM   26  C   UNL     1      44.823 -18.470   6.129  1.00  0.00     0.117 A 
HETATM   27  C   UNL     1      44.015 -18.033   5.086  1.00  0.00     0.033 A 
ENDBRANCH   6  22
TORSDOF 5
ENDMDL
MODEL 3
REMARK VINA RESULT:      -7.4      1.504      1.877
REMARK  5 active torsions:
REMARK  status: ('A' for Active; 'I' for Inactive)
REMARK    1  A    between atoms: C_2  and  C_3 
REMARK    2  A    between atoms: C_4  and  N_5 
REMARK       I    between atoms: N_5  and  C_6 
REMARK    3  A    between atoms: C_6  and  C_7 
REMARK    4  A    between atoms: C_10  and  O_11 
REMARK    5  A    between atoms: C_20  and  C_21 
ROOT
HETATM    1  C   UNL     1      43.257 -17.546   4.090  1.00  0.00     0.018 A 
HETATM    2  C   UNL     1      43.166 -16.292   3.514  1.00  0.00     0.133 A 
HETATM    3  N   UNL     1      43.750 -16.387   2.288  1.00  0.00    -0.261 N 
HETATM    4  H   UNL     1      43.888 -15.640   1.611  1.00  0.00     0.191 HD
HETATM    5  N   UNL     1      44.118 -17.627   1.971  1.00  0.00    -0.172 NA
HETATM    6  C   UNL     1      43.823 -18.380   3.049  1.00  0.00     0.097 A 
ENDROOT
BRANCH   2   7
HETATM    7  N   UNL     1      42.574 -15.175   4.084  1.00  0.00    -0.307 N 
HETATM    8  C   UNL     1      41.360 -14.621   3.562  1.00  0.00     0.260 C 
HETATM    9  O   UNL     1      40.897 -15.056   2.519  1.00  0.00    -0.267 OA
HETATM   10  H   UNL     1      42.990 -14.786   4.923  1.00  0.00     0.170 HD
BRANCH   8  11
HETATM   11  C   UNL     1      40.725 -13.524   4.319  1.00  0.00     0.073 A 
HETATM   12  C   UNL     1      40.916 -12.194   3.942  1.00  0.00     0.165 A 
HETATM   13  F   UNL     1      41.636 -11.926   2.840  1.00  0.00    -0.202 F 
HETATM   14  C   UNL     1      40.357 -11.156   4.689  1.00  0.00     0.107 A 
HETATM   15  C   UNL     1      39.556 -11.470   5.791  1.00  0.00     0.040 A 
HETATM   16  C   UNL     1      39.356 -12.798   6.172  1.00  0.00     0.004 A 
HETATM   17  C   UNL     1      39.951 -13.828   5.446  1.00  0.00     0.020 A 
BRANCH  14  18
HETATM   18  O   UNL     1      40.487  -9.819   4.436  1.00  0.00    -0.353 OA
HETATM   19  C   UNL     1      41.511  -9.137   5.153  1.00  0.00     0.210 C 
ENDBRANCH  14  18
ENDBRANCH   8  11
ENDBRANCH   2   7
BRANCH   1  20
HETATM   20  C   UNL     1      42.845 -17.885   5.485  1.00  0.00     0.040 C 
HETATM   21  C   UNL     1      43.986 -17.771   6.484  1.00  0.00     0.010 C 
ENDBRANCH   1  20
BRANCH   6  22
HETATM   22  C   UNL     1      44.096 -19.833   2.982  1.00  0.00    -0.002 A 
HETATM   23  C   UNL     1      43.748 -20.543   1.821  1.00  0.00     0.033 A 
HETATM   24  C   UNL     1      43.975 -21.907   1.753  1.00  0.00     0.117 A 
HETATM   25  N   UNL     1      44.526 -22.619   2.755  1.00  0.00    -0.273 NA
HETATM   26  C   UNL     1      44.858 -21.934   3.865  1.00  0.00     0.117 A 
HETATM   27  C   UNL     1      44.661 -20.567   4.025  1.00  0.00     0.033 A 
ENDBRANCH   6  22
TORSDOF 5
ENDMDL
MODEL 4
REMARK VINA RESULT:      -7.4      3.657      8.082
REMARK  5 active torsions:
REMARK  status: ('A' for Active; 'I' for Inactive)
REMARK    1  A    between atoms: C_2  and  C_3 
REMARK    2  A    between atoms: C_4  and  N_5 
REMARK       I    between atoms: N_5  and  C_6 
REMARK    3  A    between atoms: C_6  and  C_7 
REMARK    4  A    between atoms: C_10  and  O_11 
REMARK    5  A    between atoms: C_20  and  C_21 
ROOT
HETATM    1  C   UNL     1      41.716 -15.295   1.462  1.00  0.00     0.018 A 
HETATM    2  C   UNL     1      41.786 -16.532   0.848  1.00  0.00     0.133 A 
HETATM    3  N   UNL     1      41.440 -16.338  -0.454  1.00  0.00    -0.261 N 
HETATM    4  H   UNL     1      41.353 -17.044  -1.180  1.00  0.00     0.191 HD
HETATM    5  N   UNL     1      41.255 -15.057  -0.767  1.00  0.00    -0.172 NA
HETATM    6  C   UNL     1      41.426 -14.373   0.382  1.00  0.00     0.097 A 
ENDROOT
BRANCH   2   7
HETATM    7  N   UNL     1      42.158 -17.722   1.456  1.00  0.00    -0.307 N 
HETATM    8  C   UNL     1      43.533 -18.109   1.566  1.00  0.00     0.260 C 
HETATM    9  O   UNL     1      44.394 -17.448   1.007  1.00  0.00    -0.267 OA
HETATM   10  H   UNL     1      41.434 -18.293   1.877  1.00  0.00     0.170 HD
BRANCH   8  11
HETATM   11  C   UNL     1      43.845 -19.317   2.356  1.00  0.00     0.073 A 
HETATM   12  C   UNL     1      44.106 -19.226   3.724  1.00  0.00     0.165 A 
HETATM   13  F   UNL     1      44.006 -18.031   4.329  1.00  0.00    -0.202 F 
HETATM   14  C   UNL     1      44.452 -20.362   4.459  1.00  0.00     0.107 A 
HETATM   15  C   UNL     1      44.480 -21.603   3.815  1.00  0.00     0.040 A 
HETATM   16  C   UNL     1      44.216 -21.703   2.447  1.00  0.00     0.004 A 
HETATM   17  C   UNL     1      43.912 -20.558   1.711  1.00  0.00     0.020 A 
BRANCH  14  18
HETATM   18  O   UNL     1      44.748 -20.402   5.793  1.00  0.00    -0.353 OA
HETATM   19  C   UNL     1      43.844 -21.128   6.619  1.00  0.00     0.210 C 
ENDBRANCH  14  18
ENDBRANCH   8  11
ENDBRANCH   2   7
BRANCH   1  20
HETATM   20  C   UNL     1      41.905 -15.044   2.922  1.00  0.00     0.040 C 
HETATM   21  C   UNL     1      43.322 -14.617   3.272  1.00  0.00     0.010 C 
ENDBRANCH   1  20
BRANCH   6  22
HETATM   22  C   UNL     1      41.310 -12.898   0.341  1.00  0.00    -0.002 A 
HETATM   23  C   UNL     1      40.198 -12.282   0.939  1.00  0.00     0.033 A 
HETATM   24  C   UNL     1      40.065 -10.904   0.887  1.00  0.00     0.117 A 
HETATM   25  N   UNL     1      40.958 -10.093   0.289  1.00  0.00    -0.273 NA
HETATM   26  C   UNL     1      42.021 -10.690  -0.282  1.00  0.00     0.117 A 
HETATM   27  C   UNL     1      42.235 -12.063  -0.286  1.00  0.00     0.033 A 
ENDBRANCH   6  22
TORSDOF 5
ENDMDL
MODEL 5
REMARK VINA RESULT:      -7.3      4.044      5.878
REMARK  5 active torsions:
REMARK  status: ('A' for Active; 'I' for Inactive)
REMARK    1  A    between atoms: C_2  and  C_3 
REMARK    2  A    between atoms: C_4  and  N_5 
REMARK       I    between atoms: N_5  and  C_6 
REMARK    3  A    between atoms: C_6  and  C_7 
REMARK    4  A    between atoms: C_10  and  O_11 
REMARK    5  A    between atoms: C_20  and  C_21 
ROOT
HETATM    1  C   UNL     1      42.596 -17.386   3.194  1.00  0.00     0.018 A 
HETATM    2  C   UNL     1      41.580 -16.762   2.493  1.00  0.00     0.133 A 
HETATM    3  N   UNL     1      40.565 -16.566   3.378  1.00  0.00    -0.261 N 
HETATM    4  H   UNL     1      39.651 -16.162   3.187  1.00  0.00     0.191 HD
HETATM    5  N   UNL     1      40.875 -16.913   4.626  1.00  0.00    -0.172 NA
HETATM    6  C   UNL     1      42.124 -17.415   4.563  1.00  0.00     0.097 A 
ENDROOT
BRANCH   2   7
HETATM    7  N   UNL     1      41.619 -16.398   1.155  1.00  0.00    -0.307 N 
HETATM    8  C   UNL     1      41.070 -15.155   0.701  1.00  0.00     0.260 C 
HETATM    9  O   UNL     1      40.441 -14.452   1.477  1.00  0.00    -0.267 OA
HETATM   10  H   UNL     1      42.099 -17.008   0.504  1.00  0.00     0.170 HD
BRANCH   8  11
HETATM   11  C   UNL     1      41.286 -14.785  -0.712  1.00  0.00     0.073 A 
HETATM   12  C   UNL     1      41.888 -13.571  -1.047  1.00  0.00     0.165 A 
HETATM   13  F   UNL     1      42.331 -12.770  -0.064  1.00  0.00    -0.202 F 
HETATM   14  C   UNL     1      42.044 -13.200  -2.384  1.00  0.00     0.107 A 
HETATM   15  C   UNL     1      41.636 -14.086  -3.385  1.00  0.00     0.040 A 
HETATM   16  C   UNL     1      41.036 -15.304  -3.058  1.00  0.00     0.004 A 
HETATM   17  C   UNL     1      40.846 -15.650  -1.721  1.00  0.00     0.020 A 
BRANCH  14  18
HETATM   18  O   UNL     1      42.598 -12.036  -2.839  1.00  0.00    -0.353 OA
HETATM   19  C   UNL     1      41.761 -10.884  -2.808  1.00  0.00     0.210 C 
ENDBRANCH  14  18
ENDBRANCH   8  11
ENDBRANCH   2   7
BRANCH   1  20
HETATM   20  C   UNL     1      43.867 -17.896   2.598  1.00  0.00     0.040 C 
HETATM   21  C   UNL     1      43.778 -19.350   2.163  1.00  0.00     0.010 C 
ENDBRANCH   1  20
BRANCH   6  22
HETATM   22  C   UNL     1      42.760 -17.864   5.822  1.00  0.00    -0.002 A 
HETATM   23  C   UNL     1      42.780 -16.997   6.927  1.00  0.00     0.033 A 
HETATM   24  C   UNL     1      43.393 -17.394   8.104  1.00  0.00     0.117 A 
HETATM   25  N   UNL     1      43.985 -18.592   8.265  1.00  0.00    -0.273 NA
HETATM   26  C   UNL     1      43.963 -19.419   7.202  1.00  0.00     0.117 A 
HETATM   27  C   UNL     1      43.378 -19.104   5.982  1.00  0.00     0.033 A 
ENDBRANCH   6  22
TORSDOF 5
ENDMDL
MODEL 6
REMARK VINA RESULT:      -7.3      2.158      2.899
REMARK  5 active torsions:
REMARK  status: ('A' for Active; 'I' for Inactive)
REMARK    1  A    between atoms: C_2  and  C_3 
REMARK    2  A    between atoms: C_4  and  N_5 
REMARK       I    between atoms: N_5  and  C_6 
REMARK    3  A    between atoms: C_6  and  C_7 
REMARK    4  A    between atoms: C_10  and  O_11 
REMARK    5  A    between atoms: C_20  and  C_21 
ROOT
HETATM    1  C   UNL     1      42.712 -17.362   5.521  1.00  0.00     0.018 A 
HETATM    2  C   UNL     1      43.111 -16.266   6.264  1.00  0.00     0.133 A 
HETATM    3  N   UNL     1      44.370 -16.537   6.706  1.00  0.00    -0.261 N 
HETATM    4  H   UNL     1      44.948 -15.958   7.310  1.00  0.00     0.191 HD
HETATM    5  N   UNL     1      44.868 -17.673   6.222  1.00  0.00    -0.172 NA
HETATM    6  C   UNL     1      43.884 -18.213   5.476  1.00  0.00     0.097 A 
ENDROOT
BRANCH   2   7
HETATM    7  N   UNL     1      42.365 -15.118   6.485  1.00  0.00    -0.307 N 
HETATM    8  C   UNL     1      42.597 -13.918   5.739  1.00  0.00     0.260 C 
HETATM    9  O   UNL     1      43.551 -13.854   4.978  1.00  0.00    -0.267 OA
HETATM   10  H   UNL     1      41.604 -15.160   7.154  1.00  0.00     0.170 HD
BRANCH   8  11
HETATM   11  C   UNL     1      41.662 -12.793   5.938  1.00  0.00     0.073 A 
HETATM   12  C   UNL     1      40.428 -12.768   5.286  1.00  0.00     0.165 A 
HETATM   13  F   UNL     1      40.072 -13.815   4.523  1.00  0.00    -0.202 F 
HETATM   14  C   UNL     1      39.567 -11.679   5.436  1.00  0.00     0.107 A 
HETATM   15  C   UNL     1      39.935 -10.636   6.291  1.00  0.00     0.040 A 
HETATM   16  C   UNL     1      41.167 -10.656   6.950  1.00  0.00     0.004 A 
HETATM   17  C   UNL     1      42.039 -11.727   6.764  1.00  0.00     0.020 A 
BRANCH  14  18
HETATM   18  O   UNL     1      38.347 -11.527   4.839  1.00  0.00    -0.353 OA
HETATM   19  C   UNL     1      38.357 -11.095   3.482  1.00  0.00     0.210 C 
ENDBRANCH  14  18
ENDBRANCH   8  11
ENDBRANCH   2   7
BRANCH   1  20
HETATM   20  C   UNL     1      41.353 -17.556   4.932  1.00  0.00     0.040 C 
HETATM   21  C   UNL     1      41.227 -16.984   3.529  1.00  0.00     0.010 C 
ENDBRANCH   1  20
BRANCH   6  22
HETATM   22  C   UNL     1      44.158 -19.487   4.774  1.00  0.00    -0.002 A 
HETATM   23  C   UNL     1      44.517 -20.619   5.525  1.00  0.00     0.033 A 
HETATM   24  C   UNL     1      44.799 -21.812   4.880  1.00  0.00     0.117 A 
HETATM   25  N   UNL     1      44.748 -21.964   3.543  1.00  0.00    -0.273 NA
HETATM   26  C   UNL     1      44.402 -20.876   2.829  1.00  0.00     0.117 A 
HETATM   27  C   UNL     1      44.109 -19.638   3.388  1.00  0.00     0.033 A 
ENDBRANCH   6  22
TORSDOF 5
ENDMDL
MODEL 7
REMARK VINA RESULT:      -7.3      3.165      8.479
REMARK  5 active torsions:
REMARK  status: ('A' for Active; 'I' for Inactive)
REMARK    1  A    between atoms: C_2  and  C_3 
REMARK    2  A    between atoms: C_4  and  N_5 
REMARK       I    between atoms: N_5  and  C_6 
REMARK    3  A    between atoms: C_6  and  C_7 
REMARK    4  A    between atoms: C_10  and  O_11 
REMARK    5  A    between atoms: C_20  and  C_21 
ROOT
HETATM    1  C   UNL     1      40.297 -15.138   1.762  1.00  0.00     0.018 A 
HETATM    2  C   UNL     1      40.748 -15.979   2.763  1.00  0.00     0.133 A 
HETATM    3  N   UNL     1      40.349 -15.425   3.941  1.00  0.00    -0.261 N 
HETATM    4  H   UNL     1      40.544 -15.766   4.879  1.00  0.00     0.191 HD
HETATM    5  N   UNL     1      39.581 -14.348   3.787  1.00  0.00    -0.172 NA
HETATM    6  C   UNL     1      39.512 -14.139   2.457  1.00  0.00     0.097 A 
ENDROOT
BRANCH   2   7
HETATM    7  N   UNL     1      41.450 -17.161   2.579  1.00  0.00    -0.307 N 
HETATM    8  C   UNL     1      42.709 -17.393   3.222  1.00  0.00     0.260 C 
HETATM    9  O   UNL     1      43.245 -16.490   3.845  1.00  0.00    -0.267 OA
HETATM   10  H   UNL     1      41.023 -17.891   2.020  1.00  0.00     0.170 HD
BRANCH   8  11
HETATM   11  C   UNL     1      43.312 -18.734   3.086  1.00  0.00     0.073 A 
HETATM   12  C   UNL     1      44.080 -19.277   4.118  1.00  0.00     0.165 A 
HETATM   13  F   UNL     1      44.209 -18.591   5.265  1.00  0.00    -0.202 F 
HETATM   14  C   UNL     1      44.693 -20.523   3.967  1.00  0.00     0.107 A 
HETATM   15  C   UNL     1      44.482 -21.243   2.787  1.00  0.00     0.040 A 
HETATM   16  C   UNL     1      43.713 -20.708   1.752  1.00  0.00     0.004 A 
HETATM   17  C   UNL     1      43.138 -19.446   1.893  1.00  0.00     0.020 A 
BRANCH  14  18
HETATM   18  O   UNL     1      45.481 -21.151   4.890  1.00  0.00    -0.353 OA
HETATM   19  C   UNL     1      45.131 -22.494   5.210  1.00  0.00     0.210 C 
ENDBRANCH  14  18
ENDBRANCH   8  11
ENDBRANCH   2   7
BRANCH   1  20
HETATM   20  C   UNL     1      40.601 -15.290   0.307  1.00  0.00     0.040 C 
HETATM   21  C   UNL     1      41.556 -14.228  -0.214  1.00  0.00     0.010 C 
ENDBRANCH   1  20
BRANCH   6  22
HETATM   22  C   UNL     1      38.688 -13.010   1.969  1.00  0.00    -0.002 A 
HETATM   23  C   UNL     1      37.713 -13.247   0.987  1.00  0.00     0.033 A 
HETATM   24  C   UNL     1      36.952 -12.196   0.504  1.00  0.00     0.117 A 
HETATM   25  N   UNL     1      37.085 -10.925   0.929  1.00  0.00    -0.273 NA
HETATM   26  C   UNL     1      38.021 -10.704   1.871  1.00  0.00     0.117 A 
HETATM   27  C   UNL     1      38.835 -11.693   2.408  1.00  0.00     0.033 A 
ENDBRANCH   6  22
TORSDOF 5
ENDMDL
MODEL 8
REMARK VINA RESULT:      -7.1      3.527      3.924
REMARK  5 active torsions:
REMARK  status: ('A' for Active; 'I' for Inactive)
REMARK    1  A    between atoms: C_2  and  C_3 
REMARK    2  A    between atoms: C_4  and  N_5 
REMARK       I    between atoms: N_5  and  C_6 
REMARK    3  A    between atoms: C_6  and  C_7 
REMARK    4  A    between atoms: C_10  and  O_11 
REMARK    5  A    between atoms: C_20  and  C_21 
ROOT
HETATM    1  C   UNL     1      42.198 -17.500   2.482  1.00  0.00     0.018 A 
HETATM    2  C   UNL     1      42.134 -16.530   1.498  1.00  0.00     0.133 A 
HETATM    3  N   UNL     1      43.135 -16.808   0.618  1.00  0.00    -0.261 N 
HETATM    4  H   UNL     1      43.396 -16.274  -0.207  1.00  0.00     0.191 HD
HETATM    5  N   UNL     1      43.779 -17.942   0.888  1.00  0.00    -0.172 NA
HETATM    6  C   UNL     1      43.227 -18.411   2.025  1.00  0.00     0.097 A 
ENDROOT
BRANCH   2   7
HETATM    7  N   UNL     1      41.210 -15.499   1.430  1.00  0.00    -0.307 N 
HETATM    8  C   UNL     1      40.703 -15.029   0.175  1.00  0.00     0.260 C 
HETATM    9  O   UNL     1      41.180 -15.451  -0.867  1.00  0.00    -0.267 OA
HETATM   10  H   UNL     1      40.852 -15.116   2.297  1.00  0.00     0.170 HD
BRANCH   8  11
HETATM   11  C   UNL     1      39.616 -14.029   0.205  1.00  0.00     0.073 A 
HETATM   12  C   UNL     1      39.811 -12.749  -0.316  1.00  0.00     0.165 A 
HETATM   13  F   UNL     1      40.982 -12.456  -0.905  1.00  0.00    -0.202 F 
HETATM   14  C   UNL     1      38.800 -11.789  -0.241  1.00  0.00     0.107 A 
HETATM   15  C   UNL     1      37.568 -12.146   0.316  1.00  0.00     0.040 A 
HETATM   16  C   UNL     1      37.364 -13.426   0.836  1.00  0.00     0.004 A 
HETATM   17  C   UNL     1      38.392 -14.366   0.795  1.00  0.00     0.020 A 
BRANCH  14  18
HETATM   18  O   UNL     1      38.874 -10.502  -0.694  1.00  0.00    -0.353 OA
HETATM   19  C   UNL     1      39.155  -9.504   0.283  1.00  0.00     0.210 C 
ENDBRANCH  14  18
ENDBRANCH   8  11
ENDBRANCH   2   7
BRANCH   1  20
HETATM   20  C   UNL     1      41.359 -17.529   3.718  1.00  0.00     0.040 C 
HETATM   21  C   UNL     1      42.026 -16.850   4.904  1.00  0.00     0.010 C 
ENDBRANCH   1  20
BRANCH   6  22
HETATM   22  C   UNL     1      43.725 -19.696   2.565  1.00  0.00    -0.002 A 
HETATM   23  C   UNL     1      44.293 -19.726   3.850  1.00  0.00     0.033 A 
HETATM   24  C   UNL     1      44.784 -20.917   4.358  1.00  0.00     0.117 A 
HETATM   25  N   UNL     1      44.749 -22.082   3.685  1.00  0.00    -0.273 NA
HETATM   26  C   UNL     1      44.203 -22.048   2.455  1.00  0.00     0.117 A 
HETATM   27  C   UNL     1      43.692 -20.900   1.861  1.00  0.00     0.033 A 
ENDBRANCH   6  22
TORSDOF 5
ENDMDL
MODEL 9
REMARK VINA RESULT:      -7.1      3.036      8.297
REMARK  5 active torsions:
REMARK  status: ('A' for Active; 'I' for Inactive)
REMARK    1  A    between atoms: C_2  and  C_3 
REMARK    2  A    between atoms: C_4  and  N_5 
REMARK       I    between atoms: N_5  and  C_6 
REMARK    3  A    between atoms: C_6  and  C_7 
REMARK    4  A    between atoms: C_10  and  O_11 
REMARK    5  A    between atoms: C_20  and  C_21 
ROOT
HETATM    1  C   UNL     1      40.859 -15.100   2.483  1.00  0.00     0.018 A 
HETATM    2  C   UNL     1      41.593 -15.312   3.635  1.00  0.00     0.133 A 
HETATM    3  N   UNL     1      41.238 -14.328   4.507  1.00  0.00    -0.261 N 
HETATM    4  H   UNL     1      41.613 -14.165   5.437  1.00  0.00     0.191 HD
HETATM    5  N   UNL     1      40.251 -13.554   4.058  1.00  0.00    -0.172 NA
HETATM    6  C   UNL     1      39.977 -14.000   2.816  1.00  0.00     0.097 A 
ENDROOT
BRANCH   2   7
HETATM    7  N   UNL     1      42.495 -16.344   3.847  1.00  0.00    -0.307 N 
HETATM    8  C   UNL     1      42.091 -17.582   4.444  1.00  0.00     0.260 C 
HETATM    9  O   UNL     1      40.961 -17.696   4.894  1.00  0.00    -0.267 OA
HETATM   10  H   UNL     1      43.446 -16.227   3.516  1.00  0.00     0.170 HD
BRANCH   8  11
HETATM   11  C   UNL     1      43.082 -18.675   4.497  1.00  0.00     0.073 A 
HETATM   12  C   UNL     1      43.550 -19.270   3.324  1.00  0.00     0.165 A 
HETATM   13  F   UNL     1      43.135 -18.791   2.139  1.00  0.00    -0.202 F 
HETATM   14  C   UNL     1      44.448 -20.338   3.378  1.00  0.00     0.107 A 
HETATM   15  C   UNL     1      44.914 -20.769   4.624  1.00  0.00     0.040 A 
HETATM   16  C   UNL     1      44.454 -20.176   5.802  1.00  0.00     0.004 A 
HETATM   17  C   UNL     1      43.526 -19.138   5.742  1.00  0.00     0.020 A 
BRANCH  14  18
HETATM   18  O   UNL     1      44.962 -21.015   2.308  1.00  0.00    -0.353 OA
HETATM   19  C   UNL     1      44.092 -21.946   1.672  1.00  0.00     0.210 C 
ENDBRANCH  14  18
ENDBRANCH   8  11
ENDBRANCH   2   7
BRANCH   1  20
HETATM   20  C   UNL     1      41.005 -15.873   1.213  1.00  0.00     0.040 C 
HETATM   21  C   UNL     1      41.657 -15.068   0.100  1.00  0.00     0.010 C 
ENDBRANCH   1  20
BRANCH   6  22
HETATM   22  C   UNL     1      38.884 -13.343   2.064  1.00  0.00    -0.002 A 
HETATM   23  C   UNL     1      38.592 -11.993   2.319  1.00  0.00     0.033 A 
HETATM   24  C   UNL     1      37.557 -11.372   1.640  1.00  0.00     0.117 A 
HETATM   25  N   UNL     1      36.792 -11.993   0.722  1.00  0.00    -0.273 NA
HETATM   26  C   UNL     1      37.078 -13.286   0.481  1.00  0.00     0.117 A 
HETATM   27  C   UNL     1      38.091 -13.993   1.117  1.00  0.00     0.033 A 
ENDBRANCH   6  22
TORSDOF 5
ENDMDL
MODEL 10
REMARK VINA RESULT:      -7.0      4.569      8.163
REMARK  5 active torsions:
REMARK  status: ('A' for Active; 'I' for Inactive)
REMARK    1  A    between atoms: C_2  and  C_3 
REMARK    2  A    between atoms: C_4  and  N_5 
REMARK       I    between atoms: N_5  and  C_6 
REMARK    3  A    between atoms: C_6  and  C_7 
REMARK    4  A    between atoms: C_10  and  O_11 
REMARK    5  A    between atoms: C_20  and  C_21 
ROOT
HETATM    1  C   UNL     1      41.629 -14.201  -0.241  1.00  0.00     0.018 A 
HETATM    2  C   UNL     1      41.675 -15.537   0.110  1.00  0.00     0.133 A 
HETATM    3  N   UNL     1      41.252 -16.238  -0.977  1.00  0.00    -0.261 N 
HETATM    4  H   UNL     1      41.131 -17.245  -1.052  1.00  0.00     0.191 HD
HETATM    5  N   UNL     1      41.036 -15.475  -2.048  1.00  0.00    -0.172 NA
HETATM    6  C   UNL     1      41.266 -14.210  -1.644  1.00  0.00     0.097 A 
ENDROOT
BRANCH   2   7
HETATM    7  N   UNL     1      42.094 -16.043   1.332  1.00  0.00    -0.307 N 
HETATM    8  C   UNL     1      41.659 -17.325   1.801  1.00  0.00     0.260 C 
HETATM    9  O   UNL     1      40.804 -17.937   1.181  1.00  0.00    -0.267 OA
HETATM   10  H   UNL     1      42.768 -15.508   1.868  1.00  0.00     0.170 HD
BRANCH   8  11
HETATM   11  C   UNL     1      42.269 -17.846   3.041  1.00  0.00     0.073 A 
HETATM   12  C   UNL     1      43.408 -18.652   2.990  1.00  0.00     0.165 A 
HETATM   13  F   UNL     1      43.982 -18.896   1.801  1.00  0.00    -0.202 F 
HETATM   14  C   UNL     1      43.953 -19.186   4.160  1.00  0.00     0.107 A 
HETATM   15  C   UNL     1      43.373 -18.857   5.389  1.00  0.00     0.040 A 
HETATM   16  C   UNL     1      42.236 -18.048   5.448  1.00  0.00     0.004 A 
HETATM   17  C   UNL     1      41.673 -17.552   4.273  1.00  0.00     0.020 A 
BRANCH  14  18
HETATM   18  O   UNL     1      45.047 -20.000   4.241  1.00  0.00    -0.353 OA
HETATM   19  C   UNL     1      44.824 -21.310   4.755  1.00  0.00     0.210 C 
ENDBRANCH  14  18
ENDBRANCH   8  11
ENDBRANCH   2   7
BRANCH   1  20
HETATM   20  C   UNL     1      41.900 -13.057   0.680  1.00  0.00     0.040 C 
HETATM   21  C   UNL     1      40.631 -12.398   1.197  1.00  0.00     0.010 C 
ENDBRANCH   1  20
BRANCH   6  22
HETATM   22  C   UNL     1      41.133 -13.124  -2.641  1.00  0.00    -0.002 A 
HETATM   23  C   UNL     1      42.293 -12.541  -3.178  1.00  0.00     0.033 A 
HETATM   24  C   UNL     1      42.184 -11.508  -4.094  1.00  0.00     0.117 A 
HETATM   25  N   UNL     1      41.006 -11.013  -4.519  1.00  0.00    -0.273 NA
HETATM   26  C   UNL     1      39.898 -11.576  -4.001  1.00  0.00     0.117 A 
HETATM   27  C   UNL     1      39.910 -12.611  -3.074  1.00  0.00     0.033 A 
ENDBRANCH   6  22
TORSDOF 5
ENDMDL
