MODEL 1
REMARK VINA RESULT:      -8.4      0.000      0.000
REMARK  3 active torsions:
REMARK  status: ('A' for Active; 'I' for Inactive)
REMARK    1  A    between atoms: C_6  and  N_7 
REMARK       I    between atoms: N_7  and  C_8 
REMARK    2  A    between atoms: C_8  and  C_9 
REMARK    3  A    between atoms: C_9  and  C_10 
ROOT
HETATM    1  C   UNL     1      41.390 -16.499   3.260  1.00  0.00     0.286 C 
HETATM    2  N   UNL     1      40.414 -15.644   4.060  1.00  0.00    -0.056 N 
HETATM    3  H   UNL     1      39.689 -16.309   4.406  1.00  0.00     0.278 HD
HETATM    4  H   UNL     1      40.858 -15.255   4.899  1.00  0.00     0.278 HD
HETATM    5  C   UNL     1      39.711 -14.575   3.267  1.00  0.00     0.209 C 
HETATM    6  C   UNL     1      39.060 -15.202   2.009  1.00  0.00     0.115 C 
HETATM    7  N   UNL     1      39.966 -16.079   1.270  1.00  0.00    -0.353 N 
HETATM    8  C   UNL     1      40.836 -16.943   1.892  1.00  0.00     0.249 C 
HETATM    9  O   UNL     1      41.219 -17.952   1.312  1.00  0.00    -0.271 OA
HETATM   10  C   UNL     1      40.686 -13.438   2.952  1.00  0.00     0.035 C 
HETATM   11  C   UNL     1      40.031 -12.384   2.063  1.00  0.00     0.002 C 
HETATM   12  C   UNL     1      39.475 -13.005   0.785  1.00  0.00     0.002 C 
HETATM   13  C   UNL     1      38.476 -14.122   1.092  1.00  0.00     0.027 C 
HETATM   14  H   UNL     1      39.630 -16.457   0.384  1.00  0.00     0.163 HD
ENDROOT
BRANCH   1  15
HETATM   15  C   UNL     1      41.902 -17.697   4.077  1.00  0.00     0.146 C 
BRANCH  15  16
HETATM   16  C   UNL     1      43.242 -17.418   4.702  1.00  0.00     0.224 C 
HETATM   17  N   UNL     1      44.226 -18.350   4.784  1.00  0.00    -0.327 N 
HETATM   18  H   UNL     1      45.054 -17.966   5.233  1.00  0.00     0.169 HD
HETATM   19  O   UNL     1      43.487 -16.264   5.083  1.00  0.00    -0.273 OA
BRANCH  17  20
HETATM   20  C   UNL     1      44.351 -19.699   4.387  1.00  0.00     0.036 A 
HETATM   21  C   UNL     1      44.247 -20.185   3.085  1.00  0.00     0.053 A 
HETATM   22  C   UNL     1      44.384 -21.556   2.828  1.00  0.00     0.036 A 
HETATM   23  C   UNL     1      44.638 -22.457   3.856  1.00  0.00     0.024 A 
HETATM   24 CL   UNL     1      44.236 -22.129   1.211  1.00  0.00    -0.084 Cl
HETATM   25  C   UNL     1      44.757 -21.984   5.157  1.00  0.00     0.004 A 
HETATM   26  C   UNL     1      44.612 -20.617   5.417  1.00  0.00     0.029 A 
ENDBRANCH  17  20
ENDBRANCH  15  16
ENDBRANCH   1  15
TORSDOF 3
ENDMDL
MODEL 2
REMARK VINA RESULT:      -8.4      1.880      2.616
REMARK  3 active torsions:
REMARK  status: ('A' for Active; 'I' for Inactive)
REMARK    1  A    between atoms: C_6  and  N_7 
REMARK       I    between atoms: N_7  and  C_8 
REMARK    2  A    between atoms: C_8  and  C_9 
REMARK    3  A    between atoms: C_9  and  C_10 
ROOT
HETATM    1  C   UNL     1      41.980 -17.651   5.234  1.00  0.00     0.286 C 
HETATM    2  N   UNL     1      42.818 -16.849   4.245  1.00  0.00    -0.056 N 
HETATM    3  H   UNL     1      43.385 -16.199   4.832  1.00  0.00     0.278 HD
HETATM    4  H   UNL     1      43.495 -17.447   3.758  1.00  0.00     0.278 HD
HETATM    5  C   UNL     1      42.027 -16.015   3.274  1.00  0.00     0.209 C 
HETATM    6  C   UNL     1      41.015 -15.134   4.048  1.00  0.00     0.115 C 
HETATM    7  N   UNL     1      40.252 -15.878   5.048  1.00  0.00    -0.353 N 
HETATM    8  C   UNL     1      40.817 -16.845   5.846  1.00  0.00     0.249 C 
HETATM    9  O   UNL     1      40.326 -17.105   6.938  1.00  0.00    -0.271 OA
HETATM   10  C   UNL     1      41.376 -16.920   2.225  1.00  0.00     0.035 C 
HETATM   11  C   UNL     1      40.484 -16.113   1.284  1.00  0.00     0.002 C 
HETATM   12  C   UNL     1      39.435 -15.322   2.057  1.00  0.00     0.002 C 
HETATM   13  C   UNL     1      40.078 -14.393   3.087  1.00  0.00     0.027 C 
HETATM   14  H   UNL     1      39.508 -15.378   5.535  1.00  0.00     0.163 HD
ENDROOT
BRANCH   1  15
HETATM   15  C   UNL     1      42.850 -18.301   6.323  1.00  0.00     0.146 C 
BRANCH  15  16
HETATM   16  C   UNL     1      44.317 -18.063   6.087  1.00  0.00     0.224 C 
HETATM   17  N   UNL     1      45.102 -18.924   5.391  1.00  0.00    -0.327 N 
HETATM   18  H   UNL     1      46.059 -18.582   5.338  1.00  0.00     0.169 HD
HETATM   19  O   UNL     1      44.811 -16.994   6.476  1.00  0.00    -0.273 OA
BRANCH  17  20
HETATM   20  C   UNL     1      44.886 -20.156   4.736  1.00  0.00     0.036 A 
HETATM   21  C   UNL     1      44.653 -20.332   3.374  1.00  0.00     0.053 A 
HETATM   22  C   UNL     1      44.444 -21.616   2.851  1.00  0.00     0.036 A 
HETATM   23  C   UNL     1      44.477 -22.738   3.670  1.00  0.00     0.024 A 
HETATM   24 CL   UNL     1      44.144 -21.800   1.165  1.00  0.00    -0.084 Cl
HETATM   25  C   UNL     1      44.721 -22.578   5.029  1.00  0.00     0.004 A 
HETATM   26  C   UNL     1      44.921 -21.297   5.554  1.00  0.00     0.029 A 
ENDBRANCH  17  20
ENDBRANCH  15  16
ENDBRANCH   1  15
TORSDOF 3
ENDMDL
MODEL 3
REMARK VINA RESULT:      -7.8      2.437      3.194
REMARK  3 active torsions:
REMARK  status: ('A' for Active; 'I' for Inactive)
REMARK    1  A    between atoms: C_6  and  N_7 
REMARK       I    between atoms: N_7  and  C_8 
REMARK    2  A    between atoms: C_8  and  C_9 
REMARK    3  A    between atoms: C_9  and  C_10 
ROOT
HETATM    1  C   UNL     1      40.767 -16.279   0.819  1.00  0.00     0.286 C 
HETATM    2  N   UNL     1      41.875 -15.725  -0.069  1.00  0.00    -0.056 N 
HETATM    3  H   UNL     1      42.432 -15.097   0.550  1.00  0.00     0.278 HD
HETATM    4  H   UNL     1      42.519 -16.466  -0.368  1.00  0.00     0.278 HD
HETATM    5  C   UNL     1      41.399 -14.909  -1.240  1.00  0.00     0.209 C 
HETATM    6  C   UNL     1      40.427 -13.808  -0.747  1.00  0.00     0.115 C 
HETATM    7  N   UNL     1      39.399 -14.315   0.160  1.00  0.00    -0.353 N 
HETATM    8  C   UNL     1      39.662 -15.251   1.132  1.00  0.00     0.249 C 
HETATM    9  O   UNL     1      38.961 -15.309   2.136  1.00  0.00    -0.271 OA
HETATM   10  C   UNL     1      40.797 -15.829  -2.304  1.00  0.00     0.035 C 
HETATM   11  C   UNL     1      40.214 -15.022  -3.461  1.00  0.00     0.002 C 
HETATM   12  C   UNL     1      39.190 -14.005  -2.967  1.00  0.00     0.002 C 
HETATM   13  C   UNL     1      39.793 -13.062  -1.926  1.00  0.00     0.027 C 
HETATM   14  H   UNL     1      38.674 -13.661   0.456  1.00  0.00     0.163 HD
ENDROOT
BRANCH   1  15
HETATM   15  C   UNL     1      41.328 -16.913   2.103  1.00  0.00     0.146 C 
BRANCH  15  16
HETATM   16  C   UNL     1      42.581 -16.222   2.570  1.00  0.00     0.224 C 
HETATM   17  N   UNL     1      43.657 -16.891   3.056  1.00  0.00    -0.327 N 
HETATM   18  H   UNL     1      44.401 -16.247   3.312  1.00  0.00     0.169 HD
HETATM   19  O   UNL     1      42.664 -14.993   2.426  1.00  0.00    -0.273 OA
BRANCH  17  20
HETATM   20  C   UNL     1      43.963 -18.252   3.274  1.00  0.00     0.036 A 
HETATM   21  C   UNL     1      43.924 -19.266   2.319  1.00  0.00     0.053 A 
HETATM   22  C   UNL     1      44.245 -20.584   2.672  1.00  0.00     0.036 A 
HETATM   23  C   UNL     1      44.621 -20.908   3.970  1.00  0.00     0.024 A 
HETATM   24 CL   UNL     1      44.174 -21.818   1.472  1.00  0.00    -0.084 Cl
HETATM   25  C   UNL     1      44.676 -19.904   4.929  1.00  0.00     0.004 A 
HETATM   26  C   UNL     1      44.348 -18.590   4.582  1.00  0.00     0.029 A 
ENDBRANCH  17  20
ENDBRANCH  15  16
ENDBRANCH   1  15
TORSDOF 3
ENDMDL
MODEL 4
REMARK VINA RESULT:      -7.8      3.139      4.257
REMARK  3 active torsions:
REMARK  status: ('A' for Active; 'I' for Inactive)
REMARK    1  A    between atoms: C_6  and  N_7 
REMARK       I    between atoms: N_7  and  C_8 
REMARK    2  A    between atoms: C_8  and  C_9 
REMARK    3  A    between atoms: C_9  and  C_10 
ROOT
HETATM    1  C   UNL     1      40.524 -14.925   0.959  1.00  0.00     0.286 C 
HETATM    2  N   UNL     1      41.462 -14.300  -0.067  1.00  0.00    -0.056 N 
HETATM    3  H   UNL     1      41.592 -13.314   0.248  1.00  0.00     0.278 HD
HETATM    4  H   UNL     1      42.394 -14.729  -0.031  1.00  0.00     0.278 HD
HETATM    5  C   UNL     1      40.929 -14.264  -1.473  1.00  0.00     0.209 C 
HETATM    6  C   UNL     1      39.522 -13.616  -1.481  1.00  0.00     0.115 C 
HETATM    7  N   UNL     1      38.633 -14.160  -0.456  1.00  0.00    -0.353 N 
HETATM    8  C   UNL     1      39.062 -14.460   0.815  1.00  0.00     0.249 C 
HETATM    9  O   UNL     1      38.267 -14.457   1.748  1.00  0.00    -0.271 OA
HETATM   10  C   UNL     1      40.960 -15.671  -2.075  1.00  0.00     0.035 C 
HETATM   11  C   UNL     1      40.333 -15.686  -3.467  1.00  0.00     0.002 C 
HETATM   12  C   UNL     1      38.913 -15.128  -3.441  1.00  0.00     0.002 C 
HETATM   13  C   UNL     1      38.878 -13.711  -2.869  1.00  0.00     0.027 C 
HETATM   14  H   UNL     1      37.665 -13.840  -0.460  1.00  0.00     0.163 HD
ENDROOT
BRANCH   1  15
HETATM   15  C   UNL     1      41.039 -14.732   2.396  1.00  0.00     0.146 C 
BRANCH  15  16
HETATM   16  C   UNL     1      42.489 -14.330   2.423  1.00  0.00     0.224 C 
HETATM   17  N   UNL     1      43.499 -15.222   2.582  1.00  0.00    -0.327 N 
HETATM   18  H   UNL     1      44.403 -14.755   2.568  1.00  0.00     0.169 HD
HETATM   19  O   UNL     1      42.776 -13.143   2.209  1.00  0.00    -0.273 OA
BRANCH  17  20
HETATM   20  C   UNL     1      43.569 -16.622   2.753  1.00  0.00     0.036 A 
HETATM   21  C   UNL     1      43.612 -17.301   3.969  1.00  0.00     0.053 A 
HETATM   22  C   UNL     1      43.690 -18.700   3.997  1.00  0.00     0.036 A 
HETATM   23  C   UNL     1      43.713 -19.441   2.821  1.00  0.00     0.024 A 
HETATM   24 CL   UNL     1      43.757 -19.510   5.515  1.00  0.00    -0.084 Cl
HETATM   25  C   UNL     1      43.658 -18.778   1.601  1.00  0.00     0.004 A 
HETATM   26  C   UNL     1      43.588 -17.381   1.571  1.00  0.00     0.029 A 
ENDBRANCH  17  20
ENDBRANCH  15  16
ENDBRANCH   1  15
TORSDOF 3
ENDMDL
MODEL 5
REMARK VINA RESULT:      -7.7      3.469      7.109
REMARK  3 active torsions:
REMARK  status: ('A' for Active; 'I' for Inactive)
REMARK    1  A    between atoms: C_6  and  N_7 
REMARK       I    between atoms: N_7  and  C_8 
REMARK    2  A    between atoms: C_8  and  C_9 
REMARK    3  A    between atoms: C_9  and  C_10 
ROOT
HETATM    1  C   UNL     1      42.582 -18.268   6.032  1.00  0.00     0.286 C 
HETATM    2  N   UNL     1      44.087 -18.448   6.194  1.00  0.00    -0.056 N 
HETATM    3  H   UNL     1      44.495 -17.505   6.014  1.00  0.00     0.278 HD
HETATM    4  H   UNL     1      44.333 -18.678   7.163  1.00  0.00     0.278 HD
HETATM    5  C   UNL     1      44.718 -19.412   5.226  1.00  0.00     0.209 C 
HETATM    6  C   UNL     1      44.317 -19.033   3.778  1.00  0.00     0.115 C 
HETATM    7  N   UNL     1      42.883 -18.792   3.623  1.00  0.00    -0.353 N 
HETATM    8  C   UNL     1      42.138 -18.119   4.563  1.00  0.00     0.249 C 
HETATM    9  O   UNL     1      41.114 -17.534   4.231  1.00  0.00    -0.271 OA
HETATM   10  C   UNL     1      44.350 -20.847   5.609  1.00  0.00     0.035 C 
HETATM   11  C   UNL     1      44.893 -21.843   4.588  1.00  0.00     0.002 C 
HETATM   12  C   UNL     1      44.413 -21.509   3.179  1.00  0.00     0.002 C 
HETATM   13  C   UNL     1      44.803 -20.086   2.776  1.00  0.00     0.027 C 
HETATM   14  H   UNL     1      42.538 -18.622   2.679  1.00  0.00     0.163 HD
ENDROOT
BRANCH   1  15
HETATM   15  C   UNL     1      42.048 -17.118   6.902  1.00  0.00     0.146 C 
BRANCH  15  16
HETATM   16  C   UNL     1      43.146 -16.187   7.339  1.00  0.00     0.224 C 
HETATM   17  N   UNL     1      43.408 -15.010   6.716  1.00  0.00    -0.327 N 
HETATM   18  H   UNL     1      44.183 -14.526   7.163  1.00  0.00     0.169 HD
HETATM   19  O   UNL     1      43.786 -16.470   8.362  1.00  0.00    -0.273 OA
BRANCH  17  20
HETATM   20  C   UNL     1      42.851 -14.325   5.614  1.00  0.00     0.036 A 
HETATM   21  C   UNL     1      41.633 -13.648   5.598  1.00  0.00     0.053 A 
HETATM   22  C   UNL     1      41.191 -13.014   4.429  1.00  0.00     0.036 A 
HETATM   23  C   UNL     1      41.956 -13.033   3.268  1.00  0.00     0.024 A 
HETATM   24 CL   UNL     1      39.674 -12.198   4.435  1.00  0.00    -0.084 Cl
HETATM   25  C   UNL     1      43.179 -13.693   3.275  1.00  0.00     0.004 A 
HETATM   26  C   UNL     1      43.619 -14.334   4.438  1.00  0.00     0.029 A 
ENDBRANCH  17  20
ENDBRANCH  15  16
ENDBRANCH   1  15
TORSDOF 3
ENDMDL
MODEL 6
REMARK VINA RESULT:      -7.7      2.519      3.638
REMARK  3 active torsions:
REMARK  status: ('A' for Active; 'I' for Inactive)
REMARK    1  A    between atoms: C_6  and  N_7 
REMARK       I    between atoms: N_7  and  C_8 
REMARK    2  A    between atoms: C_8  and  C_9 
REMARK    3  A    between atoms: C_9  and  C_10 
ROOT
HETATM    1  C   UNL     1      40.918 -15.844   3.012  1.00  0.00     0.286 C 
HETATM    2  N   UNL     1      41.180 -16.217   4.466  1.00  0.00    -0.056 N 
HETATM    3  H   UNL     1      40.395 -16.852   4.730  1.00  0.00     0.278 HD
HETATM    4  H   UNL     1      42.035 -16.777   4.561  1.00  0.00     0.278 HD
HETATM    5  C   UNL     1      41.174 -15.060   5.428  1.00  0.00     0.209 C 
HETATM    6  C   UNL     1      39.872 -14.240   5.250  1.00  0.00     0.115 C 
HETATM    7  N   UNL     1      39.574 -13.933   3.852  1.00  0.00    -0.353 N 
HETATM    8  C   UNL     1      39.762 -14.840   2.836  1.00  0.00     0.249 C 
HETATM    9  O   UNL     1      39.102 -14.756   1.807  1.00  0.00    -0.271 OA
HETATM   10  C   UNL     1      42.450 -14.233   5.252  1.00  0.00     0.035 C 
HETATM   11  C   UNL     1      42.428 -12.995   6.144  1.00  0.00     0.002 C 
HETATM   12  C   UNL     1      41.184 -12.150   5.890  1.00  0.00     0.002 C 
HETATM   13  C   UNL     1      39.904 -12.961   6.094  1.00  0.00     0.027 C 
HETATM   14  H   UNL     1      38.778 -13.323   3.667  1.00  0.00     0.163 HD
ENDROOT
BRANCH   1  15
HETATM   15  C   UNL     1      40.724 -17.089   2.129  1.00  0.00     0.146 C 
BRANCH  15  16
HETATM   16  C   UNL     1      41.749 -17.162   1.030  1.00  0.00     0.224 C 
HETATM   17  N   UNL     1      42.910 -17.855   1.147  1.00  0.00    -0.327 N 
HETATM   18  H   UNL     1      43.463 -17.786   0.296  1.00  0.00     0.169 HD
HETATM   19  O   UNL     1      41.483 -16.633  -0.060  1.00  0.00    -0.273 OA
BRANCH  17  20
HETATM   20  C   UNL     1      43.500 -18.636   2.164  1.00  0.00     0.036 A 
HETATM   21  C   UNL     1      43.924 -18.179   3.411  1.00  0.00     0.053 A 
HETATM   22  C   UNL     1      44.505 -19.063   4.329  1.00  0.00     0.036 A 
HETATM   23  C   UNL     1      44.660 -20.412   4.029  1.00  0.00     0.024 A 
HETATM   24 CL   UNL     1      45.032 -18.466   5.856  1.00  0.00    -0.084 Cl
HETATM   25  C   UNL     1      44.230 -20.884   2.794  1.00  0.00     0.004 A 
HETATM   26  C   UNL     1      43.658 -20.002   1.872  1.00  0.00     0.029 A 
ENDBRANCH  17  20
ENDBRANCH  15  16
ENDBRANCH   1  15
TORSDOF 3
ENDMDL
MODEL 7
REMARK VINA RESULT:      -7.6      3.513      7.351
REMARK  3 active torsions:
REMARK  status: ('A' for Active; 'I' for Inactive)
REMARK    1  A    between atoms: C_6  and  N_7 
REMARK       I    between atoms: N_7  and  C_8 
REMARK    2  A    between atoms: C_8  and  C_9 
REMARK    3  A    between atoms: C_9  and  C_10 
ROOT
HETATM    1  C   UNL     1      43.198 -17.093   2.371  1.00  0.00     0.286 C 
HETATM    2  N   UNL     1      42.590 -18.228   3.187  1.00  0.00    -0.056 N 
HETATM    3  H   UNL     1      41.558 -18.096   3.111  1.00  0.00     0.278 HD
HETATM    4  H   UNL     1      42.787 -19.141   2.761  1.00  0.00     0.278 HD
HETATM    5  C   UNL     1      42.946 -18.218   4.649  1.00  0.00     0.209 C 
HETATM    6  C   UNL     1      42.641 -16.823   5.251  1.00  0.00     0.115 C 
HETATM    7  N   UNL     1      43.160 -15.722   4.441  1.00  0.00    -0.353 N 
HETATM    8  C   UNL     1      43.106 -15.721   3.067  1.00  0.00     0.249 C 
HETATM    9  O   UNL     1      43.099 -14.660   2.454  1.00  0.00    -0.271 OA
HETATM   10  C   UNL     1      44.400 -18.660   4.832  1.00  0.00     0.035 C 
HETATM   11  C   UNL     1      44.822 -18.565   6.296  1.00  0.00     0.002 C 
HETATM   12  C   UNL     1      44.600 -17.160   6.846  1.00  0.00     0.002 C 
HETATM   13  C   UNL     1      43.143 -16.722   6.695  1.00  0.00     0.027 C 
HETATM   14  H   UNL     1      43.070 -14.781   4.821  1.00  0.00     0.163 HD
ENDROOT
BRANCH   1  15
HETATM   15  C   UNL     1      42.621 -17.042   0.946  1.00  0.00     0.146 C 
BRANCH  15  16
HETATM   16  C   UNL     1      41.154 -16.707   0.945  1.00  0.00     0.224 C 
HETATM   17  N   UNL     1      40.610 -15.777   0.121  1.00  0.00    -0.327 N 
HETATM   18  H   UNL     1      39.606 -15.701   0.270  1.00  0.00     0.169 HD
HETATM   19  O   UNL     1      40.398 -17.368   1.673  1.00  0.00    -0.273 OA
BRANCH  17  20
HETATM   20  C   UNL     1      41.117 -14.918  -0.878  1.00  0.00     0.036 A 
HETATM   21  C   UNL     1      41.795 -13.719  -0.664  1.00  0.00     0.053 A 
HETATM   22  C   UNL     1      42.240 -12.954  -1.751  1.00  0.00     0.036 A 
HETATM   23  C   UNL     1      42.031 -13.375  -3.059  1.00  0.00     0.024 A 
HETATM   24 CL   UNL     1      43.062 -11.469  -1.455  1.00  0.00    -0.084 Cl
HETATM   25  C   UNL     1      41.368 -14.575  -3.286  1.00  0.00     0.004 A 
HETATM   26  C   UNL     1      40.915 -15.336  -2.204  1.00  0.00     0.029 A 
ENDBRANCH  17  20
ENDBRANCH  15  16
ENDBRANCH   1  15
TORSDOF 3
ENDMDL
MODEL 8
REMARK VINA RESULT:      -7.6      4.753      8.730
REMARK  3 active torsions:
REMARK  status: ('A' for Active; 'I' for Inactive)
REMARK    1  A    between atoms: C_6  and  N_7 
REMARK       I    between atoms: N_7  and  C_8 
REMARK    2  A    between atoms: C_8  and  C_9 
REMARK    3  A    between atoms: C_9  and  C_10 
ROOT
HETATM    1  C   UNL     1      41.353 -15.005  -0.362  1.00  0.00     0.286 C 
HETATM    2  N   UNL     1      41.096 -16.506  -0.314  1.00  0.00    -0.056 N 
HETATM    3  H   UNL     1      40.058 -16.605  -0.337  1.00  0.00     0.278 HD
HETATM    4  H   UNL     1      41.439 -16.971  -1.162  1.00  0.00     0.278 HD
HETATM    5  C   UNL     1      41.594 -17.196   0.927  1.00  0.00     0.209 C 
HETATM    6  C   UNL     1      41.058 -16.461   2.182  1.00  0.00     0.115 C 
HETATM    7  N   UNL     1      41.238 -15.012   2.119  1.00  0.00    -0.353 N 
HETATM    8  C   UNL     1      41.040 -14.288   0.966  1.00  0.00     0.249 C 
HETATM    9  O   UNL     1      40.739 -13.102   1.030  1.00  0.00    -0.271 OA
HETATM   10  C   UNL     1      43.120 -17.304   0.884  1.00  0.00     0.035 C 
HETATM   11  C   UNL     1      43.663 -17.910   2.176  1.00  0.00     0.002 C 
HETATM   12  C   UNL     1      43.201 -17.119   3.395  1.00  0.00     0.002 C 
HETATM   13  C   UNL     1      41.676 -17.032   3.463  1.00  0.00     0.027 C 
HETATM   14  H   UNL     1      40.987 -14.474   2.948  1.00  0.00     0.163 HD
ENDROOT
BRANCH   1  15
HETATM   15  C   UNL     1      40.633 -14.339  -1.546  1.00  0.00     0.146 C 
BRANCH  15  16
HETATM   16  C   UNL     1      41.337 -14.600  -2.850  1.00  0.00     0.224 C 
HETATM   17  N   UNL     1      42.037 -13.645  -3.515  1.00  0.00    -0.327 N 
HETATM   18  H   UNL     1      42.441 -14.020  -4.370  1.00  0.00     0.169 HD
HETATM   19  O   UNL     1      41.346 -15.758  -3.293  1.00  0.00    -0.273 OA
BRANCH  17  20
HETATM   20  C   UNL     1      42.324 -12.283  -3.283  1.00  0.00     0.036 A 
HETATM   21  C   UNL     1      42.746 -11.726  -2.077  1.00  0.00     0.053 A 
HETATM   22  C   UNL     1      42.989 -10.349  -1.980  1.00  0.00     0.036 A 
HETATM   23  C   UNL     1      42.830  -9.512  -3.079  1.00  0.00     0.024 A 
HETATM   24 CL   UNL     1      43.495  -9.687  -0.473  1.00  0.00    -0.084 Cl
HETATM   25  C   UNL     1      42.423 -10.057  -4.291  1.00  0.00     0.004 A 
HETATM   26  C   UNL     1      42.171 -11.430  -4.388  1.00  0.00     0.029 A 
ENDBRANCH  17  20
ENDBRANCH  15  16
ENDBRANCH   1  15
TORSDOF 3
ENDMDL
MODEL 9
REMARK VINA RESULT:      -7.5      2.655      3.357
REMARK  3 active torsions:
REMARK  status: ('A' for Active; 'I' for Inactive)
REMARK    1  A    between atoms: C_6  and  N_7 
REMARK       I    between atoms: N_7  and  C_8 
REMARK    2  A    between atoms: C_8  and  C_9 
REMARK    3  A    between atoms: C_9  and  C_10 
ROOT
HETATM    1  C   UNL     1      43.047 -14.264   5.694  1.00  0.00     0.286 C 
HETATM    2  N   UNL     1      41.713 -14.932   6.009  1.00  0.00    -0.056 N 
HETATM    3  H   UNL     1      41.775 -15.880   5.578  1.00  0.00     0.278 HD
HETATM    4  H   UNL     1      41.604 -15.091   7.017  1.00  0.00     0.278 HD
HETATM    5  C   UNL     1      40.507 -14.243   5.431  1.00  0.00     0.209 C 
HETATM    6  C   UNL     1      40.715 -14.018   3.912  1.00  0.00     0.115 C 
HETATM    7  N   UNL     1      42.018 -13.439   3.590  1.00  0.00    -0.353 N 
HETATM    8  C   UNL     1      43.177 -13.822   4.223  1.00  0.00     0.249 C 
HETATM    9  O   UNL     1      44.257 -13.698   3.657  1.00  0.00    -0.271 OA
HETATM   10  C   UNL     1      40.221 -12.957   6.209  1.00  0.00     0.035 C 
HETATM   11  C   UNL     1      39.063 -12.184   5.583  1.00  0.00     0.002 C 
HETATM   12  C   UNL     1      39.325 -11.890   4.109  1.00  0.00     0.002 C 
HETATM   13  C   UNL     1      39.582 -13.173   3.318  1.00  0.00     0.027 C 
HETATM   14  H   UNL     1      42.188 -13.185   2.617  1.00  0.00     0.163 HD
ENDROOT
BRANCH   1  15
HETATM   15  C   UNL     1      44.238 -15.134   6.129  1.00  0.00     0.146 C 
BRANCH  15  16
HETATM   16  C   UNL     1      43.796 -16.336   6.919  1.00  0.00     0.224 C 
HETATM   17  N   UNL     1      43.663 -17.571   6.372  1.00  0.00    -0.327 N 
HETATM   18  H   UNL     1      43.360 -18.247   7.069  1.00  0.00     0.169 HD
HETATM   19  O   UNL     1      43.626 -16.209   8.141  1.00  0.00    -0.273 OA
BRANCH  17  20
HETATM   20  C   UNL     1      43.853 -18.110   5.081  1.00  0.00     0.036 A 
HETATM   21  C   UNL     1      43.600 -17.461   3.874  1.00  0.00     0.053 A 
HETATM   22  C   UNL     1      43.824 -18.118   2.657  1.00  0.00     0.036 A 
HETATM   23  C   UNL     1      44.316 -19.418   2.622  1.00  0.00     0.024 A 
HETATM   24 CL   UNL     1      43.488 -17.295   1.181  1.00  0.00    -0.084 Cl
HETATM   25  C   UNL     1      44.585 -20.072   3.818  1.00  0.00     0.004 A 
HETATM   26  C   UNL     1      44.353 -19.422   5.035  1.00  0.00     0.029 A 
ENDBRANCH  17  20
ENDBRANCH  15  16
ENDBRANCH   1  15
TORSDOF 3
ENDMDL
MODEL 10
REMARK VINA RESULT:      -7.4      3.042      4.182
REMARK  3 active torsions:
REMARK  status: ('A' for Active; 'I' for Inactive)
REMARK    1  A    between atoms: C_6  and  N_7 
REMARK       I    between atoms: N_7  and  C_8 
REMARK    2  A    between atoms: C_8  and  C_9 
REMARK    3  A    between atoms: C_9  and  C_10 
ROOT
HETATM    1  C   UNL     1      41.479 -14.872   0.120  1.00  0.00     0.286 C 
HETATM    2  N   UNL     1      41.579 -15.601  -1.215  1.00  0.00    -0.056 N 
HETATM    3  H   UNL     1      42.595 -15.804  -1.339  1.00  0.00     0.278 HD
HETATM    4  H   UNL     1      41.115 -16.515  -1.177  1.00  0.00     0.278 HD
HETATM    5  C   UNL     1      41.124 -14.805  -2.408  1.00  0.00     0.209 C 
HETATM    6  C   UNL     1      41.843 -13.433  -2.424  1.00  0.00     0.115 C 
HETATM    7  N   UNL     1      41.812 -12.752  -1.131  1.00  0.00    -0.353 N 
HETATM    8  C   UNL     1      41.983 -13.416   0.061  1.00  0.00     0.249 C 
HETATM    9  O   UNL     1      42.412 -12.818   1.041  1.00  0.00    -0.271 OA
HETATM   10  C   UNL     1      39.597 -14.697  -2.407  1.00  0.00     0.035 C 
HETATM   11  C   UNL     1      39.109 -13.811  -3.550  1.00  0.00     0.002 C 
HETATM   12  C   UNL     1      39.759 -12.432  -3.498  1.00  0.00     0.002 C 
HETATM   13  C   UNL     1      41.284 -12.529  -3.529  1.00  0.00     0.027 C 
HETATM   14  H   UNL     1      42.192 -11.807  -1.092  1.00  0.00     0.163 HD
ENDROOT
BRANCH   1  15
HETATM   15  C   UNL     1      42.158 -15.659   1.253  1.00  0.00     0.146 C 
BRANCH  15  16
HETATM   16  C   UNL     1      41.165 -16.138   2.277  1.00  0.00     0.224 C 
HETATM   17  N   UNL     1      41.379 -17.225   3.061  1.00  0.00    -0.327 N 
HETATM   18  H   UNL     1      40.594 -17.381   3.689  1.00  0.00     0.169 HD
HETATM   19  O   UNL     1      40.143 -15.462   2.469  1.00  0.00    -0.273 OA
BRANCH  17  20
HETATM   20  C   UNL     1      42.428 -18.160   3.195  1.00  0.00     0.036 A 
HETATM   21  C   UNL     1      42.694 -19.226   2.339  1.00  0.00     0.053 A 
HETATM   22  C   UNL     1      43.768 -20.090   2.594  1.00  0.00     0.036 A 
HETATM   23  C   UNL     1      44.598 -19.897   3.693  1.00  0.00     0.024 A 
HETATM   24 CL   UNL     1      44.063 -21.408   1.525  1.00  0.00    -0.084 Cl
HETATM   25  C   UNL     1      44.352 -18.830   4.548  1.00  0.00     0.004 A 
HETATM   26  C   UNL     1      43.275 -17.972   4.300  1.00  0.00     0.029 A 
ENDBRANCH  17  20
ENDBRANCH  15  16
ENDBRANCH   1  15
TORSDOF 3
ENDMDL
