MODEL 1
REMARK VINA RESULT:      -7.5      0.000      0.000
REMARK  4 active torsions:
REMARK  status: ('A' for Active; 'I' for Inactive)
REMARK    1  A    between atoms: C_2  and  C_3 
REMARK    2  A    between atoms: C_3  and  C_4 
REMARK    3  A    between atoms: C_4  and  C_5 
REMARK    4  A    between atoms: C_25  and  N_26 
ROOT
HETATM    1  C   UNL     1      42.252 -16.673   2.473  1.00  0.00     0.067 A 
HETATM    2  N   UNL     1      41.386 -17.149   1.563  1.00  0.00    -0.177 NA
HETATM    3  N   UNL     1      40.272 -16.412   1.740  1.00  0.00    -0.256 N 
HETATM    4  H   UNL     1      39.474 -16.578   1.138  1.00  0.00     0.191 HD
HETATM    5  C   UNL     1      40.404 -15.496   2.730  1.00  0.00     0.176 A 
HETATM    6  C   UNL     1      41.660 -15.653   3.262  1.00  0.00     0.049 A 
HETATM    7  C   UNL     1      42.091 -14.766   4.380  1.00  0.00     0.144 A 
HETATM    8  C   UNL     1      43.442 -14.070   4.064  1.00  0.00     0.246 A 
HETATM    9  O   UNL     1      43.676 -13.254   3.185  1.00  0.00    -0.271 OA
HETATM   10  N   UNL     1      44.370 -14.534   4.989  1.00  0.00    -0.325 N 
HETATM   11  C   UNL     1      43.805 -15.454   5.861  1.00  0.00     0.043 A 
HETATM   12  C   UNL     1      42.447 -15.652   5.561  1.00  0.00     0.003 A 
HETATM   13  C   UNL     1      44.454 -16.105   6.887  1.00  0.00     0.030 A 
HETATM   14  C   UNL     1      43.707 -16.996   7.651  1.00  0.00     0.003 A 
HETATM   15  C   UNL     1      42.343 -17.207   7.379  1.00  0.00     0.007 A 
HETATM   16  C   UNL     1      41.687 -16.532   6.335  1.00  0.00    -0.051 A 
HETATM   17  C   UNL     1      40.234 -16.804   6.077  1.00  0.00     0.049 C 
HETATM   18  C   UNL     1      41.035 -13.708   4.676  1.00  0.00     0.081 A 
HETATM   19  C   UNL     1      41.411 -12.619   5.667  1.00  0.00     0.021 C 
HETATM   20  N   UNL     1      41.724 -11.715   6.490  1.00  0.00    -0.096 N 
HETATM   21  C   UNL     1      39.832 -13.664   4.046  1.00  0.00     0.140 A 
HETATM   22  O   UNL     1      39.471 -14.613   3.071  1.00  0.00    -0.279 OA
HETATM   23  H   UNL     1      45.331 -14.221   5.006  1.00  0.00     0.169 HD
ENDROOT
BRANCH  21  24
HETATM   24  N   UNL     1      38.851 -12.722   4.259  1.00  0.00    -0.282 NA
HETATM   25  H   UNL     1      38.262 -12.879   5.074  1.00  0.00     0.126 HD
HETATM   26  H   UNL     1      39.222 -11.775   4.223  1.00  0.00     0.126 HD
ENDBRANCH  21  24
BRANCH   1  27
HETATM   27  C   UNL     1      43.644 -17.216   2.512  1.00  0.00     0.062 C 
BRANCH  27  28
HETATM   28  C   UNL     1      43.689 -18.716   2.807  1.00  0.00     0.006 C 
BRANCH  28  29
HETATM   29  C   UNL     1      43.453 -18.991   4.292  1.00  0.00    -0.004 C 
HETATM   30  C   UNL     1      44.739 -19.383   4.999  1.00  0.00     0.005 C 
ENDBRANCH  28  29
ENDBRANCH  27  28
ENDBRANCH   1  27
TORSDOF 4
ENDMDL
MODEL 2
REMARK VINA RESULT:      -6.9      2.236      4.888
REMARK  4 active torsions:
REMARK  status: ('A' for Active; 'I' for Inactive)
REMARK    1  A    between atoms: C_2  and  C_3 
REMARK    2  A    between atoms: C_3  and  C_4 
REMARK    3  A    between atoms: C_4  and  C_5 
REMARK    4  A    between atoms: C_25  and  N_26 
ROOT
HETATM    1  C   UNL     1      41.001 -16.731   2.284  1.00  0.00     0.067 A 
HETATM    2  N   UNL     1      41.486 -17.262   1.148  1.00  0.00    -0.177 NA
HETATM    3  N   UNL     1      42.665 -17.803   1.507  1.00  0.00    -0.256 N 
HETATM    4  H   UNL     1      43.214 -18.291   0.807  1.00  0.00     0.191 HD
HETATM    5  C   UNL     1      42.943 -17.628   2.822  1.00  0.00     0.176 A 
HETATM    6  C   UNL     1      41.908 -16.903   3.361  1.00  0.00     0.049 A 
HETATM    7  C   UNL     1      41.940 -16.560   4.811  1.00  0.00     0.144 A 
HETATM    8  C   UNL     1      40.634 -16.997   5.526  1.00  0.00     0.246 A 
HETATM    9  O   UNL     1      40.218 -18.133   5.696  1.00  0.00    -0.271 OA
HETATM   10  N   UNL     1      40.003 -15.842   5.972  1.00  0.00    -0.325 N 
HETATM   11  C   UNL     1      40.720 -14.705   5.628  1.00  0.00     0.043 A 
HETATM   12  C   UNL     1      41.887 -15.046   4.928  1.00  0.00     0.003 A 
HETATM   13  C   UNL     1      40.364 -13.403   5.914  1.00  0.00     0.030 A 
HETATM   14  C   UNL     1      41.222 -12.398   5.478  1.00  0.00     0.003 A 
HETATM   15  C   UNL     1      42.403 -12.713   4.783  1.00  0.00     0.007 A 
HETATM   16  C   UNL     1      42.761 -14.043   4.503  1.00  0.00    -0.051 A 
HETATM   17  C   UNL     1      44.025 -14.324   3.745  1.00  0.00     0.049 C 
HETATM   18  C   UNL     1      43.135 -17.208   5.499  1.00  0.00     0.081 A 
HETATM   19  C   UNL     1      43.199 -17.099   7.014  1.00  0.00     0.021 C 
HETATM   20  N   UNL     1      43.252 -17.008   8.271  1.00  0.00    -0.096 N 
HETATM   21  C   UNL     1      44.078 -17.925   4.831  1.00  0.00     0.140 A 
HETATM   22  O   UNL     1      44.018 -18.109   3.437  1.00  0.00    -0.279 OA
HETATM   23  H   UNL     1      39.132 -15.856   6.485  1.00  0.00     0.169 HD
ENDROOT
BRANCH  21  24
HETATM   24  N   UNL     1      45.165 -18.547   5.404  1.00  0.00    -0.282 NA
HETATM   25  H   UNL     1      44.948 -19.312   6.037  1.00  0.00     0.126 HD
HETATM   26  H   UNL     1      45.863 -18.802   4.709  1.00  0.00     0.126 HD
ENDBRANCH  21  24
BRANCH   1  27
HETATM   27  C   UNL     1      39.645 -16.102   2.276  1.00  0.00     0.062 C 
BRANCH  27  28
HETATM   28  C   UNL     1      39.547 -14.911   1.321  1.00  0.00     0.006 C 
BRANCH  28  29
HETATM   29  C   UNL     1      40.135 -13.650   1.954  1.00  0.00    -0.004 C 
HETATM   30  C   UNL     1      41.365 -13.170   1.202  1.00  0.00     0.005 C 
ENDBRANCH  28  29
ENDBRANCH  27  28
ENDBRANCH   1  27
TORSDOF 4
ENDMDL
MODEL 3
REMARK VINA RESULT:      -6.7      1.856      3.184
REMARK  4 active torsions:
REMARK  status: ('A' for Active; 'I' for Inactive)
REMARK    1  A    between atoms: C_2  and  C_3 
REMARK    2  A    between atoms: C_3  and  C_4 
REMARK    3  A    between atoms: C_4  and  C_5 
REMARK    4  A    between atoms: C_25  and  N_26 
ROOT
HETATM    1  C   UNL     1      40.278 -14.164   2.751  1.00  0.00     0.067 A 
HETATM    2  N   UNL     1      39.157 -13.425   2.693  1.00  0.00    -0.177 NA
HETATM    3  N   UNL     1      39.191 -12.673   3.809  1.00  0.00    -0.256 N 
HETATM    4  H   UNL     1      38.446 -12.005   3.974  1.00  0.00     0.191 HD
HETATM    5  C   UNL     1      40.287 -12.916   4.570  1.00  0.00     0.176 A 
HETATM    6  C   UNL     1      41.003 -13.905   3.943  1.00  0.00     0.049 A 
HETATM    7  C   UNL     1      42.276 -14.379   4.556  1.00  0.00     0.144 A 
HETATM    8  C   UNL     1      43.451 -14.321   3.543  1.00  0.00     0.246 A 
HETATM    9  O   UNL     1      43.945 -13.331   3.027  1.00  0.00    -0.271 OA
HETATM   10  N   UNL     1      43.871 -15.628   3.326  1.00  0.00    -0.325 N 
HETATM   11  C   UNL     1      43.115 -16.535   4.055  1.00  0.00     0.043 A 
HETATM   12  C   UNL     1      42.137 -15.870   4.812  1.00  0.00     0.003 A 
HETATM   13  C   UNL     1      43.270 -17.905   4.058  1.00  0.00     0.030 A 
HETATM   14  C   UNL     1      42.405 -18.643   4.860  1.00  0.00     0.003 A 
HETATM   15  C   UNL     1      41.423 -18.002   5.635  1.00  0.00     0.007 A 
HETATM   16  C   UNL     1      41.276 -16.604   5.632  1.00  0.00    -0.051 A 
HETATM   17  C   UNL     1      40.203 -15.971   6.467  1.00  0.00     0.049 C 
HETATM   18  C   UNL     1      42.629 -13.555   5.788  1.00  0.00     0.081 A 
HETATM   19  C   UNL     1      43.992 -13.802   6.414  1.00  0.00     0.021 C 
HETATM   20  N   UNL     1      45.124 -14.007   6.932  1.00  0.00    -0.096 N 
HETATM   21  C   UNL     1      41.822 -12.581   6.286  1.00  0.00     0.140 A 
HETATM   22  O   UNL     1      40.583 -12.273   5.694  1.00  0.00    -0.279 OA
HETATM   23  H   UNL     1      44.639 -15.862   2.712  1.00  0.00     0.169 HD
ENDROOT
BRANCH  21  24
HETATM   24  N   UNL     1      42.099 -11.794   7.381  1.00  0.00    -0.282 NA
HETATM   25  H   UNL     1      41.437 -11.863   8.149  1.00  0.00     0.126 HD
HETATM   26  H   UNL     1      43.064 -11.900   7.687  1.00  0.00     0.126 HD
ENDBRANCH  21  24
BRANCH   1  27
HETATM   27  C   UNL     1      40.611 -15.077   1.616  1.00  0.00     0.062 C 
BRANCH  27  28
HETATM   28  C   UNL     1      40.138 -16.512   1.846  1.00  0.00     0.006 C 
BRANCH  28  29
HETATM   29  C   UNL     1      41.038 -17.510   1.118  1.00  0.00    -0.004 C 
HETATM   30  C   UNL     1      42.247 -16.826   0.502  1.00  0.00     0.005 C 
ENDBRANCH  28  29
ENDBRANCH  27  28
ENDBRANCH   1  27
TORSDOF 4
ENDMDL
MODEL 4
REMARK VINA RESULT:      -6.6      1.989      4.678
REMARK  4 active torsions:
REMARK  status: ('A' for Active; 'I' for Inactive)
REMARK    1  A    between atoms: C_2  and  C_3 
REMARK    2  A    between atoms: C_3  and  C_4 
REMARK    3  A    between atoms: C_4  and  C_5 
REMARK    4  A    between atoms: C_25  and  N_26 
ROOT
HETATM    1  C   UNL     1      40.803 -14.864   5.049  1.00  0.00     0.067 A 
HETATM    2  N   UNL     1      41.013 -13.947   6.009  1.00  0.00    -0.177 NA
HETATM    3  N   UNL     1      41.465 -12.864   5.348  1.00  0.00    -0.256 N 
HETATM    4  H   UNL     1      41.673 -12.021   5.872  1.00  0.00     0.191 HD
HETATM    5  C   UNL     1      41.552 -13.067   4.011  1.00  0.00     0.176 A 
HETATM    6  C   UNL     1      41.169 -14.364   3.773  1.00  0.00     0.049 A 
HETATM    7  C   UNL     1      41.162 -14.873   2.372  1.00  0.00     0.144 A 
HETATM    8  C   UNL     1      39.789 -15.494   2.000  1.00  0.00     0.246 A 
HETATM    9  O   UNL     1      38.711 -14.927   1.912  1.00  0.00    -0.271 OA
HETATM   10  N   UNL     1      40.001 -16.847   1.761  1.00  0.00    -0.325 N 
HETATM   11  C   UNL     1      41.332 -17.194   1.941  1.00  0.00     0.043 A 
HETATM   12  C   UNL     1      42.092 -16.073   2.312  1.00  0.00     0.003 A 
HETATM   13  C   UNL     1      41.870 -18.454   1.789  1.00  0.00     0.030 A 
HETATM   14  C   UNL     1      43.235 -18.597   2.019  1.00  0.00     0.003 A 
HETATM   15  C   UNL     1      44.021 -17.489   2.383  1.00  0.00     0.007 A 
HETATM   16  C   UNL     1      43.466 -16.205   2.527  1.00  0.00    -0.051 A 
HETATM   17  C   UNL     1      44.346 -15.060   2.931  1.00  0.00     0.049 C 
HETATM   18  C   UNL     1      41.498 -13.761   1.385  1.00  0.00     0.081 A 
HETATM   19  C   UNL     1      41.350 -14.085  -0.093  1.00  0.00     0.021 C 
HETATM   20  N   UNL     1      41.227 -14.354  -1.319  1.00  0.00    -0.096 N 
HETATM   21  C   UNL     1      41.841 -12.504   1.772  1.00  0.00     0.140 A 
HETATM   22  O   UNL     1      41.922 -12.144   3.130  1.00  0.00    -0.279 OA
HETATM   23  H   UNL     1      39.260 -17.477   1.486  1.00  0.00     0.169 HD
ENDROOT
BRANCH  21  24
HETATM   24  N   UNL     1      42.134 -11.458   0.926  1.00  0.00    -0.282 NA
HETATM   25  H   UNL     1      41.335 -11.036   0.459  1.00  0.00     0.126 HD
HETATM   26  H   UNL     1      42.734 -10.768   1.372  1.00  0.00     0.126 HD
ENDBRANCH  21  24
BRANCH   1  27
HETATM   27  C   UNL     1      40.218 -16.188   5.418  1.00  0.00     0.062 C 
BRANCH  27  28
HETATM   28  C   UNL     1      41.093 -16.975   6.394  1.00  0.00     0.006 C 
BRANCH  28  29
HETATM   29  C   UNL     1      42.206 -17.718   5.656  1.00  0.00    -0.004 C 
HETATM   30  C   UNL     1      43.581 -17.231   6.084  1.00  0.00     0.005 C 
ENDBRANCH  28  29
ENDBRANCH  27  28
ENDBRANCH   1  27
TORSDOF 4
ENDMDL
MODEL 5
REMARK VINA RESULT:      -6.5      1.947      4.841
REMARK  4 active torsions:
REMARK  status: ('A' for Active; 'I' for Inactive)
REMARK    1  A    between atoms: C_2  and  C_3 
REMARK    2  A    between atoms: C_3  and  C_4 
REMARK    3  A    between atoms: C_4  and  C_5 
REMARK    4  A    between atoms: C_25  and  N_26 
ROOT
HETATM    1  C   UNL     1      40.087 -14.534   4.212  1.00  0.00     0.067 A 
HETATM    2  N   UNL     1      39.444 -13.862   3.242  1.00  0.00    -0.177 NA
HETATM    3  N   UNL     1      40.027 -14.278   2.101  1.00  0.00    -0.256 N 
HETATM    4  H   UNL     1      39.686 -13.918   1.217  1.00  0.00     0.191 HD
HETATM    5  C   UNL     1      41.015 -15.180   2.319  1.00  0.00     0.176 A 
HETATM    6  C   UNL     1      41.117 -15.350   3.677  1.00  0.00     0.049 A 
HETATM    7  C   UNL     1      42.130 -16.301   4.217  1.00  0.00     0.144 A 
HETATM    8  C   UNL     1      41.484 -17.332   5.181  1.00  0.00     0.246 A 
HETATM    9  O   UNL     1      40.663 -18.194   4.913  1.00  0.00    -0.271 OA
HETATM   10  N   UNL     1      42.029 -17.112   6.441  1.00  0.00    -0.325 N 
HETATM   11  C   UNL     1      42.936 -16.063   6.429  1.00  0.00     0.043 A 
HETATM   12  C   UNL     1      43.050 -15.520   5.139  1.00  0.00     0.003 A 
HETATM   13  C   UNL     1      43.643 -15.588   7.513  1.00  0.00     0.030 A 
HETATM   14  C   UNL     1      44.508 -14.520   7.292  1.00  0.00     0.003 A 
HETATM   15  C   UNL     1      44.648 -13.963   6.009  1.00  0.00     0.007 A 
HETATM   16  C   UNL     1      43.929 -14.459   4.907  1.00  0.00    -0.051 A 
HETATM   17  C   UNL     1      44.105 -13.820   3.561  1.00  0.00     0.049 C 
HETATM   18  C   UNL     1      42.840 -17.040   3.088  1.00  0.00     0.081 A 
HETATM   19  C   UNL     1      43.771 -18.173   3.488  1.00  0.00     0.021 C 
HETATM   20  N   UNL     1      44.543 -19.114   3.819  1.00  0.00    -0.096 N 
HETATM   21  C   UNL     1      42.618 -16.776   1.774  1.00  0.00     0.140 A 
HETATM   22  O   UNL     1      41.712 -15.782   1.360  1.00  0.00    -0.279 OA
HETATM   23  H   UNL     1      41.781 -17.666   7.249  1.00  0.00     0.169 HD
ENDROOT
BRANCH  21  24
HETATM   24  N   UNL     1      43.215 -17.425   0.716  1.00  0.00    -0.282 NA
HETATM   25  H   UNL     1      44.088 -17.901   0.930  1.00  0.00     0.126 HD
HETATM   26  H   UNL     1      42.558 -18.022   0.219  1.00  0.00     0.126 HD
ENDBRANCH  21  24
BRANCH   1  27
HETATM   27  C   UNL     1      39.642 -14.374   5.630  1.00  0.00     0.062 C 
BRANCH  27  28
HETATM   28  C   UNL     1      39.734 -12.930   6.124  1.00  0.00     0.006 C 
BRANCH  28  29
HETATM   29  C   UNL     1      41.181 -12.439   6.120  1.00  0.00    -0.004 C 
HETATM   30  C   UNL     1      41.388 -11.315   5.118  1.00  0.00     0.005 C 
ENDBRANCH  28  29
ENDBRANCH  27  28
ENDBRANCH   1  27
TORSDOF 4
ENDMDL
MODEL 6
REMARK VINA RESULT:      -6.4      3.308      5.723
REMARK  4 active torsions:
REMARK  status: ('A' for Active; 'I' for Inactive)
REMARK    1  A    between atoms: C_2  and  C_3 
REMARK    2  A    between atoms: C_3  and  C_4 
REMARK    3  A    between atoms: C_4  and  C_5 
REMARK    4  A    between atoms: C_25  and  N_26 
ROOT
HETATM    1  C   UNL     1      40.393 -15.802   2.477  1.00  0.00     0.067 A 
HETATM    2  N   UNL     1      40.797 -16.209   3.692  1.00  0.00    -0.177 NA
HETATM    3  N   UNL     1      40.472 -15.191   4.513  1.00  0.00    -0.256 N 
HETATM    4  H   UNL     1      40.663 -15.281   5.505  1.00  0.00     0.191 HD
HETATM    5  C   UNL     1      39.884 -14.160   3.858  1.00  0.00     0.176 A 
HETATM    6  C   UNL     1      39.846 -14.494   2.527  1.00  0.00     0.049 A 
HETATM    7  C   UNL     1      39.242 -13.539   1.556  1.00  0.00     0.144 A 
HETATM    8  C   UNL     1      38.148 -14.222   0.693  1.00  0.00     0.246 A 
HETATM    9  O   UNL     1      37.080 -14.682   1.066  1.00  0.00    -0.271 OA
HETATM   10  N   UNL     1      38.594 -14.208  -0.623  1.00  0.00    -0.325 N 
HETATM   11  C   UNL     1      39.845 -13.617  -0.731  1.00  0.00     0.043 A 
HETATM   12  C   UNL     1      40.304 -13.194   0.526  1.00  0.00     0.003 A 
HETATM   13  C   UNL     1      40.568 -13.452  -1.894  1.00  0.00     0.030 A 
HETATM   14  C   UNL     1      41.810 -12.833  -1.790  1.00  0.00     0.003 A 
HETATM   15  C   UNL     1      42.290 -12.392  -0.545  1.00  0.00     0.007 A 
HETATM   16  C   UNL     1      41.543 -12.557   0.635  1.00  0.00    -0.051 A 
HETATM   17  C   UNL     1      42.107 -12.081   1.941  1.00  0.00     0.049 C 
HETATM   18  C   UNL     1      38.642 -12.336   2.274  1.00  0.00     0.081 A 
HETATM   19  C   UNL     1      37.830 -11.366   1.431  1.00  0.00     0.021 C 
HETATM   20  N   UNL     1      37.156 -10.561   0.731  1.00  0.00    -0.096 N 
HETATM   21  C   UNL     1      38.741 -12.148   3.617  1.00  0.00     0.140 A 
HETATM   22  O   UNL     1      39.425 -13.059   4.444  1.00  0.00    -0.279 OA
HETATM   23  H   UNL     1      38.053 -14.584  -1.390  1.00  0.00     0.169 HD
ENDROOT
BRANCH  21  24
HETATM   24  N   UNL     1      38.202 -11.093   4.319  1.00  0.00    -0.282 NA
HETATM   25  H   UNL     1      37.474 -11.337   4.986  1.00  0.00     0.126 HD
HETATM   26  H   UNL     1      38.924 -10.504   4.728  1.00  0.00     0.126 HD
ENDBRANCH  21  24
BRANCH   1  27
HETATM   27  C   UNL     1      40.529 -16.731   1.313  1.00  0.00     0.062 C 
BRANCH  27  28
HETATM   28  C   UNL     1      41.850 -16.557   0.564  1.00  0.00     0.006 C 
BRANCH  28  29
HETATM   29  C   UNL     1      42.871 -17.607   1.002  1.00  0.00    -0.004 C 
HETATM   30  C   UNL     1      44.051 -16.974   1.720  1.00  0.00     0.005 C 
ENDBRANCH  28  29
ENDBRANCH  27  28
ENDBRANCH   1  27
TORSDOF 4
ENDMDL
MODEL 7
REMARK VINA RESULT:      -6.2      2.919      5.540
REMARK  4 active torsions:
REMARK  status: ('A' for Active; 'I' for Inactive)
REMARK    1  A    between atoms: C_2  and  C_3 
REMARK    2  A    between atoms: C_3  and  C_4 
REMARK    3  A    between atoms: C_4  and  C_5 
REMARK    4  A    between atoms: C_25  and  N_26 
ROOT
HETATM    1  C   UNL     1      43.061 -14.548   2.850  1.00  0.00     0.067 A 
HETATM    2  N   UNL     1      43.690 -14.073   3.939  1.00  0.00    -0.177 NA
HETATM    3  N   UNL     1      42.830 -13.179   4.461  1.00  0.00    -0.256 N 
HETATM    4  H   UNL     1      43.081 -12.699   5.318  1.00  0.00     0.191 HD
HETATM    5  C   UNL     1      41.687 -13.069   3.739  1.00  0.00     0.176 A 
HETATM    6  C   UNL     1      41.807 -13.911   2.662  1.00  0.00     0.049 A 
HETATM    7  C   UNL     1      40.686 -14.004   1.685  1.00  0.00     0.144 A 
HETATM    8  C   UNL     1      40.241 -15.475   1.468  1.00  0.00     0.246 A 
HETATM    9  O   UNL     1      39.735 -16.232   2.282  1.00  0.00    -0.271 OA
HETATM   10  N   UNL     1      40.511 -15.795   0.142  1.00  0.00    -0.325 N 
HETATM   11  C   UNL     1      41.087 -14.728  -0.533  1.00  0.00     0.043 A 
HETATM   12  C   UNL     1      41.230 -13.621   0.319  1.00  0.00     0.003 A 
HETATM   13  C   UNL     1      41.480 -14.720  -1.854  1.00  0.00     0.030 A 
HETATM   14  C   UNL     1      42.042 -13.545  -2.345  1.00  0.00     0.003 A 
HETATM   15  C   UNL     1      42.189 -12.419  -1.517  1.00  0.00     0.007 A 
HETATM   16  C   UNL     1      41.778 -12.433  -0.172  1.00  0.00    -0.051 A 
HETATM   17  C   UNL     1      41.970 -11.209   0.673  1.00  0.00     0.049 C 
HETATM   18  C   UNL     1      39.491 -13.178   2.145  1.00  0.00     0.081 A 
HETATM   19  C   UNL     1      38.207 -13.320   1.344  1.00  0.00     0.021 C 
HETATM   20  N   UNL     1      37.141 -13.438   0.679  1.00  0.00    -0.096 N 
HETATM   21  C   UNL     1      39.511 -12.399   3.259  1.00  0.00     0.140 A 
HETATM   22  O   UNL     1      40.659 -12.295   4.068  1.00  0.00    -0.279 OA
HETATM   23  H   UNL     1      40.300 -16.699  -0.258  1.00  0.00     0.169 HD
ENDROOT
BRANCH  21  24
HETATM   24  N   UNL     1      38.458 -11.650   3.731  1.00  0.00    -0.282 NA
HETATM   25  H   UNL     1      37.599 -12.165   3.911  1.00  0.00     0.126 HD
HETATM   26  H   UNL     1      38.732 -11.065   4.518  1.00  0.00     0.126 HD
ENDBRANCH  21  24
BRANCH   1  27
HETATM   27  C   UNL     1      43.703 -15.637   2.051  1.00  0.00     0.062 C 
BRANCH  27  28
HETATM   28  C   UNL     1      43.390 -17.033   2.589  1.00  0.00     0.006 C 
BRANCH  28  29
HETATM   29  C   UNL     1      43.466 -18.079   1.476  1.00  0.00    -0.004 C 
HETATM   30  C   UNL     1      43.253 -19.484   2.015  1.00  0.00     0.005 C 
ENDBRANCH  28  29
ENDBRANCH  27  28
ENDBRANCH   1  27
TORSDOF 4
ENDMDL
MODEL 8
REMARK VINA RESULT:      -6.2      2.951      4.953
REMARK  4 active torsions:
REMARK  status: ('A' for Active; 'I' for Inactive)
REMARK    1  A    between atoms: C_2  and  C_3 
REMARK    2  A    between atoms: C_3  and  C_4 
REMARK    3  A    between atoms: C_4  and  C_5 
REMARK    4  A    between atoms: C_25  and  N_26 
ROOT
HETATM    1  C   UNL     1      40.619 -15.871   2.771  1.00  0.00     0.067 A 
HETATM    2  N   UNL     1      40.376 -17.102   2.290  1.00  0.00    -0.177 NA
HETATM    3  N   UNL     1      40.581 -16.991   0.963  1.00  0.00    -0.256 N 
HETATM    4  H   UNL     1      40.478 -17.814   0.380  1.00  0.00     0.191 HD
HETATM    5  C   UNL     1      40.937 -15.737   0.593  1.00  0.00     0.176 A 
HETATM    6  C   UNL     1      40.938 -14.964   1.728  1.00  0.00     0.049 A 
HETATM    7  C   UNL     1      41.302 -13.522   1.624  1.00  0.00     0.144 A 
HETATM    8  C   UNL     1      42.432 -13.149   2.620  1.00  0.00     0.246 A 
HETATM    9  O   UNL     1      43.586 -13.548   2.625  1.00  0.00    -0.271 OA
HETATM   10  N   UNL     1      41.898 -12.241   3.527  1.00  0.00    -0.325 N 
HETATM   11  C   UNL     1      40.561 -11.982   3.261  1.00  0.00     0.043 A 
HETATM   12  C   UNL     1      40.126 -12.712   2.144  1.00  0.00     0.003 A 
HETATM   13  C   UNL     1      39.741 -11.135   3.976  1.00  0.00     0.030 A 
HETATM   14  C   UNL     1      38.422 -11.013   3.548  1.00  0.00     0.003 A 
HETATM   15  C   UNL     1      37.963 -11.726   2.426  1.00  0.00     0.007 A 
HETATM   16  C   UNL     1      38.809 -12.582   1.699  1.00  0.00    -0.051 A 
HETATM   17  C   UNL     1      38.265 -13.330   0.518  1.00  0.00     0.049 C 
HETATM   18  C   UNL     1      41.738 -13.169   0.208  1.00  0.00     0.081 A 
HETATM   19  C   UNL     1      42.312 -11.779  -0.009  1.00  0.00     0.021 C 
HETATM   20  N   UNL     1      42.789 -10.625  -0.188  1.00  0.00    -0.096 N 
HETATM   21  C   UNL     1      41.703 -14.056  -0.822  1.00  0.00     0.140 A 
HETATM   22  O   UNL     1      41.244 -15.375  -0.649  1.00  0.00    -0.279 OA
HETATM   23  H   UNL     1      42.440 -11.830   4.274  1.00  0.00     0.169 HD
ENDROOT
BRANCH  21  24
HETATM   24  N   UNL     1      42.103 -13.798  -2.114  1.00  0.00    -0.282 NA
HETATM   25  H   UNL     1      42.604 -12.923  -2.251  1.00  0.00     0.126 HD
HETATM   26  H   UNL     1      42.588 -14.592  -2.525  1.00  0.00     0.126 HD
ENDBRANCH  21  24
BRANCH   1  27
HETATM   27  C   UNL     1      40.561 -15.639   4.247  1.00  0.00     0.062 C 
BRANCH  27  28
HETATM   28  C   UNL     1      41.401 -16.639   5.041  1.00  0.00     0.006 C 
BRANCH  28  29
HETATM   29  C   UNL     1      42.890 -16.466   4.740  1.00  0.00    -0.004 C 
HETATM   30  C   UNL     1      43.620 -17.799   4.748  1.00  0.00     0.005 C 
ENDBRANCH  28  29
ENDBRANCH  27  28
ENDBRANCH   1  27
TORSDOF 4
ENDMDL
MODEL 9
REMARK VINA RESULT:      -6.1      2.426      4.641
REMARK  4 active torsions:
REMARK  status: ('A' for Active; 'I' for Inactive)
REMARK    1  A    between atoms: C_2  and  C_3 
REMARK    2  A    between atoms: C_3  and  C_4 
REMARK    3  A    between atoms: C_4  and  C_5 
REMARK    4  A    between atoms: C_25  and  N_26 
ROOT
HETATM    1  C   UNL     1      41.221 -12.315   1.496  1.00  0.00     0.067 A 
HETATM    2  N   UNL     1      40.305 -11.345   1.335  1.00  0.00    -0.177 NA
HETATM    3  N   UNL     1      39.540 -11.417   2.441  1.00  0.00    -0.256 N 
HETATM    4  H   UNL     1      38.782 -10.755   2.558  1.00  0.00     0.191 HD
HETATM    5  C   UNL     1      39.937 -12.399   3.288  1.00  0.00     0.176 A 
HETATM    6  C   UNL     1      41.002 -13.035   2.699  1.00  0.00     0.049 A 
HETATM    7  C   UNL     1      41.656 -14.168   3.412  1.00  0.00     0.144 A 
HETATM    8  C   UNL     1      43.188 -13.952   3.538  1.00  0.00     0.246 A 
HETATM    9  O   UNL     1      43.772 -13.082   4.166  1.00  0.00    -0.271 OA
HETATM   10  N   UNL     1      43.807 -14.958   2.805  1.00  0.00    -0.325 N 
HETATM   11  C   UNL     1      42.879 -15.796   2.205  1.00  0.00     0.043 A 
HETATM   12  C   UNL     1      41.571 -15.390   2.513  1.00  0.00     0.003 A 
HETATM   13  C   UNL     1      43.163 -16.884   1.407  1.00  0.00     0.030 A 
HETATM   14  C   UNL     1      42.084 -17.599   0.895  1.00  0.00     0.003 A 
HETATM   15  C   UNL     1      40.764 -17.220   1.196  1.00  0.00     0.007 A 
HETATM   16  C   UNL     1      40.483 -16.114   2.017  1.00  0.00    -0.051 A 
HETATM   17  C   UNL     1      39.057 -15.743   2.296  1.00  0.00     0.049 C 
HETATM   18  C   UNL     1      41.057 -14.359   4.800  1.00  0.00     0.081 A 
HETATM   19  C   UNL     1      41.745 -15.359   5.715  1.00  0.00     0.021 C 
HETATM   20  N   UNL     1      42.316 -16.188   6.475  1.00  0.00    -0.096 N 
HETATM   21  C   UNL     1      40.005 -13.631   5.260  1.00  0.00     0.140 A 
HETATM   22  O   UNL     1      39.383 -12.647   4.470  1.00  0.00    -0.279 OA
HETATM   23  H   UNL     1      44.811 -15.049   2.738  1.00  0.00     0.169 HD
ENDROOT
BRANCH  21  24
HETATM   24  N   UNL     1      39.437 -13.747   6.509  1.00  0.00    -0.282 NA
HETATM   25  H   UNL     1      40.085 -13.942   7.269  1.00  0.00     0.126 HD
HETATM   26  H   UNL     1      38.817 -12.968   6.716  1.00  0.00     0.126 HD
ENDBRANCH  21  24
BRANCH   1  27
HETATM   27  C   UNL     1      42.301 -12.477   0.475  1.00  0.00     0.062 C 
BRANCH  27  28
HETATM   28  C   UNL     1      41.759 -12.797  -0.919  1.00  0.00     0.006 C 
BRANCH  28  29
HETATM   29  C   UNL     1      41.230 -14.229  -0.987  1.00  0.00    -0.004 C 
HETATM   30  C   UNL     1      39.733 -14.260  -1.247  1.00  0.00     0.005 C 
ENDBRANCH  28  29
ENDBRANCH  27  28
ENDBRANCH   1  27
TORSDOF 4
ENDMDL
MODEL 10
REMARK VINA RESULT:      -6.1      1.830      3.353
REMARK  4 active torsions:
REMARK  status: ('A' for Active; 'I' for Inactive)
REMARK    1  A    between atoms: C_2  and  C_3 
REMARK    2  A    between atoms: C_3  and  C_4 
REMARK    3  A    between atoms: C_4  and  C_5 
REMARK    4  A    between atoms: C_25  and  N_26 
ROOT
HETATM    1  C   UNL     1      40.313 -15.519   1.991  1.00  0.00     0.067 A 
HETATM    2  N   UNL     1      39.029 -15.172   1.799  1.00  0.00    -0.177 NA
HETATM    3  N   UNL     1      38.716 -14.429   2.878  1.00  0.00    -0.256 N 
HETATM    4  H   UNL     1      37.787 -14.029   2.945  1.00  0.00     0.191 HD
HETATM    5  C   UNL     1      39.752 -14.302   3.743  1.00  0.00     0.176 A 
HETATM    6  C   UNL     1      40.800 -15.024   3.228  1.00  0.00     0.049 A 
HETATM    7  C   UNL     1      42.090 -15.063   3.973  1.00  0.00     0.144 A 
HETATM    8  C   UNL     1      43.281 -14.653   3.067  1.00  0.00     0.246 A 
HETATM    9  O   UNL     1      43.490 -13.566   2.551  1.00  0.00    -0.271 OA
HETATM   10  N   UNL     1      44.109 -15.764   2.948  1.00  0.00    -0.325 N 
HETATM   11  C   UNL     1      43.606 -16.851   3.649  1.00  0.00     0.043 A 
HETATM   12  C   UNL     1      42.400 -16.517   4.285  1.00  0.00     0.003 A 
HETATM   13  C   UNL     1      44.181 -18.102   3.729  1.00  0.00     0.030 A 
HETATM   14  C   UNL     1      43.515 -19.062   4.485  1.00  0.00     0.003 A 
HETATM   15  C   UNL     1      42.310 -18.752   5.140  1.00  0.00     0.007 A 
HETATM   16  C   UNL     1      41.735 -17.471   5.059  1.00  0.00    -0.051 A 
HETATM   17  C   UNL     1      40.440 -17.196   5.765  1.00  0.00     0.049 C 
HETATM   18  C   UNL     1      42.044 -14.149   5.192  1.00  0.00     0.081 A 
HETATM   19  C   UNL     1      43.348 -13.943   5.947  1.00  0.00     0.021 C 
HETATM   20  N   UNL     1      44.430 -13.772   6.572  1.00  0.00    -0.096 N 
HETATM   21  C   UNL     1      40.928 -13.472   5.570  1.00  0.00     0.140 A 
HETATM   22  O   UNL     1      39.719 -13.580   4.858  1.00  0.00    -0.279 OA
HETATM   23  H   UNL     1      44.968 -15.754   2.416  1.00  0.00     0.169 HD
ENDROOT
BRANCH  21  24
HETATM   24  N   UNL     1      40.836 -12.619   6.648  1.00  0.00    -0.282 NA
HETATM   25  H   UNL     1      39.904 -12.503   7.036  1.00  0.00     0.126 HD
HETATM   26  H   UNL     1      41.530 -12.835   7.360  1.00  0.00     0.126 HD
ENDBRANCH  21  24
BRANCH   1  27
HETATM   27  C   UNL     1      41.026 -16.297   0.933  1.00  0.00     0.062 C 
BRANCH  27  28
HETATM   28  C   UNL     1      41.026 -15.595  -0.425  1.00  0.00     0.006 C 
BRANCH  28  29
HETATM   29  C   UNL     1      41.704 -14.228  -0.336  1.00  0.00    -0.004 C 
HETATM   30  C   UNL     1      40.814 -13.126  -0.887  1.00  0.00     0.005 C 
ENDBRANCH  28  29
ENDBRANCH  27  28
ENDBRANCH   1  27
TORSDOF 4
ENDMDL
