MODEL 1
REMARK VINA RESULT:      -9.2      0.000      0.000
REMARK  2 active torsions:
REMARK  status: ('A' for Active; 'I' for Inactive)
REMARK       I    between atoms: N_8  and  C_9 
REMARK    1  A    between atoms: C_9  and  C_10 
REMARK    2  A    between atoms: N_12  and  C_13 
ROOT
HETATM    1  C   UNL     1      42.038 -17.241   6.651  1.00  0.00     0.021 C 
HETATM    2  C   UNL     1      42.987 -17.680   5.538  1.00  0.00     0.087 C 
HETATM    3  C   UNL     1      43.839 -18.861   5.992  1.00  0.00     0.207 C 
HETATM    4  O   UNL     1      43.630 -19.506   7.013  1.00  0.00    -0.279 OA
HETATM    5  N   UNL     1      44.839 -19.176   5.080  1.00  0.00    -0.227 NA
HETATM    6  C   UNL     1      44.425 -20.081   4.062  1.00  0.00     0.042 A 
HETATM    7  C   UNL     1      43.641 -19.610   2.989  1.00  0.00     0.059 A 
HETATM    8  N   UNL     1      43.022 -18.315   3.078  1.00  0.00    -0.309 N 
HETATM    9  C   UNL     1      42.973 -17.463   1.951  1.00  0.00     0.298 C 
HETATM   10  O   UNL     1      43.445 -17.789   0.859  1.00  0.00    -0.264 OA
HETATM   11  C   UNL     1      42.196 -18.119   4.299  1.00  0.00     0.145 C 
HETATM   12  C   UNL     1      44.932 -21.379   4.078  1.00  0.00     0.026 A 
HETATM   13  C   UNL     1      44.674 -22.224   3.001  1.00  0.00     0.002 A 
HETATM   14  C   UNL     1      43.930 -21.763   1.913  1.00  0.00     0.002 A 
HETATM   15  C   UNL     1      43.417 -20.461   1.903  1.00  0.00     0.031 A 
HETATM   16  H   UNL     1      45.102 -18.314   4.607  1.00  0.00     0.136 HD
ENDROOT
BRANCH   9  17
HETATM   17  C   UNL     1      42.396 -16.103   2.133  1.00  0.00     0.239 A 
HETATM   18  N   UNL     1      41.153 -15.787   1.728  1.00  0.00    -0.140 NA
HETATM   19  N   UNL     1      41.048 -14.473   2.025  1.00  0.00    -0.225 N 
HETATM   20  C   UNL     1      42.222 -14.043   2.588  1.00  0.00     0.237 A 
HETATM   21  N   UNL     1      43.086 -15.030   2.665  1.00  0.00    -0.216 NA
BRANCH  19  22
HETATM   22  C   UNL     1      39.861 -13.739   1.764  1.00  0.00     0.059 A 
HETATM   23  C   UNL     1      38.823 -14.347   1.040  1.00  0.00     0.031 A 
HETATM   24  C   UNL     1      37.647 -13.644   0.773  1.00  0.00     0.002 A 
HETATM   25  C   UNL     1      37.498 -12.335   1.228  1.00  0.00     0.000 A 
HETATM   26  C   UNL     1      38.525 -11.726   1.948  1.00  0.00     0.002 A 
HETATM   27  C   UNL     1      39.707 -12.422   2.218  1.00  0.00     0.031 A 
ENDBRANCH  19  22
ENDBRANCH   9  17
TORSDOF 2
ENDMDL
MODEL 2
REMARK VINA RESULT:      -8.9      2.350      2.810
REMARK  2 active torsions:
REMARK  status: ('A' for Active; 'I' for Inactive)
REMARK       I    between atoms: N_8  and  C_9 
REMARK    1  A    between atoms: C_9  and  C_10 
REMARK    2  A    between atoms: N_12  and  C_13 
ROOT
HETATM    1  C   UNL     1      42.701 -17.536   7.522  1.00  0.00     0.021 C 
HETATM    2  C   UNL     1      43.531 -17.855   6.280  1.00  0.00     0.087 C 
HETATM    3  C   UNL     1      44.159 -19.240   6.392  1.00  0.00     0.207 C 
HETATM    4  O   UNL     1      43.855 -20.064   7.247  1.00  0.00    -0.279 OA
HETATM    5  N   UNL     1      45.065 -19.496   5.371  1.00  0.00    -0.227 NA
HETATM    6  C   UNL     1      44.471 -20.045   4.199  1.00  0.00     0.042 A 
HETATM    7  C   UNL     1      43.766 -19.201   3.316  1.00  0.00     0.059 A 
HETATM    8  N   UNL     1      43.398 -17.878   3.743  1.00  0.00    -0.309 N 
HETATM    9  C   UNL     1      43.485 -16.785   2.849  1.00  0.00     0.298 C 
HETATM   10  O   UNL     1      43.866 -16.917   1.684  1.00  0.00    -0.264 OA
HETATM   11  C   UNL     1      42.648 -17.839   5.025  1.00  0.00     0.145 C 
HETATM   12  C   UNL     1      44.730 -21.377   3.881  1.00  0.00     0.026 A 
HETATM   13  C   UNL     1      44.299 -21.881   2.656  1.00  0.00     0.002 A 
HETATM   14  C   UNL     1      43.631 -21.050   1.754  1.00  0.00     0.002 A 
HETATM   15  C   UNL     1      43.367 -19.715   2.079  1.00  0.00     0.031 A 
HETATM   16  H   UNL     1      45.473 -18.606   5.095  1.00  0.00     0.136 HD
ENDROOT
BRANCH   9  17
HETATM   17  C   UNL     1      43.172 -15.429   3.378  1.00  0.00     0.239 A 
HETATM   18  N   UNL     1      42.158 -15.205   4.232  1.00  0.00    -0.140 NA
HETATM   19  N   UNL     1      42.187 -13.866   4.414  1.00  0.00    -0.225 N 
HETATM   20  C   UNL     1      43.204 -13.333   3.664  1.00  0.00     0.237 A 
HETATM   21  N   UNL     1      43.834 -14.276   3.001  1.00  0.00    -0.216 NA
BRANCH  19  22
HETATM   22  C   UNL     1      41.270 -13.207   5.273  1.00  0.00     0.059 A 
HETATM   23  C   UNL     1      41.704 -12.104   6.025  1.00  0.00     0.031 A 
HETATM   24  C   UNL     1      40.818 -11.440   6.876  1.00  0.00     0.002 A 
HETATM   25  C   UNL     1      39.497 -11.868   6.978  1.00  0.00     0.000 A 
HETATM   26  C   UNL     1      39.058 -12.962   6.233  1.00  0.00     0.002 A 
HETATM   27  C   UNL     1      39.940 -13.634   5.381  1.00  0.00     0.031 A 
ENDBRANCH  19  22
ENDBRANCH   9  17
TORSDOF 2
ENDMDL
MODEL 3
REMARK VINA RESULT:      -8.8      2.071      2.537
REMARK  2 active torsions:
REMARK  status: ('A' for Active; 'I' for Inactive)
REMARK       I    between atoms: N_8  and  C_9 
REMARK    1  A    between atoms: C_9  and  C_10 
REMARK    2  A    between atoms: N_12  and  C_13 
ROOT
HETATM    1  C   UNL     1      40.596 -15.854   5.429  1.00  0.00     0.021 C 
HETATM    2  C   UNL     1      41.920 -16.366   4.865  1.00  0.00     0.087 C 
HETATM    3  C   UNL     1      42.711 -17.107   5.936  1.00  0.00     0.207 C 
HETATM    4  O   UNL     1      42.251 -17.442   7.022  1.00  0.00    -0.279 OA
HETATM    5  N   UNL     1      43.997 -17.430   5.519  1.00  0.00    -0.227 NA
HETATM    6  C   UNL     1      44.083 -18.674   4.832  1.00  0.00     0.042 A 
HETATM    7  C   UNL     1      43.662 -18.758   3.488  1.00  0.00     0.059 A 
HETATM    8  N   UNL     1      42.884 -17.689   2.922  1.00  0.00    -0.309 N 
HETATM    9  C   UNL     1      43.114 -17.259   1.595  1.00  0.00     0.298 C 
HETATM   10  O   UNL     1      43.971 -17.776   0.875  1.00  0.00    -0.264 OA
HETATM   11  C   UNL     1      41.670 -17.340   3.706  1.00  0.00     0.145 C 
HETATM   12  C   UNL     1      44.721 -19.741   5.462  1.00  0.00     0.026 A 
HETATM   13  C   UNL     1      44.964 -20.910   4.743  1.00  0.00     0.002 A 
HETATM   14  C   UNL     1      44.586 -20.997   3.402  1.00  0.00     0.002 A 
HETATM   15  C   UNL     1      43.940 -19.927   2.774  1.00  0.00     0.031 A 
HETATM   16  H   UNL     1      44.290 -16.716   4.855  1.00  0.00     0.136 HD
ENDROOT
BRANCH   9  17
HETATM   17  C   UNL     1      42.334 -16.092   1.098  1.00  0.00     0.239 A 
HETATM   18  N   UNL     1      41.547 -16.162   0.010  1.00  0.00    -0.140 NA
HETATM   19  N   UNL     1      41.077 -14.901  -0.121  1.00  0.00    -0.225 N 
HETATM   20  C   UNL     1      41.598 -14.120   0.878  1.00  0.00     0.237 A 
HETATM   21  N   UNL     1      42.390 -14.827   1.652  1.00  0.00    -0.216 NA
BRANCH  19  22
HETATM   22  C   UNL     1      40.182 -14.541  -1.162  1.00  0.00     0.059 A 
HETATM   23  C   UNL     1      39.027 -13.806  -0.851  1.00  0.00     0.031 A 
HETATM   24  C   UNL     1      38.133 -13.440  -1.860  1.00  0.00     0.002 A 
HETATM   25  C   UNL     1      38.387 -13.800  -3.181  1.00  0.00     0.000 A 
HETATM   26  C   UNL     1      39.533 -14.529  -3.497  1.00  0.00     0.002 A 
HETATM   27  C   UNL     1      40.432 -14.902  -2.493  1.00  0.00     0.031 A 
ENDBRANCH  19  22
ENDBRANCH   9  17
TORSDOF 2
ENDMDL
MODEL 4
REMARK VINA RESULT:      -8.7      1.829      2.594
REMARK  2 active torsions:
REMARK  status: ('A' for Active; 'I' for Inactive)
REMARK       I    between atoms: N_8  and  C_9 
REMARK    1  A    between atoms: C_9  and  C_10 
REMARK    2  A    between atoms: N_12  and  C_13 
ROOT
HETATM    1  C   UNL     1      41.883 -17.235   7.054  1.00  0.00     0.021 C 
HETATM    2  C   UNL     1      42.696 -17.452   5.779  1.00  0.00     0.087 C 
HETATM    3  C   UNL     1      43.793 -18.486   6.009  1.00  0.00     0.207 C 
HETATM    4  O   UNL     1      43.864 -19.203   7.000  1.00  0.00    -0.279 OA
HETATM    5  N   UNL     1      44.668 -18.580   4.933  1.00  0.00    -0.227 NA
HETATM    6  C   UNL     1      44.247 -19.496   3.928  1.00  0.00     0.042 A 
HETATM    7  C   UNL     1      43.230 -19.121   3.026  1.00  0.00     0.059 A 
HETATM    8  N   UNL     1      42.430 -17.958   3.304  1.00  0.00    -0.309 N 
HETATM    9  C   UNL     1      42.057 -17.078   2.262  1.00  0.00     0.298 C 
HETATM   10  O   UNL     1      42.389 -17.267   1.090  1.00  0.00    -0.264 OA
HETATM   11  C   UNL     1      41.795 -17.965   4.648  1.00  0.00     0.145 C 
HETATM   12  C   UNL     1      44.956 -20.685   3.771  1.00  0.00     0.026 A 
HETATM   13  C   UNL     1      44.667 -21.513   2.688  1.00  0.00     0.002 A 
HETATM   14  C   UNL     1      43.689 -21.140   1.765  1.00  0.00     0.002 A 
HETATM   15  C   UNL     1      42.974 -19.948   1.929  1.00  0.00     0.031 A 
HETATM   16  H   UNL     1      44.704 -17.665   4.489  1.00  0.00     0.136 HD
ENDROOT
BRANCH   9  17
HETATM   17  C   UNL     1      41.301 -15.849   2.630  1.00  0.00     0.239 A 
HETATM   18  N   UNL     1      41.844 -14.860   3.362  1.00  0.00    -0.140 NA
HETATM   19  N   UNL     1      40.828 -13.981   3.510  1.00  0.00    -0.225 N 
HETATM   20  C   UNL     1      39.715 -14.469   2.874  1.00  0.00     0.237 A 
HETATM   21  N   UNL     1      39.971 -15.632   2.320  1.00  0.00    -0.216 NA
BRANCH  19  22
HETATM   22  C   UNL     1      40.988 -12.765   4.224  1.00  0.00     0.059 A 
HETATM   23  C   UNL     1      41.361 -12.807   5.577  1.00  0.00     0.031 A 
HETATM   24  C   UNL     1      41.525 -11.623   6.298  1.00  0.00     0.002 A 
HETATM   25  C   UNL     1      41.323 -10.394   5.675  1.00  0.00     0.000 A 
HETATM   26  C   UNL     1      40.954 -10.345   4.332  1.00  0.00     0.002 A 
HETATM   27  C   UNL     1      40.785 -11.526   3.602  1.00  0.00     0.031 A 
ENDBRANCH  19  22
ENDBRANCH   9  17
TORSDOF 2
ENDMDL
MODEL 5
REMARK VINA RESULT:      -8.6      3.836      5.476
REMARK  2 active torsions:
REMARK  status: ('A' for Active; 'I' for Inactive)
REMARK       I    between atoms: N_8  and  C_9 
REMARK    1  A    between atoms: C_9  and  C_10 
REMARK    2  A    between atoms: N_12  and  C_13 
ROOT
HETATM    1  C   UNL     1      43.236 -17.441   8.480  1.00  0.00     0.021 C 
HETATM    2  C   UNL     1      43.816 -17.343   7.071  1.00  0.00     0.087 C 
HETATM    3  C   UNL     1      44.391 -18.685   6.631  1.00  0.00     0.207 C 
HETATM    4  O   UNL     1      44.207 -19.739   7.227  1.00  0.00    -0.279 OA
HETATM    5  N   UNL     1      45.089 -18.596   5.433  1.00  0.00    -0.227 NA
HETATM    6  C   UNL     1      44.273 -18.757   4.278  1.00  0.00     0.042 A 
HETATM    7  C   UNL     1      43.461 -17.687   3.845  1.00  0.00     0.059 A 
HETATM    8  N   UNL     1      43.236 -16.569   4.722  1.00  0.00    -0.309 N 
HETATM    9  C   UNL     1      43.212 -15.251   4.212  1.00  0.00     0.298 C 
HETATM   10  O   UNL     1      43.374 -15.005   3.015  1.00  0.00    -0.264 OA
HETATM   11  C   UNL     1      42.727 -16.945   6.067  1.00  0.00     0.145 C 
HETATM   12  C   UNL     1      44.411 -19.918   3.520  1.00  0.00     0.026 A 
HETATM   13  C   UNL     1      43.746 -20.017   2.299  1.00  0.00     0.002 A 
HETATM   14  C   UNL     1      42.968 -18.954   1.838  1.00  0.00     0.002 A 
HETATM   15  C   UNL     1      42.827 -17.792   2.604  1.00  0.00     0.031 A 
HETATM   16  H   UNL     1      45.482 -17.659   5.377  1.00  0.00     0.136 HD
ENDROOT
BRANCH   9  17
HETATM   17  C   UNL     1      43.060 -14.134   5.184  1.00  0.00     0.239 A 
HETATM   18  N   UNL     1      43.936 -13.920   6.181  1.00  0.00    -0.140 NA
HETATM   19  N   UNL     1      43.410 -12.868   6.845  1.00  0.00    -0.225 N 
HETATM   20  C   UNL     1      42.241 -12.490   6.236  1.00  0.00     0.237 A 
HETATM   21  N   UNL     1      41.988 -13.259   5.202  1.00  0.00    -0.216 NA
BRANCH  19  22
HETATM   22  C   UNL     1      44.047 -12.306   7.983  1.00  0.00     0.059 A 
HETATM   23  C   UNL     1      43.359 -11.359   8.758  1.00  0.00     0.031 A 
HETATM   24  C   UNL     1      43.966 -10.795   9.881  1.00  0.00     0.002 A 
HETATM   25  C   UNL     1      45.258 -11.174  10.240  1.00  0.00     0.000 A 
HETATM   26  C   UNL     1      45.947 -12.115   9.475  1.00  0.00     0.002 A 
HETATM   27  C   UNL     1      45.347 -12.683   8.347  1.00  0.00     0.031 A 
ENDBRANCH  19  22
ENDBRANCH   9  17
TORSDOF 2
ENDMDL
MODEL 6
REMARK VINA RESULT:      -8.5      3.396      8.507
REMARK  2 active torsions:
REMARK  status: ('A' for Active; 'I' for Inactive)
REMARK       I    between atoms: N_8  and  C_9 
REMARK    1  A    between atoms: C_9  and  C_10 
REMARK    2  A    between atoms: N_12  and  C_13 
ROOT
HETATM    1  C   UNL     1      40.358 -16.053  -2.362  1.00  0.00     0.021 C 
HETATM    2  C   UNL     1      41.383 -15.065  -1.811  1.00  0.00     0.087 C 
HETATM    3  C   UNL     1      41.780 -14.050  -2.877  1.00  0.00     0.207 C 
HETATM    4  O   UNL     1      41.192 -13.908  -3.943  1.00  0.00    -0.279 OA
HETATM    5  N   UNL     1      42.841 -13.246  -2.477  1.00  0.00    -0.227 NA
HETATM    6  C   UNL     1      42.444 -12.085  -1.758  1.00  0.00     0.042 A 
HETATM    7  C   UNL     1      42.065 -12.199  -0.404  1.00  0.00     0.059 A 
HETATM    8  N   UNL     1      41.796 -13.501   0.148  1.00  0.00    -0.309 N 
HETATM    9  C   UNL     1      42.219 -13.826   1.457  1.00  0.00     0.298 C 
HETATM   10  O   UNL     1      42.819 -13.022   2.174  1.00  0.00    -0.264 OA
HETATM   11  C   UNL     1      40.800 -14.292  -0.620  1.00  0.00     0.145 C 
HETATM   12  C   UNL     1      42.583 -10.841  -2.371  1.00  0.00     0.026 A 
HETATM   13  C   UNL     1      42.360  -9.685  -1.625  1.00  0.00     0.002 A 
HETATM   14  C   UNL     1      42.020  -9.779  -0.274  1.00  0.00     0.002 A 
HETATM   15  C   UNL     1      41.875 -11.030   0.337  1.00  0.00     0.031 A 
HETATM   16  H   UNL     1      43.416 -13.795  -1.841  1.00  0.00     0.136 HD
ENDROOT
BRANCH   9  17
HETATM   17  C   UNL     1      41.985 -15.216   1.937  1.00  0.00     0.239 A 
HETATM   18  N   UNL     1      42.970 -16.128   2.009  1.00  0.00    -0.140 NA
HETATM   19  N   UNL     1      42.336 -17.245   2.431  1.00  0.00    -0.225 N 
HETATM   20  C   UNL     1      41.002 -16.972   2.591  1.00  0.00     0.237 A 
HETATM   21  N   UNL     1      40.746 -15.720   2.286  1.00  0.00    -0.216 NA
BRANCH  19  22
HETATM   22  C   UNL     1      43.031 -18.462   2.653  1.00  0.00     0.059 A 
HETATM   23  C   UNL     1      43.798 -18.613   3.819  1.00  0.00     0.031 A 
HETATM   24  C   UNL     1      44.489 -19.802   4.058  1.00  0.00     0.002 A 
HETATM   25  C   UNL     1      44.417 -20.847   3.140  1.00  0.00     0.000 A 
HETATM   26  C   UNL     1      43.656 -20.705   1.980  1.00  0.00     0.002 A 
HETATM   27  C   UNL     1      42.963 -19.516   1.732  1.00  0.00     0.031 A 
ENDBRANCH  19  22
ENDBRANCH   9  17
TORSDOF 2
ENDMDL
MODEL 7
REMARK VINA RESULT:      -8.5      2.557      4.394
REMARK  2 active torsions:
REMARK  status: ('A' for Active; 'I' for Inactive)
REMARK       I    between atoms: N_8  and  C_9 
REMARK    1  A    between atoms: C_9  and  C_10 
REMARK    2  A    between atoms: N_12  and  C_13 
ROOT
HETATM    1  C   UNL     1      43.663 -17.952   0.907  1.00  0.00     0.021 C 
HETATM    2  C   UNL     1      42.924 -17.459   2.149  1.00  0.00     0.087 C 
HETATM    3  C   UNL     1      42.988 -18.499   3.262  1.00  0.00     0.207 C 
HETATM    4  O   UNL     1      43.718 -19.483   3.242  1.00  0.00    -0.279 OA
HETATM    5  N   UNL     1      42.178 -18.171   4.343  1.00  0.00    -0.227 NA
HETATM    6  C   UNL     1      42.815 -17.343   5.309  1.00  0.00     0.042 A 
HETATM    7  C   UNL     1      42.971 -15.965   5.051  1.00  0.00     0.059 A 
HETATM    8  N   UNL     1      42.763 -15.467   3.717  1.00  0.00    -0.309 N 
HETATM    9  C   UNL     1      42.103 -14.234   3.506  1.00  0.00     0.298 C 
HETATM   10  O   UNL     1      41.690 -13.542   4.439  1.00  0.00    -0.264 OA
HETATM   11  C   UNL     1      43.561 -16.166   2.676  1.00  0.00     0.145 C 
HETATM   12  C   UNL     1      43.136 -17.891   6.550  1.00  0.00     0.026 A 
HETATM   13  C   UNL     1      43.603 -17.056   7.563  1.00  0.00     0.002 A 
HETATM   14  C   UNL     1      43.729 -15.684   7.336  1.00  0.00     0.002 A 
HETATM   15  C   UNL     1      43.412 -15.138   6.087  1.00  0.00     0.031 A 
HETATM   16  H   UNL     1      41.391 -17.637   3.982  1.00  0.00     0.136 HD
ENDROOT
BRANCH   9  17
HETATM   17  C   UNL     1      41.844 -13.817   2.101  1.00  0.00     0.239 A 
HETATM   18  N   UNL     1      41.066 -14.530   1.269  1.00  0.00    -0.140 NA
HETATM   19  N   UNL     1      41.139 -13.848   0.104  1.00  0.00    -0.225 N 
HETATM   20  C   UNL     1      41.957 -12.761   0.271  1.00  0.00     0.237 A 
HETATM   21  N   UNL     1      42.419 -12.713   1.499  1.00  0.00    -0.216 NA
BRANCH  19  22
HETATM   22  C   UNL     1      40.435 -14.268  -1.055  1.00  0.00     0.059 A 
HETATM   23  C   UNL     1      41.027 -15.205  -1.916  1.00  0.00     0.031 A 
HETATM   24  C   UNL     1      40.352 -15.633  -3.061  1.00  0.00     0.002 A 
HETATM   25  C   UNL     1      39.084 -15.133  -3.350  1.00  0.00     0.000 A 
HETATM   26  C   UNL     1      38.490 -14.204  -2.498  1.00  0.00     0.002 A 
HETATM   27  C   UNL     1      39.160 -13.768  -1.351  1.00  0.00     0.031 A 
ENDBRANCH  19  22
ENDBRANCH   9  17
TORSDOF 2
ENDMDL
MODEL 8
REMARK VINA RESULT:      -8.3      2.081      7.824
REMARK  2 active torsions:
REMARK  status: ('A' for Active; 'I' for Inactive)
REMARK       I    between atoms: N_8  and  C_9 
REMARK    1  A    between atoms: C_9  and  C_10 
REMARK    2  A    between atoms: N_12  and  C_13 
ROOT
HETATM    1  C   UNL     1      41.731 -17.716   1.488  1.00  0.00     0.021 C 
HETATM    2  C   UNL     1      41.975 -16.449   2.305  1.00  0.00     0.087 C 
HETATM    3  C   UNL     1      41.272 -15.255   1.670  1.00  0.00     0.207 C 
HETATM    4  O   UNL     1      40.446 -15.344   0.769  1.00  0.00    -0.279 OA
HETATM    5  N   UNL     1      41.615 -14.053   2.277  1.00  0.00    -0.227 NA
HETATM    6  C   UNL     1      40.802 -13.722   3.398  1.00  0.00     0.042 A 
HETATM    7  C   UNL     1      41.022 -14.368   4.632  1.00  0.00     0.059 A 
HETATM    8  N   UNL     1      41.844 -15.548   4.677  1.00  0.00    -0.309 N 
HETATM    9  C   UNL     1      42.747 -15.753   5.745  1.00  0.00     0.298 C 
HETATM   10  O   UNL     1      42.863 -14.949   6.672  1.00  0.00    -0.264 OA
HETATM   11  C   UNL     1      41.428 -16.615   3.729  1.00  0.00     0.145 C 
HETATM   12  C   UNL     1      39.908 -12.659   3.283  1.00  0.00     0.026 A 
HETATM   13  C   UNL     1      39.230 -12.214   4.416  1.00  0.00     0.002 A 
HETATM   14  C   UNL     1      39.462 -12.818   5.652  1.00  0.00     0.002 A 
HETATM   15  C   UNL     1      40.356 -13.890   5.763  1.00  0.00     0.031 A 
HETATM   16  H   UNL     1      42.564 -14.149   2.630  1.00  0.00     0.136 HD
ENDROOT
BRANCH   9  17
HETATM   17  C   UNL     1      43.630 -16.951   5.688  1.00  0.00     0.239 A 
HETATM   18  N   UNL     1      43.362 -18.006   4.899  1.00  0.00    -0.140 NA
HETATM   19  N   UNL     1      44.358 -18.874   5.184  1.00  0.00    -0.225 N 
HETATM   20  C   UNL     1      45.181 -18.321   6.131  1.00  0.00     0.237 A 
HETATM   21  N   UNL     1      44.754 -17.126   6.473  1.00  0.00    -0.216 NA
BRANCH  19  22
HETATM   22  C   UNL     1      44.457 -20.137   4.543  1.00  0.00     0.059 A 
HETATM   23  C   UNL     1      44.322 -20.212   3.148  1.00  0.00     0.031 A 
HETATM   24  C   UNL     1      44.417 -21.443   2.497  1.00  0.00     0.002 A 
HETATM   25  C   UNL     1      44.650 -22.604   3.231  1.00  0.00     0.000 A 
HETATM   26  C   UNL     1      44.786 -22.537   4.617  1.00  0.00     0.002 A 
HETATM   27  C   UNL     1      44.690 -21.308   5.277  1.00  0.00     0.031 A 
ENDBRANCH  19  22
ENDBRANCH   9  17
TORSDOF 2
ENDMDL
MODEL 9
REMARK VINA RESULT:      -8.3      3.108      4.695
REMARK  2 active torsions:
REMARK  status: ('A' for Active; 'I' for Inactive)
REMARK       I    between atoms: N_8  and  C_9 
REMARK    1  A    between atoms: C_9  and  C_10 
REMARK    2  A    between atoms: N_12  and  C_13 
ROOT
HETATM    1  C   UNL     1      43.606 -18.096   1.006  1.00  0.00     0.021 C 
HETATM    2  C   UNL     1      42.893 -17.576   2.253  1.00  0.00     0.087 C 
HETATM    3  C   UNL     1      42.969 -18.597   3.382  1.00  0.00     0.207 C 
HETATM    4  O   UNL     1      43.691 -19.588   3.365  1.00  0.00    -0.279 OA
HETATM    5  N   UNL     1      42.181 -18.245   4.471  1.00  0.00    -0.227 NA
HETATM    6  C   UNL     1      42.842 -17.406   5.411  1.00  0.00     0.042 A 
HETATM    7  C   UNL     1      43.004 -16.034   5.127  1.00  0.00     0.059 A 
HETATM    8  N   UNL     1      42.777 -15.556   3.790  1.00  0.00    -0.309 N 
HETATM    9  C   UNL     1      42.122 -14.322   3.570  1.00  0.00     0.298 C 
HETATM   10  O   UNL     1      41.731 -13.611   4.498  1.00  0.00    -0.264 OA
HETATM   11  C   UNL     1      43.549 -16.280   2.746  1.00  0.00     0.145 C 
HETATM   12  C   UNL     1      43.181 -17.936   6.655  1.00  0.00     0.026 A 
HETATM   13  C   UNL     1      43.673 -17.088   7.646  1.00  0.00     0.002 A 
HETATM   14  C   UNL     1      43.805 -15.721   7.394  1.00  0.00     0.002 A 
HETATM   15  C   UNL     1      43.471 -15.194   6.142  1.00  0.00     0.031 A 
HETATM   16  H   UNL     1      41.392 -17.710   4.116  1.00  0.00     0.136 HD
ENDROOT
BRANCH   9  17
HETATM   17  C   UNL     1      41.841 -13.926   2.163  1.00  0.00     0.239 A 
HETATM   18  N   UNL     1      42.461 -12.893   1.567  1.00  0.00    -0.140 NA
HETATM   19  N   UNL     1      41.890 -12.843   0.343  1.00  0.00    -0.225 N 
HETATM   20  C   UNL     1      40.948 -13.835   0.246  1.00  0.00     0.237 A 
HETATM   21  N   UNL     1      40.886 -14.525   1.362  1.00  0.00    -0.216 NA
BRANCH  19  22
HETATM   22  C   UNL     1      42.277 -11.881  -0.625  1.00  0.00     0.059 A 
HETATM   23  C   UNL     1      42.193 -12.206  -1.988  1.00  0.00     0.031 A 
HETATM   24  C   UNL     1      42.568 -11.274  -2.958  1.00  0.00     0.002 A 
HETATM   25  C   UNL     1      43.022 -10.014  -2.575  1.00  0.00     0.000 A 
HETATM   26  C   UNL     1      43.106  -9.684  -1.224  1.00  0.00     0.002 A 
HETATM   27  C   UNL     1      42.736 -10.612  -0.246  1.00  0.00     0.031 A 
ENDBRANCH  19  22
ENDBRANCH   9  17
TORSDOF 2
ENDMDL
MODEL 10
REMARK VINA RESULT:      -8.2      2.366      7.551
REMARK  2 active torsions:
REMARK  status: ('A' for Active; 'I' for Inactive)
REMARK       I    between atoms: N_8  and  C_9 
REMARK    1  A    between atoms: C_9  and  C_10 
REMARK    2  A    between atoms: N_12  and  C_13 
ROOT
HETATM    1  C   UNL     1      44.115 -14.018   5.466  1.00  0.00     0.021 C 
HETATM    2  C   UNL     1      42.670 -14.222   5.017  1.00  0.00     0.087 C 
HETATM    3  C   UNL     1      41.744 -13.233   5.715  1.00  0.00     0.207 C 
HETATM    4  O   UNL     1      42.133 -12.269   6.364  1.00  0.00    -0.279 OA
HETATM    5  N   UNL     1      40.402 -13.501   5.475  1.00  0.00    -0.227 NA
HETATM    6  C   UNL     1      39.895 -12.886   4.296  1.00  0.00     0.042 A 
HETATM    7  C   UNL     1      40.197 -13.441   3.035  1.00  0.00     0.059 A 
HETATM    8  N   UNL     1      41.239 -14.427   2.927  1.00  0.00    -0.309 N 
HETATM    9  C   UNL     1      41.086 -15.544   2.074  1.00  0.00     0.298 C 
HETATM   10  O   UNL     1      40.073 -15.717   1.393  1.00  0.00    -0.264 OA
HETATM   11  C   UNL     1      42.541 -14.000   3.504  1.00  0.00     0.145 C 
HETATM   12  C   UNL     1      38.989 -11.835   4.429  1.00  0.00     0.026 A 
HETATM   13  C   UNL     1      38.355 -11.334   3.293  1.00  0.00     0.002 A 
HETATM   14  C   UNL     1      38.615 -11.896   2.042  1.00  0.00     0.002 A 
HETATM   15  C   UNL     1      39.529 -12.947   1.911  1.00  0.00     0.031 A 
HETATM   16  H   UNL     1      40.312 -14.505   5.335  1.00  0.00     0.136 HD
ENDROOT
BRANCH   9  17
HETATM   17  C   UNL     1      42.164 -16.570   2.073  1.00  0.00     0.239 A 
HETATM   18  N   UNL     1      42.276 -17.500   3.038  1.00  0.00    -0.140 NA
HETATM   19  N   UNL     1      43.391 -18.180   2.694  1.00  0.00    -0.225 N 
HETATM   20  C   UNL     1      43.914 -17.639   1.548  1.00  0.00     0.237 A 
HETATM   21  N   UNL     1      43.179 -16.631   1.136  1.00  0.00    -0.216 NA
BRANCH  19  22
HETATM   22  C   UNL     1      43.865 -19.277   3.461  1.00  0.00     0.059 A 
HETATM   23  C   UNL     1      43.949 -19.154   4.857  1.00  0.00     0.031 A 
HETATM   24  C   UNL     1      44.412 -20.220   5.630  1.00  0.00     0.002 A 
HETATM   25  C   UNL     1      44.788 -21.414   5.018  1.00  0.00     0.000 A 
HETATM   26  C   UNL     1      44.706 -21.543   3.633  1.00  0.00     0.002 A 
HETATM   27  C   UNL     1      44.247 -20.479   2.850  1.00  0.00     0.031 A 
ENDBRANCH  19  22
ENDBRANCH   9  17
TORSDOF 2
ENDMDL
