MODEL 1
REMARK VINA RESULT:      -9.1      0.000      0.000
REMARK  5 active torsions:
REMARK  status: ('A' for Active; 'I' for Inactive)
REMARK    1  A    between atoms: C_9  and  N_10 
REMARK       I    between atoms: N_10  and  C_11 
REMARK    2  A    between atoms: C_11  and  C_12 
REMARK    3  A    between atoms: C_14  and  O_15 
REMARK    4  A    between atoms: O_15  and  C_16 
REMARK    5  A    between atoms: C_16  and  C_17 
ROOT
HETATM    1  C   UNL     1      41.731 -10.374  12.457  1.00  0.00    -0.013 A 
HETATM    2  C   UNL     1      40.667  -9.476  12.670  1.00  0.00     0.053 A 
HETATM    3  C   UNL     1      39.528  -9.439  11.793  1.00  0.00     0.100 C 
HETATM    4  N   UNL     1      38.601  -9.422  11.094  1.00  0.00    -0.191 NA
HETATM    5  C   UNL     1      40.699  -8.595  13.762  1.00  0.00     0.023 A 
HETATM    6  C   UNL     1      41.783  -8.602  14.641  1.00  0.00     0.002 A 
HETATM    7  C   UNL     1      42.839  -9.484  14.434  1.00  0.00     0.001 A 
HETATM    8  C   UNL     1      42.817 -10.363  13.351  1.00  0.00     0.011 A 
ENDROOT
BRANCH   1   9
HETATM    9  C   UNL     1      41.733 -11.340  11.293  1.00  0.00     0.216 C 
BRANCH   9  10
HETATM   10  O   UNL     1      42.320 -10.684  10.172  1.00  0.00    -0.347 OA
BRANCH  10  11
HETATM   11  C   UNL     1      43.596 -11.041   9.838  1.00  0.00     0.070 A 
HETATM   12  C   UNL     1      43.689 -12.035   8.860  1.00  0.00     0.053 A 
HETATM   13  C   UNL     1      44.936 -12.490   8.417  1.00  0.00     0.035 A 
HETATM   14  C   UNL     1      46.103 -11.919   8.941  1.00  0.00     0.017 A 
HETATM   15  C   UNL     1      46.014 -10.925   9.917  1.00  0.00     0.004 A 
HETATM   16  C   UNL     1      44.764 -10.489  10.366  1.00  0.00     0.037 A 
BRANCH  13  17
HETATM   17  C   UNL     1      44.976 -13.527   7.347  1.00  0.00     0.256 C 
HETATM   18  N   UNL     1      44.074 -14.570   7.493  1.00  0.00    -0.323 N 
HETATM   19  H   UNL     1      43.381 -14.477   8.225  1.00  0.00     0.169 HD
HETATM   20  O   UNL     1      45.780 -13.396   6.432  1.00  0.00    -0.267 OA
BRANCH  18  21
HETATM   21  C   UNL     1      44.000 -15.743   6.712  1.00  0.00     0.035 A 
HETATM   22  C   UNL     1      43.288 -15.825   5.511  1.00  0.00     0.039 A 
HETATM   23  C   UNL     1      43.319 -17.010   4.792  1.00  0.00    -0.022 A 
HETATM   24  C   UNL     1      42.670 -17.295   3.483  1.00  0.00     0.274 C 
HETATM   25  C   UNL     1      44.050 -18.112   5.236  1.00  0.00    -0.025 A 
HETATM   26  N   UNL     1      42.884 -18.790   3.266  1.00  0.00    -0.067 N 
HETATM   27  C   UNL     1      43.136 -19.172   1.852  1.00  0.00     0.270 C 
HETATM   28  H   UNL     1      42.018 -19.242   3.582  1.00  0.00     0.280 HD
HETATM   29  C   UNL     1      43.967 -19.223   4.246  1.00  0.00     0.273 C 
HETATM   30  C   UNL     1      44.755 -18.058   6.426  1.00  0.00     0.012 A 
HETATM   31  C   UNL     1      44.720 -16.867   7.164  1.00  0.00     0.030 A 
ENDBRANCH  18  21
ENDBRANCH  13  17
ENDBRANCH  10  11
ENDBRANCH   9  10
ENDBRANCH   1   9
TORSDOF 5
ENDMDL
MODEL 2
REMARK VINA RESULT:      -9.0      7.808     10.978
REMARK  5 active torsions:
REMARK  status: ('A' for Active; 'I' for Inactive)
REMARK    1  A    between atoms: C_9  and  N_10 
REMARK       I    between atoms: N_10  and  C_11 
REMARK    2  A    between atoms: C_11  and  C_12 
REMARK    3  A    between atoms: C_14  and  O_15 
REMARK    4  A    between atoms: O_15  and  C_16 
REMARK    5  A    between atoms: C_16  and  C_17 
ROOT
HETATM    1  C   UNL     1      38.767 -13.804  -2.338  1.00  0.00    -0.013 A 
HETATM    2  C   UNL     1      40.071 -14.328  -2.444  1.00  0.00     0.053 A 
HETATM    3  C   UNL     1      41.170 -13.760  -1.712  1.00  0.00     0.100 C 
HETATM    4  N   UNL     1      42.054 -13.311  -1.107  1.00  0.00    -0.191 NA
HETATM    5  C   UNL     1      40.318 -15.433  -3.273  1.00  0.00     0.023 A 
HETATM    6  C   UNL     1      39.279 -16.019  -3.996  1.00  0.00     0.002 A 
HETATM    7  C   UNL     1      37.990 -15.504  -3.899  1.00  0.00     0.001 A 
HETATM    8  C   UNL     1      37.733 -14.405  -3.078  1.00  0.00     0.011 A 
ENDROOT
BRANCH   1   9
HETATM    9  C   UNL     1      38.459 -12.616  -1.455  1.00  0.00     0.216 C 
BRANCH   9  10
HETATM   10  O   UNL     1      37.706 -13.077  -0.336  1.00  0.00    -0.347 OA
BRANCH  10  11
HETATM   11  C   UNL     1      38.372 -13.211   0.850  1.00  0.00     0.070 A 
HETATM   12  C   UNL     1      38.952 -14.466   1.056  1.00  0.00     0.053 A 
HETATM   13  C   UNL     1      39.671 -14.739   2.226  1.00  0.00     0.035 A 
HETATM   14  C   UNL     1      39.835 -13.732   3.184  1.00  0.00     0.017 A 
HETATM   15  C   UNL     1      39.258 -12.478   2.981  1.00  0.00     0.004 A 
HETATM   16  C   UNL     1      38.526 -12.218   1.818  1.00  0.00     0.037 A 
BRANCH  13  17
HETATM   17  C   UNL     1      40.298 -16.083   2.378  1.00  0.00     0.256 C 
HETATM   18  N   UNL     1      41.616 -16.083   2.806  1.00  0.00    -0.323 N 
HETATM   19  H   UNL     1      42.000 -15.195   3.104  1.00  0.00     0.169 HD
HETATM   20  O   UNL     1      39.625 -17.077   2.125  1.00  0.00    -0.267 OA
BRANCH  18  21
HETATM   21  C   UNL     1      42.480 -17.195   2.893  1.00  0.00     0.035 A 
HETATM   22  C   UNL     1      42.811 -17.821   4.098  1.00  0.00     0.039 A 
HETATM   23  C   UNL     1      43.630 -18.940   4.072  1.00  0.00    -0.022 A 
HETATM   24  C   UNL     1      44.069 -19.771   5.226  1.00  0.00     0.274 C 
HETATM   25  C   UNL     1      44.120 -19.454   2.871  1.00  0.00    -0.025 A 
HETATM   26  N   UNL     1      45.089 -20.739   4.635  1.00  0.00    -0.067 N 
HETATM   27  C   UNL     1      45.049 -22.104   5.223  1.00  0.00     0.270 C 
HETATM   28  H   UNL     1      46.008 -20.323   4.826  1.00  0.00     0.280 HD
HETATM   29  C   UNL     1      44.913 -20.691   3.122  1.00  0.00     0.273 C 
HETATM   30  C   UNL     1      43.814 -18.847   1.666  1.00  0.00     0.012 A 
HETATM   31  C   UNL     1      42.995 -17.710   1.685  1.00  0.00     0.030 A 
ENDBRANCH  18  21
ENDBRANCH  13  17
ENDBRANCH  10  11
ENDBRANCH   9  10
ENDBRANCH   1   9
TORSDOF 5
ENDMDL
MODEL 3
REMARK VINA RESULT:      -8.8      2.672      4.316
REMARK  5 active torsions:
REMARK  status: ('A' for Active; 'I' for Inactive)
REMARK    1  A    between atoms: C_9  and  N_10 
REMARK       I    between atoms: N_10  and  C_11 
REMARK    2  A    between atoms: C_11  and  C_12 
REMARK    3  A    between atoms: C_14  and  O_15 
REMARK    4  A    between atoms: O_15  and  C_16 
REMARK    5  A    between atoms: C_16  and  C_17 
ROOT
HETATM    1  C   UNL     1      42.732 -10.750   9.824  1.00  0.00    -0.013 A 
HETATM    2  C   UNL     1      43.957 -10.578  10.499  1.00  0.00     0.053 A 
HETATM    3  C   UNL     1      45.214 -10.653   9.805  1.00  0.00     0.100 C 
HETATM    4  N   UNL     1      46.227 -10.698   9.240  1.00  0.00    -0.191 NA
HETATM    5  C   UNL     1      43.968 -10.319  11.878  1.00  0.00     0.023 A 
HETATM    6  C   UNL     1      42.771 -10.232  12.589  1.00  0.00     0.002 A 
HETATM    7  C   UNL     1      41.558 -10.405  11.930  1.00  0.00     0.001 A 
HETATM    8  C   UNL     1      41.536 -10.663  10.558  1.00  0.00     0.011 A 
ENDROOT
BRANCH   1   9
HETATM    9  C   UNL     1      42.676 -11.029   8.338  1.00  0.00     0.216 C 
BRANCH   9  10
HETATM   10  O   UNL     1      41.312 -10.987   7.929  1.00  0.00    -0.347 OA
BRANCH  10  11
HETATM   11  C   UNL     1      41.028 -11.410   6.661  1.00  0.00     0.070 A 
HETATM   12  C   UNL     1      41.888 -12.395   6.168  1.00  0.00     0.053 A 
HETATM   13  C   UNL     1      41.707 -12.926   4.885  1.00  0.00     0.035 A 
HETATM   14  C   UNL     1      40.634 -12.484   4.101  1.00  0.00     0.017 A 
HETATM   15  C   UNL     1      39.774 -11.501   4.592  1.00  0.00     0.004 A 
HETATM   16  C   UNL     1      39.971 -10.964   5.867  1.00  0.00     0.037 A 
BRANCH  13  17
HETATM   17  C   UNL     1      42.633 -14.000   4.422  1.00  0.00     0.256 C 
HETATM   18  N   UNL     1      42.113 -15.284   4.437  1.00  0.00    -0.323 N 
HETATM   19  H   UNL     1      41.123 -15.375   4.628  1.00  0.00     0.169 HD
HETATM   20  O   UNL     1      43.763 -13.687   4.066  1.00  0.00    -0.267 OA
BRANCH  18  21
HETATM   21  C   UNL     1      42.811 -16.485   4.190  1.00  0.00     0.035 A 
HETATM   22  C   UNL     1      43.131 -17.410   5.189  1.00  0.00     0.039 A 
HETATM   23  C   UNL     1      43.776 -18.585   4.836  1.00  0.00    -0.022 A 
HETATM   24  C   UNL     1      44.169 -19.709   5.729  1.00  0.00     0.274 C 
HETATM   25  C   UNL     1      44.102 -18.865   3.509  1.00  0.00    -0.025 A 
HETATM   26  N   UNL     1      44.996 -20.634   4.841  1.00  0.00    -0.067 N 
HETATM   27  C   UNL     1      44.800 -22.082   5.115  1.00  0.00     0.270 C 
HETATM   28  H   UNL     1      45.976 -20.391   5.026  1.00  0.00     0.280 HD
HETATM   29  C   UNL     1      44.723 -20.215   3.401  1.00  0.00     0.273 C 
HETATM   30  C   UNL     1      43.804 -17.962   2.503  1.00  0.00     0.012 A 
HETATM   31  C   UNL     1      43.161 -16.767   2.854  1.00  0.00     0.030 A 
ENDBRANCH  18  21
ENDBRANCH  13  17
ENDBRANCH  10  11
ENDBRANCH   9  10
ENDBRANCH   1   9
TORSDOF 5
ENDMDL
MODEL 4
REMARK VINA RESULT:      -8.7      2.484      4.280
REMARK  5 active torsions:
REMARK  status: ('A' for Active; 'I' for Inactive)
REMARK    1  A    between atoms: C_9  and  N_10 
REMARK       I    between atoms: N_10  and  C_11 
REMARK    2  A    between atoms: C_11  and  C_12 
REMARK    3  A    between atoms: C_14  and  O_15 
REMARK    4  A    between atoms: O_15  and  C_16 
REMARK    5  A    between atoms: C_16  and  C_17 
ROOT
HETATM    1  C   UNL     1      42.863 -10.786   9.499  1.00  0.00    -0.013 A 
HETATM    2  C   UNL     1      43.050 -10.395  10.840  1.00  0.00     0.053 A 
HETATM    3  C   UNL     1      41.997  -9.769  11.594  1.00  0.00     0.100 C 
HETATM    4  N   UNL     1      41.142  -9.279  12.207  1.00  0.00    -0.191 NA
HETATM    5  C   UNL     1      44.282 -10.621  11.472  1.00  0.00     0.023 A 
HETATM    6  C   UNL     1      45.328 -11.231  10.779  1.00  0.00     0.002 A 
HETATM    7  C   UNL     1      45.153 -11.616   9.454  1.00  0.00     0.001 A 
HETATM    8  C   UNL     1      43.931 -11.395   8.816  1.00  0.00     0.011 A 
ENDROOT
BRANCH   1   9
HETATM    9  C   UNL     1      41.550 -10.562   8.783  1.00  0.00     0.216 C 
BRANCH   9  10
HETATM   10  O   UNL     1      41.794 -10.616   7.380  1.00  0.00    -0.347 OA
BRANCH  10  11
HETATM   11  C   UNL     1      41.155 -11.597   6.673  1.00  0.00     0.070 A 
HETATM   12  C   UNL     1      42.000 -12.556   6.110  1.00  0.00     0.053 A 
HETATM   13  C   UNL     1      41.478 -13.622   5.368  1.00  0.00     0.035 A 
HETATM   14  C   UNL     1      40.092 -13.741   5.215  1.00  0.00     0.017 A 
HETATM   15  C   UNL     1      39.245 -12.785   5.777  1.00  0.00     0.004 A 
HETATM   16  C   UNL     1      39.775 -11.714   6.503  1.00  0.00     0.037 A 
BRANCH  13  17
HETATM   17  C   UNL     1      42.423 -14.636   4.818  1.00  0.00     0.256 C 
HETATM   18  N   UNL     1      41.909 -15.916   4.676  1.00  0.00    -0.323 N 
HETATM   19  H   UNL     1      40.915 -16.029   4.825  1.00  0.00     0.169 HD
HETATM   20  O   UNL     1      43.562 -14.284   4.533  1.00  0.00    -0.267 OA
BRANCH  18  21
HETATM   21  C   UNL     1      42.621 -17.081   4.320  1.00  0.00     0.035 A 
HETATM   22  C   UNL     1      43.174 -17.962   5.254  1.00  0.00     0.039 A 
HETATM   23  C   UNL     1      43.812 -19.107   4.803  1.00  0.00    -0.022 A 
HETATM   24  C   UNL     1      44.429 -20.186   5.622  1.00  0.00     0.274 C 
HETATM   25  C   UNL     1      43.905 -19.400   3.442  1.00  0.00    -0.025 A 
HETATM   26  N   UNL     1      45.133 -21.083   4.609  1.00  0.00    -0.067 N 
HETATM   27  C   UNL     1      45.078 -22.533   4.934  1.00  0.00     0.270 C 
HETATM   28  H   UNL     1      46.114 -20.781   4.606  1.00  0.00     0.280 HD
HETATM   29  C   UNL     1      44.575 -20.716   3.239  1.00  0.00     0.273 C 
HETATM   30  C   UNL     1      43.373 -18.540   2.497  1.00  0.00     0.012 A 
HETATM   31  C   UNL     1      42.736 -17.375   2.945  1.00  0.00     0.030 A 
ENDBRANCH  18  21
ENDBRANCH  13  17
ENDBRANCH  10  11
ENDBRANCH   9  10
ENDBRANCH   1   9
TORSDOF 5
ENDMDL
MODEL 5
REMARK VINA RESULT:      -8.7      7.584     11.783
REMARK  5 active torsions:
REMARK  status: ('A' for Active; 'I' for Inactive)
REMARK    1  A    between atoms: C_9  and  N_10 
REMARK       I    between atoms: N_10  and  C_11 
REMARK    2  A    between atoms: C_11  and  C_12 
REMARK    3  A    between atoms: C_14  and  O_15 
REMARK    4  A    between atoms: O_15  and  C_16 
REMARK    5  A    between atoms: C_16  and  C_17 
ROOT
HETATM    1  C   UNL     1      44.143 -19.857   2.967  1.00  0.00    -0.013 A 
HETATM    2  C   UNL     1      44.613 -20.070   4.279  1.00  0.00     0.053 A 
HETATM    3  C   UNL     1      44.783 -18.981   5.202  1.00  0.00     0.100 C 
HETATM    4  N   UNL     1      44.904 -18.103   5.952  1.00  0.00    -0.191 NA
HETATM    5  C   UNL     1      44.919 -21.369   4.712  1.00  0.00     0.023 A 
HETATM    6  C   UNL     1      44.762 -22.455   3.850  1.00  0.00     0.002 A 
HETATM    7  C   UNL     1      44.303 -22.251   2.553  1.00  0.00     0.001 A 
HETATM    8  C   UNL     1      43.996 -20.963   2.112  1.00  0.00     0.011 A 
ENDROOT
BRANCH   1   9
HETATM    9  C   UNL     1      43.800 -18.473   2.463  1.00  0.00     0.216 C 
BRANCH   9  10
HETATM   10  O   UNL     1      42.393 -18.415   2.246  1.00  0.00    -0.347 OA
BRANCH  10  11
HETATM   11  C   UNL     1      41.730 -17.325   2.738  1.00  0.00     0.070 A 
HETATM   12  C   UNL     1      40.927 -16.661   1.807  1.00  0.00     0.053 A 
HETATM   13  C   UNL     1      40.185 -15.533   2.178  1.00  0.00     0.035 A 
HETATM   14  C   UNL     1      40.228 -15.086   3.504  1.00  0.00     0.017 A 
HETATM   15  C   UNL     1      41.028 -15.749   4.436  1.00  0.00     0.004 A 
HETATM   16  C   UNL     1      41.779 -16.864   4.054  1.00  0.00     0.037 A 
BRANCH  13  17
HETATM   17  C   UNL     1      39.319 -14.883   1.153  1.00  0.00     0.256 C 
HETATM   18  N   UNL     1      39.954 -14.523  -0.025  1.00  0.00    -0.323 N 
HETATM   19  H   UNL     1      40.906 -14.845  -0.149  1.00  0.00     0.169 HD
HETATM   20  O   UNL     1      38.132 -14.714   1.409  1.00  0.00    -0.267 OA
BRANCH  18  21
HETATM   21  C   UNL     1      39.409 -13.773  -1.089  1.00  0.00     0.035 A 
HETATM   22  C   UNL     1      38.456 -14.277  -1.978  1.00  0.00     0.039 A 
HETATM   23  C   UNL     1      37.944 -13.442  -2.960  1.00  0.00    -0.022 A 
HETATM   24  C   UNL     1      36.903 -13.764  -3.974  1.00  0.00     0.274 C 
HETATM   25  C   UNL     1      38.354 -12.113  -3.070  1.00  0.00    -0.025 A 
HETATM   26  N   UNL     1      36.873 -12.547  -4.893  1.00  0.00    -0.067 N 
HETATM   27  C   UNL     1      35.518 -12.187  -5.387  1.00  0.00     0.270 C 
HETATM   28  H   UNL     1      37.465 -12.791  -5.696  1.00  0.00     0.280 HD
HETATM   29  C   UNL     1      37.602 -11.427  -4.159  1.00  0.00     0.273 C 
HETATM   30  C   UNL     1      39.303 -11.594  -2.207  1.00  0.00     0.012 A 
HETATM   31  C   UNL     1      39.832 -12.434  -1.219  1.00  0.00     0.030 A 
ENDBRANCH  18  21
ENDBRANCH  13  17
ENDBRANCH  10  11
ENDBRANCH   9  10
ENDBRANCH   1   9
TORSDOF 5
ENDMDL
MODEL 6
REMARK VINA RESULT:      -8.7      6.649     10.854
REMARK  5 active torsions:
REMARK  status: ('A' for Active; 'I' for Inactive)
REMARK    1  A    between atoms: C_9  and  N_10 
REMARK       I    between atoms: N_10  and  C_11 
REMARK    2  A    between atoms: C_11  and  C_12 
REMARK    3  A    between atoms: C_14  and  O_15 
REMARK    4  A    between atoms: O_15  and  C_16 
REMARK    5  A    between atoms: C_16  and  C_17 
ROOT
HETATM    1  C   UNL     1      44.344 -19.708   4.001  1.00  0.00    -0.013 A 
HETATM    2  C   UNL     1      44.119 -19.896   2.622  1.00  0.00     0.053 A 
HETATM    3  C   UNL     1      43.814 -18.792   1.753  1.00  0.00     0.100 C 
HETATM    4  N   UNL     1      43.584 -17.898   1.049  1.00  0.00    -0.191 NA
HETATM    5  C   UNL     1      44.198 -21.183   2.068  1.00  0.00     0.023 A 
HETATM    6  C   UNL     1      44.498 -22.281   2.874  1.00  0.00     0.002 A 
HETATM    7  C   UNL     1      44.717 -22.103   4.236  1.00  0.00     0.001 A 
HETATM    8  C   UNL     1      44.640 -20.827   4.798  1.00  0.00     0.011 A 
ENDROOT
BRANCH   1   9
HETATM    9  C   UNL     1      44.269 -18.338   4.637  1.00  0.00     0.216 C 
BRANCH   9  10
HETATM   10  O   UNL     1      43.131 -18.307   5.493  1.00  0.00    -0.347 OA
BRANCH  10  11
HETATM   11  C   UNL     1      42.258 -17.267   5.333  1.00  0.00     0.070 A 
HETATM   12  C   UNL     1      41.873 -17.026   4.012  1.00  0.00     0.053 A 
HETATM   13  C   UNL     1      40.976 -15.996   3.704  1.00  0.00     0.035 A 
HETATM   14  C   UNL     1      40.438 -15.220   4.738  1.00  0.00     0.017 A 
HETATM   15  C   UNL     1      40.819 -15.459   6.058  1.00  0.00     0.004 A 
HETATM   16  C   UNL     1      41.728 -16.479   6.356  1.00  0.00     0.037 A 
BRANCH  13  17
HETATM   17  C   UNL     1      40.574 -15.804   2.281  1.00  0.00     0.256 C 
HETATM   18  N   UNL     1      41.124 -14.700   1.648  1.00  0.00    -0.323 N 
HETATM   19  H   UNL     1      41.845 -14.197   2.150  1.00  0.00     0.169 HD
HETATM   20  O   UNL     1      39.806 -16.614   1.774  1.00  0.00    -0.267 OA
BRANCH  18  21
HETATM   21  C   UNL     1      40.802 -14.210   0.364  1.00  0.00     0.035 A 
HETATM   22  C   UNL     1      39.506 -14.211  -0.158  1.00  0.00     0.039 A 
HETATM   23  C   UNL     1      39.286 -13.661  -1.412  1.00  0.00    -0.022 A 
HETATM   24  C   UNL     1      37.988 -13.526  -2.129  1.00  0.00     0.274 C 
HETATM   25  C   UNL     1      40.326 -13.102  -2.153  1.00  0.00    -0.025 A 
HETATM   26  N   UNL     1      38.369 -13.026  -3.519  1.00  0.00    -0.067 N 
HETATM   27  C   UNL     1      37.409 -12.053  -4.103  1.00  0.00     0.270 C 
HETATM   28  H   UNL     1      38.399 -13.861  -4.116  1.00  0.00     0.280 HD
HETATM   29  C   UNL     1      39.806 -12.525  -3.425  1.00  0.00     0.273 C 
HETATM   30  C   UNL     1      41.620 -13.097  -1.661  1.00  0.00     0.012 A 
HETATM   31  C   UNL     1      41.852 -13.661  -0.399  1.00  0.00     0.030 A 
ENDBRANCH  18  21
ENDBRANCH  13  17
ENDBRANCH  10  11
ENDBRANCH   9  10
ENDBRANCH   1   9
TORSDOF 5
ENDMDL
MODEL 7
REMARK VINA RESULT:      -8.6      8.042     11.257
REMARK  5 active torsions:
REMARK  status: ('A' for Active; 'I' for Inactive)
REMARK    1  A    between atoms: C_9  and  N_10 
REMARK       I    between atoms: N_10  and  C_11 
REMARK    2  A    between atoms: C_11  and  C_12 
REMARK    3  A    between atoms: C_14  and  O_15 
REMARK    4  A    between atoms: O_15  and  C_16 
REMARK    5  A    between atoms: C_16  and  C_17 
ROOT
HETATM    1  C   UNL     1      42.489 -11.766  -3.284  1.00  0.00    -0.013 A 
HETATM    2  C   UNL     1      42.546 -10.806  -2.254  1.00  0.00     0.053 A 
HETATM    3  C   UNL     1      42.629 -11.192  -0.871  1.00  0.00     0.100 C 
HETATM    4  N   UNL     1      42.714 -11.504   0.244  1.00  0.00    -0.191 NA
HETATM    5  C   UNL     1      42.530  -9.438  -2.567  1.00  0.00     0.023 A 
HETATM    6  C   UNL     1      42.456  -9.020  -3.896  1.00  0.00     0.002 A 
HETATM    7  C   UNL     1      42.395  -9.962  -4.918  1.00  0.00     0.001 A 
HETATM    8  C   UNL     1      42.410 -11.325  -4.617  1.00  0.00     0.011 A 
ENDROOT
BRANCH   1   9
HETATM    9  C   UNL     1      42.506 -13.249  -2.988  1.00  0.00     0.216 C 
BRANCH   9  10
HETATM   10  O   UNL     1      41.187 -13.755  -3.176  1.00  0.00    -0.347 OA
BRANCH  10  11
HETATM   11  C   UNL     1      40.365 -13.774  -2.085  1.00  0.00     0.070 A 
HETATM   12  C   UNL     1      40.778 -14.627  -1.058  1.00  0.00     0.053 A 
HETATM   13  C   UNL     1      40.033 -14.739   0.123  1.00  0.00     0.035 A 
HETATM   14  C   UNL     1      38.879 -13.963   0.285  1.00  0.00     0.017 A 
HETATM   15  C   UNL     1      38.466 -13.109  -0.738  1.00  0.00     0.004 A 
HETATM   16  C   UNL     1      39.205 -13.016  -1.921  1.00  0.00     0.037 A 
BRANCH  13  17
HETATM   17  C   UNL     1      40.538 -15.638   1.200  1.00  0.00     0.256 C 
HETATM   18  N   UNL     1      41.886 -15.953   1.132  1.00  0.00    -0.323 N 
HETATM   19  H   UNL     1      42.440 -15.450   0.450  1.00  0.00     0.169 HD
HETATM   20  O   UNL     1      39.751 -16.030   2.054  1.00  0.00    -0.267 OA
BRANCH  18  21
HETATM   21  C   UNL     1      42.581 -16.887   1.930  1.00  0.00     0.035 A 
HETATM   22  C   UNL     1      42.449 -16.961   3.320  1.00  0.00     0.039 A 
HETATM   23  C   UNL     1      43.137 -17.948   4.009  1.00  0.00    -0.022 A 
HETATM   24  C   UNL     1      43.107 -18.224   5.471  1.00  0.00     0.274 C 
HETATM   25  C   UNL     1      43.947 -18.869   3.344  1.00  0.00    -0.025 A 
HETATM   26  N   UNL     1      44.181 -19.287   5.683  1.00  0.00    -0.067 N 
HETATM   27  C   UNL     1      43.840 -20.304   6.712  1.00  0.00     0.270 C 
HETATM   28  H   UNL     1      45.019 -18.777   5.987  1.00  0.00     0.280 HD
HETATM   29  C   UNL     1      44.510 -19.856   4.308  1.00  0.00     0.273 C 
HETATM   30  C   UNL     1      44.100 -18.811   1.970  1.00  0.00     0.012 A 
HETATM   31  C   UNL     1      43.416 -17.809   1.267  1.00  0.00     0.030 A 
ENDBRANCH  18  21
ENDBRANCH  13  17
ENDBRANCH  10  11
ENDBRANCH   9  10
ENDBRANCH   1   9
TORSDOF 5
ENDMDL
MODEL 8
REMARK VINA RESULT:      -8.5      6.881     11.412
REMARK  5 active torsions:
REMARK  status: ('A' for Active; 'I' for Inactive)
REMARK    1  A    between atoms: C_9  and  N_10 
REMARK       I    between atoms: N_10  and  C_11 
REMARK    2  A    between atoms: C_11  and  C_12 
REMARK    3  A    between atoms: C_14  and  O_15 
REMARK    4  A    between atoms: O_15  and  C_16 
REMARK    5  A    between atoms: C_16  and  C_17 
ROOT
HETATM    1  C   UNL     1      43.931 -19.668   3.059  1.00  0.00    -0.013 A 
HETATM    2  C   UNL     1      44.517 -20.149   4.247  1.00  0.00     0.053 A 
HETATM    3  C   UNL     1      44.770 -19.281   5.364  1.00  0.00     0.100 C 
HETATM    4  N   UNL     1      44.958 -18.582   6.273  1.00  0.00    -0.191 NA
HETATM    5  C   UNL     1      44.861 -21.505   4.361  1.00  0.00     0.023 A 
HETATM    6  C   UNL     1      44.627 -22.383   3.303  1.00  0.00     0.002 A 
HETATM    7  C   UNL     1      44.053 -21.914   2.125  1.00  0.00     0.001 A 
HETATM    8  C   UNL     1      43.707 -20.567   2.001  1.00  0.00     0.011 A 
ENDROOT
BRANCH   1   9
HETATM    9  C   UNL     1      43.544 -18.215   2.896  1.00  0.00     0.216 C 
BRANCH   9  10
HETATM   10  O   UNL     1      42.123 -18.125   2.951  1.00  0.00    -0.347 OA
BRANCH  10  11
HETATM   11  C   UNL     1      41.591 -17.119   3.709  1.00  0.00     0.070 A 
HETATM   12  C   UNL     1      40.983 -16.096   2.978  1.00  0.00     0.053 A 
HETATM   13  C   UNL     1      40.389 -15.007   3.628  1.00  0.00     0.035 A 
HETATM   14  C   UNL     1      40.381 -14.961   5.027  1.00  0.00     0.017 A 
HETATM   15  C   UNL     1      40.987 -15.983   5.760  1.00  0.00     0.004 A 
HETATM   16  C   UNL     1      41.592 -17.058   5.103  1.00  0.00     0.037 A 
BRANCH  13  17
HETATM   17  C   UNL     1      39.725 -13.960   2.799  1.00  0.00     0.256 C 
HETATM   18  N   UNL     1      38.978 -14.430   1.730  1.00  0.00    -0.323 N 
HETATM   19  H   UNL     1      38.835 -15.430   1.675  1.00  0.00     0.169 HD
HETATM   20  O   UNL     1      39.874 -12.784   3.109  1.00  0.00    -0.267 OA
BRANCH  18  21
HETATM   21  C   UNL     1      38.373 -13.659   0.714  1.00  0.00     0.035 A 
HETATM   22  C   UNL     1      37.285 -12.811   0.937  1.00  0.00     0.039 A 
HETATM   23  C   UNL     1      36.793 -12.057  -0.118  1.00  0.00    -0.022 A 
HETATM   24  C   UNL     1      35.678 -11.072  -0.088  1.00  0.00     0.274 C 
HETATM   25  C   UNL     1      37.367 -12.123  -1.388  1.00  0.00    -0.025 A 
HETATM   26  N   UNL     1      35.461 -10.694  -1.550  1.00  0.00    -0.067 N 
HETATM   27  C   UNL     1      35.105  -9.267  -1.767  1.00  0.00     0.270 C 
HETATM   28  H   UNL     1      34.684 -11.282  -1.876  1.00  0.00     0.280 HD
HETATM   29  C   UNL     1      36.694 -11.166  -2.312  1.00  0.00     0.273 C 
HETATM   30  C   UNL     1      38.439 -12.962  -1.635  1.00  0.00     0.012 A 
HETATM   31  C   UNL     1      38.935 -13.735  -0.577  1.00  0.00     0.030 A 
ENDBRANCH  18  21
ENDBRANCH  13  17
ENDBRANCH  10  11
ENDBRANCH   9  10
ENDBRANCH   1   9
TORSDOF 5
ENDMDL
MODEL 9
REMARK VINA RESULT:      -8.5      5.546      9.190
REMARK  5 active torsions:
REMARK  status: ('A' for Active; 'I' for Inactive)
REMARK    1  A    between atoms: C_9  and  N_10 
REMARK       I    between atoms: N_10  and  C_11 
REMARK    2  A    between atoms: C_11  and  C_12 
REMARK    3  A    between atoms: C_14  and  O_15 
REMARK    4  A    between atoms: O_15  and  C_16 
REMARK    5  A    between atoms: C_16  and  C_17 
ROOT
HETATM    1  C   UNL     1      42.685 -16.049   6.203  1.00  0.00    -0.013 A 
HETATM    2  C   UNL     1      42.231 -14.805   5.720  1.00  0.00     0.053 A 
HETATM    3  C   UNL     1      40.958 -14.672   5.066  1.00  0.00     0.100 C 
HETATM    4  N   UNL     1      39.922 -14.562   4.553  1.00  0.00    -0.191 NA
HETATM    5  C   UNL     1      43.025 -13.659   5.879  1.00  0.00     0.023 A 
HETATM    6  C   UNL     1      44.265 -13.743   6.513  1.00  0.00     0.002 A 
HETATM    7  C   UNL     1      44.721 -14.969   6.989  1.00  0.00     0.001 A 
HETATM    8  C   UNL     1      43.939 -16.115   6.835  1.00  0.00     0.011 A 
ENDROOT
BRANCH   1   9
HETATM    9  C   UNL     1      41.859 -17.307   6.053  1.00  0.00     0.216 C 
BRANCH   9  10
HETATM   10  O   UNL     1      42.725 -18.361   5.642  1.00  0.00    -0.347 OA
BRANCH  10  11
HETATM   11  C   UNL     1      42.937 -18.507   4.300  1.00  0.00     0.070 A 
HETATM   12  C   UNL     1      42.114 -17.721   3.490  1.00  0.00     0.053 A 
HETATM   13  C   UNL     1      42.230 -17.764   2.095  1.00  0.00     0.035 A 
HETATM   14  C   UNL     1      43.203 -18.584   1.510  1.00  0.00     0.017 A 
HETATM   15  C   UNL     1      44.027 -19.370   2.317  1.00  0.00     0.004 A 
HETATM   16  C   UNL     1      43.894 -19.333   3.708  1.00  0.00     0.037 A 
BRANCH  13  17
HETATM   17  C   UNL     1      41.349 -16.879   1.280  1.00  0.00     0.256 C 
HETATM   18  N   UNL     1      41.901 -16.415   0.096  1.00  0.00    -0.323 N 
HETATM   19  H   UNL     1      42.789 -16.813  -0.183  1.00  0.00     0.169 HD
HETATM   20  O   UNL     1      40.224 -16.626   1.696  1.00  0.00    -0.267 OA
BRANCH  18  21
HETATM   21  C   UNL     1      41.346 -15.458  -0.781  1.00  0.00     0.035 A 
HETATM   22  C   UNL     1      41.191 -14.109  -0.451  1.00  0.00     0.039 A 
HETATM   23  C   UNL     1      40.680 -13.239  -1.402  1.00  0.00    -0.022 A 
HETATM   24  C   UNL     1      40.472 -11.771  -1.272  1.00  0.00     0.274 C 
HETATM   25  C   UNL     1      40.329 -13.681  -2.678  1.00  0.00    -0.025 A 
HETATM   26  N   UNL     1      39.726 -11.374  -2.541  1.00  0.00    -0.067 N 
HETATM   27  C   UNL     1      40.112 -10.048  -3.089  1.00  0.00     0.270 C 
HETATM   28  H   UNL     1      38.733 -11.349  -2.282  1.00  0.00     0.280 HD
HETATM   29  C   UNL     1      39.876 -12.535  -3.517  1.00  0.00     0.273 C 
HETATM   30  C   UNL     1      40.465 -15.013  -3.026  1.00  0.00     0.012 A 
HETATM   31  C   UNL     1      40.971 -15.901  -2.066  1.00  0.00     0.030 A 
ENDBRANCH  18  21
ENDBRANCH  13  17
ENDBRANCH  10  11
ENDBRANCH   9  10
ENDBRANCH   1   9
TORSDOF 5
ENDMDL
MODEL 10
REMARK VINA RESULT:      -8.3      1.797      2.259
REMARK  5 active torsions:
REMARK  status: ('A' for Active; 'I' for Inactive)
REMARK    1  A    between atoms: C_9  and  N_10 
REMARK       I    between atoms: N_10  and  C_11 
REMARK    2  A    between atoms: C_11  and  C_12 
REMARK    3  A    between atoms: C_14  and  O_15 
REMARK    4  A    between atoms: O_15  and  C_16 
REMARK    5  A    between atoms: C_16  and  C_17 
ROOT
HETATM    1  C   UNL     1      40.008 -10.058  10.389  1.00  0.00    -0.013 A 
HETATM    2  C   UNL     1      38.841  -9.476   9.854  1.00  0.00     0.053 A 
HETATM    3  C   UNL     1      38.655  -9.336   8.435  1.00  0.00     0.100 C 
HETATM    4  N   UNL     1      38.498  -9.239   7.289  1.00  0.00    -0.191 NA
HETATM    5  C   UNL     1      37.826  -9.024  10.711  1.00  0.00     0.023 A 
HETATM    6  C   UNL     1      37.964  -9.146  12.094  1.00  0.00     0.002 A 
HETATM    7  C   UNL     1      39.114  -9.716  12.629  1.00  0.00     0.001 A 
HETATM    8  C   UNL     1      40.131 -10.168  11.786  1.00  0.00     0.011 A 
ENDROOT
BRANCH   1   9
HETATM    9  C   UNL     1      41.125 -10.558   9.501  1.00  0.00     0.216 C 
BRANCH   9  10
HETATM   10  O   UNL     1      42.329  -9.901   9.887  1.00  0.00    -0.347 OA
BRANCH  10  11
HETATM   11  C   UNL     1      43.477 -10.642   9.866  1.00  0.00     0.070 A 
HETATM   12  C   UNL     1      43.556 -11.569   8.824  1.00  0.00     0.053 A 
HETATM   13  C   UNL     1      44.682 -12.388   8.679  1.00  0.00     0.035 A 
HETATM   14  C   UNL     1      45.752 -12.253   9.571  1.00  0.00     0.017 A 
HETATM   15  C   UNL     1      45.677 -11.326  10.612  1.00  0.00     0.004 A 
HETATM   16  C   UNL     1      44.542 -10.524  10.761  1.00  0.00     0.037 A 
BRANCH  13  17
HETATM   17  C   UNL     1      44.727 -13.337   7.529  1.00  0.00     0.256 C 
HETATM   18  N   UNL     1      43.515 -13.914   7.182  1.00  0.00    -0.323 N 
HETATM   19  H   UNL     1      42.689 -13.551   7.639  1.00  0.00     0.169 HD
HETATM   20  O   UNL     1      45.803 -13.540   6.977  1.00  0.00    -0.267 OA
BRANCH  18  21
HETATM   21  C   UNL     1      43.304 -14.941   6.238  1.00  0.00     0.035 A 
HETATM   22  C   UNL     1      43.404 -14.751   4.857  1.00  0.00     0.039 A 
HETATM   23  C   UNL     1      43.227 -15.838   4.014  1.00  0.00    -0.022 A 
HETATM   24  C   UNL     1      43.328 -15.862   2.530  1.00  0.00     0.274 C 
HETATM   25  C   UNL     1      42.961 -17.112   4.517  1.00  0.00    -0.025 A 
HETATM   26  N   UNL     1      42.862 -17.260   2.136  1.00  0.00    -0.067 N 
HETATM   27  C   UNL     1      43.598 -17.848   0.986  1.00  0.00     0.270 C 
HETATM   28  H   UNL     1      41.872 -17.160   1.880  1.00  0.00     0.280 HD
HETATM   29  C   UNL     1      42.885 -18.102   3.406  1.00  0.00     0.273 C 
HETATM   30  C   UNL     1      42.849 -17.324   5.880  1.00  0.00     0.012 A 
HETATM   31  C   UNL     1      43.017 -16.228   6.738  1.00  0.00     0.030 A 
ENDBRANCH  18  21
ENDBRANCH  13  17
ENDBRANCH  10  11
ENDBRANCH   9  10
ENDBRANCH   1   9
TORSDOF 5
ENDMDL
