MODEL 1
REMARK VINA RESULT:      -8.9      0.000      0.000
REMARK  5 active torsions:
REMARK  status: ('A' for Active; 'I' for Inactive)
REMARK    1  A    between atoms: C_3  and  C_4 
REMARK    2  A    between atoms: N_7  and  C_9 
REMARK    3  A    between atoms: C_9  and  C_10 
REMARK    4  A    between atoms: C_21  and  C_22 
REMARK    5  A    between atoms: C_22  and  N_23 
ROOT
HETATM    1  C   UNL     1      42.658 -13.456   2.791  1.00  0.00     0.159 C 
HETATM    2  N   UNL     1      42.085 -14.468   3.662  1.00  0.00    -0.323 N 
HETATM    3  C   UNL     1      42.060 -14.431   5.518  1.00  0.00     0.134 A 
HETATM    4  N   UNL     1      41.086 -15.688   6.038  1.00  0.00    -0.134 NA
HETATM    5  N   UNL     1      40.435 -16.504   4.398  1.00  0.00    -0.133 NA
HETATM    6  C   UNL     1      41.027 -15.782   3.084  1.00  0.00     0.155 A 
ENDROOT
BRANCH   3   7
HETATM    7  C   UNL     1      42.459 -13.282   6.167  1.00  0.00     0.060 C 
HETATM    8  C   UNL     1      40.997 -13.106   5.583  1.00  0.00     0.040 C 
HETATM    9  C   UNL     1      40.427 -14.714   4.782  1.00  0.00     0.236 C 
HETATM   10  N   UNL     1      42.252 -16.063   4.672  1.00  0.00    -0.067 N 
HETATM   11  H   UNL     1      42.556 -16.427   3.775  1.00  0.00     0.280 HD
HETATM   12  C   UNL     1      43.918 -15.440   5.290  1.00  0.00     0.236 C 
HETATM   13  C   UNL     1      43.867 -13.815   5.676  1.00  0.00     0.040 C 
BRANCH  10  14
HETATM   14  C   UNL     1      42.286 -17.638   5.436  1.00  0.00     0.273 C 
BRANCH  14  15
HETATM   15  C   UNL     1      43.170 -18.607   4.669  1.00  0.00    -0.030 A 
HETATM   16  C   UNL     1      42.986 -18.887   3.308  1.00  0.00     0.051 A 
HETATM   17  C   UNL     1      43.829 -19.781   2.649  1.00  0.00     0.117 A 
HETATM   18  F   UNL     1      43.649 -19.989   1.340  1.00  0.00    -0.206 F 
HETATM   19  C   UNL     1      44.839 -20.447   3.327  1.00  0.00     0.042 A 
HETATM   20  C   UNL     1      45.002 -20.220   4.690  1.00  0.00     0.004 A 
HETATM   21  C   UNL     1      44.176 -19.309   5.357  1.00  0.00     0.009 A 
ENDBRANCH  14  15
ENDBRANCH  10  14
ENDBRANCH   3   7
BRANCH   6  22
HETATM   22  C   UNL     1      40.865 -16.190   1.647  1.00  0.00     0.315 C 
BRANCH  22  23
HETATM   23  N   UNL     1      39.862 -15.425   0.768  1.00  0.00    -0.064 N 
HETATM   24  H   UNL     1      39.431 -16.107   0.131  1.00  0.00     0.280 HD
HETATM   25  C   UNL     1      38.750 -14.909   1.678  1.00  0.00     0.235 C 
HETATM   26  C   UNL     1      37.600 -14.234   0.943  1.00  0.00     0.028 C 
HETATM   27  C   UNL     1      37.947 -12.830   0.459  1.00  0.00     0.002 C 
HETATM   28  C   UNL     1      38.608 -12.784  -0.911  1.00  0.00     0.002 C 
HETATM   29  C   UNL     1      39.542 -13.939  -1.237  1.00  0.00     0.028 C 
HETATM   30  C   UNL     1      40.483 -14.345  -0.108  1.00  0.00     0.235 C 
ENDBRANCH  22  23
ENDBRANCH   6  22
TORSDOF 5
ENDMDL
MODEL 2
REMARK VINA RESULT:      -8.9      1.435      1.953
REMARK  5 active torsions:
REMARK  status: ('A' for Active; 'I' for Inactive)
REMARK    1  A    between atoms: C_3  and  C_4 
REMARK    2  A    between atoms: N_7  and  C_9 
REMARK    3  A    between atoms: C_9  and  C_10 
REMARK    4  A    between atoms: C_21  and  C_22 
REMARK    5  A    between atoms: C_22  and  N_23 
ROOT
HETATM    1  C   UNL     1      42.846 -13.276   2.423  1.00  0.00     0.159 C 
HETATM    2  N   UNL     1      42.051 -14.376   2.944  1.00  0.00    -0.323 N 
HETATM    3  C   UNL     1      41.400 -14.535   4.675  1.00  0.00     0.134 A 
HETATM    4  N   UNL     1      40.355 -15.842   4.706  1.00  0.00    -0.134 NA
HETATM    5  N   UNL     1      40.326 -16.480   2.870  1.00  0.00    -0.133 NA
HETATM    6  C   UNL     1      41.299 -15.622   1.914  1.00  0.00     0.155 A 
ENDROOT
BRANCH   3   7
HETATM    7  C   UNL     1      41.513 -13.461   5.531  1.00  0.00     0.060 C 
HETATM    8  C   UNL     1      40.349 -13.212   4.486  1.00  0.00     0.040 C 
HETATM    9  C   UNL     1      40.142 -14.726   3.383  1.00  0.00     0.236 C 
HETATM   10  N   UNL     1      41.921 -16.077   3.798  1.00  0.00    -0.067 N 
HETATM   11  H   UNL     1      42.532 -16.353   3.037  1.00  0.00     0.280 HD
HETATM   12  C   UNL     1      43.243 -15.537   5.025  1.00  0.00     0.236 C 
HETATM   13  C   UNL     1      43.017 -13.957   5.523  1.00  0.00     0.040 C 
BRANCH  10  14
HETATM   14  C   UNL     1      41.721 -17.721   4.368  1.00  0.00     0.273 C 
BRANCH  14  15
HETATM   15  C   UNL     1      42.778 -18.643   3.782  1.00  0.00    -0.030 A 
HETATM   16  C   UNL     1      43.809 -19.200   4.550  1.00  0.00     0.051 A 
HETATM   17  C   UNL     1      44.751 -20.045   3.964  1.00  0.00     0.117 A 
HETATM   18  F   UNL     1      45.694 -20.592   4.738  1.00  0.00    -0.206 F 
HETATM   19  C   UNL     1      44.720 -20.320   2.606  1.00  0.00     0.042 A 
HETATM   20  C   UNL     1      43.734 -19.733   1.818  1.00  0.00     0.004 A 
HETATM   21  C   UNL     1      42.771 -18.902   2.400  1.00  0.00     0.009 A 
ENDBRANCH  14  15
ENDBRANCH  10  14
ENDBRANCH   3   7
BRANCH   6  22
HETATM   22  C   UNL     1      41.646 -15.876   0.474  1.00  0.00     0.315 C 
BRANCH  22  23
HETATM   23  N   UNL     1      40.596 -15.571  -0.606  1.00  0.00    -0.064 N 
HETATM   24  H   UNL     1      39.909 -16.336  -0.590  1.00  0.00     0.280 HD
HETATM   25  C   UNL     1      39.856 -14.304  -0.188  1.00  0.00     0.235 C 
HETATM   26  C   UNL     1      38.688 -13.932  -1.090  1.00  0.00     0.028 C 
HETATM   27  C   UNL     1      39.131 -13.315  -2.412  1.00  0.00     0.002 C 
HETATM   28  C   UNL     1      39.419 -14.328  -3.511  1.00  0.00     0.002 C 
HETATM   29  C   UNL     1      40.031 -15.644  -3.057  1.00  0.00     0.028 C 
HETATM   30  C   UNL     1      41.146 -15.514  -2.026  1.00  0.00     0.235 C 
ENDBRANCH  22  23
ENDBRANCH   6  22
TORSDOF 5
ENDMDL
MODEL 3
REMARK VINA RESULT:      -8.8      1.082      1.415
REMARK  5 active torsions:
REMARK  status: ('A' for Active; 'I' for Inactive)
REMARK    1  A    between atoms: C_3  and  C_4 
REMARK    2  A    between atoms: N_7  and  C_9 
REMARK    3  A    between atoms: C_9  and  C_10 
REMARK    4  A    between atoms: C_21  and  C_22 
REMARK    5  A    between atoms: C_22  and  N_23 
ROOT
HETATM    1  C   UNL     1      42.808 -13.245   2.445  1.00  0.00     0.159 C 
HETATM    2  N   UNL     1      42.034 -14.311   3.059  1.00  0.00    -0.323 N 
HETATM    3  C   UNL     1      41.406 -14.346   4.805  1.00  0.00     0.134 A 
HETATM    4  N   UNL     1      40.379 -15.658   4.951  1.00  0.00    -0.134 NA
HETATM    5  N   UNL     1      40.336 -16.436   3.169  1.00  0.00    -0.133 NA
HETATM    6  C   UNL     1      41.286 -15.642   2.137  1.00  0.00     0.155 A 
ENDROOT
BRANCH   3   7
HETATM    7  C   UNL     1      41.515 -13.207   5.575  1.00  0.00     0.060 C 
HETATM    8  C   UNL     1      40.334 -13.054   4.531  1.00  0.00     0.040 C 
HETATM    9  C   UNL     1      40.134 -14.651   3.550  1.00  0.00     0.236 C 
HETATM   10  N   UNL     1      41.937 -15.943   4.042  1.00  0.00    -0.067 N 
HETATM   11  H   UNL     1      42.542 -16.268   3.295  1.00  0.00     0.280 HD
HETATM   12  C   UNL     1      43.268 -15.293   5.205  1.00  0.00     0.236 C 
HETATM   13  C   UNL     1      43.026 -13.683   5.584  1.00  0.00     0.040 C 
BRANCH  10  14
HETATM   14  C   UNL     1      41.768 -17.541   4.738  1.00  0.00     0.273 C 
BRANCH  14  15
HETATM   15  C   UNL     1      42.838 -18.487   4.219  1.00  0.00    -0.030 A 
HETATM   16  C   UNL     1      42.835 -18.989   2.909  1.00  0.00     0.051 A 
HETATM   17  C   UNL     1      43.843 -19.851   2.481  1.00  0.00     0.117 A 
HETATM   18  F   UNL     1      43.831 -20.275   1.212  1.00  0.00    -0.206 F 
HETATM   19  C   UNL     1      44.845 -20.269   3.343  1.00  0.00     0.042 A 
HETATM   20  C   UNL     1      44.833 -19.821   4.661  1.00  0.00     0.004 A 
HETATM   21  C   UNL     1      43.839 -18.938   5.096  1.00  0.00     0.009 A 
ENDBRANCH  14  15
ENDBRANCH  10  14
ENDBRANCH   3   7
BRANCH   6  22
HETATM   22  C   UNL     1      41.619 -16.001   0.716  1.00  0.00     0.315 C 
BRANCH  22  23
HETATM   23  N   UNL     1      40.638 -15.602  -0.398  1.00  0.00    -0.064 N 
HETATM   24  H   UNL     1      39.902 -16.319  -0.429  1.00  0.00     0.280 HD
HETATM   25  C   UNL     1      39.966 -14.298   0.021  1.00  0.00     0.235 C 
HETATM   26  C   UNL     1      38.864 -13.828  -0.918  1.00  0.00     0.028 C 
HETATM   27  C   UNL     1      39.403 -13.214  -2.205  1.00  0.00     0.002 C 
HETATM   28  C   UNL     1      39.670 -14.218  -3.316  1.00  0.00     0.002 C 
HETATM   29  C   UNL     1      40.174 -15.583  -2.871  1.00  0.00     0.028 C 
HETATM   30  C   UNL     1      41.250 -15.551  -1.792  1.00  0.00     0.235 C 
ENDBRANCH  22  23
ENDBRANCH   6  22
TORSDOF 5
ENDMDL
MODEL 4
REMARK VINA RESULT:      -8.6      1.935      6.536
REMARK  5 active torsions:
REMARK  status: ('A' for Active; 'I' for Inactive)
REMARK    1  A    between atoms: C_3  and  C_4 
REMARK    2  A    between atoms: N_7  and  C_9 
REMARK    3  A    between atoms: C_9  and  C_10 
REMARK    4  A    between atoms: C_21  and  C_22 
REMARK    5  A    between atoms: C_22  and  N_23 
ROOT
HETATM    1  C   UNL     1      40.908 -17.749   4.859  1.00  0.00     0.159 C 
HETATM    2  N   UNL     1      41.713 -16.705   4.248  1.00  0.00    -0.323 N 
HETATM    3  C   UNL     1      42.015 -15.008   4.937  1.00  0.00     0.134 A 
HETATM    4  N   UNL     1      43.187 -14.276   3.993  1.00  0.00    -0.134 NA
HETATM    5  N   UNL     1      43.666 -15.632   2.684  1.00  0.00    -0.133 NA
HETATM    6  C   UNL     1      42.807 -16.984   2.867  1.00  0.00     0.155 A 
ENDROOT
BRANCH   3   7
HETATM    7  C   UNL     1      41.597 -14.726   6.221  1.00  0.00     0.060 C 
HETATM    8  C   UNL     1      42.905 -15.620   6.250  1.00  0.00     0.040 C 
HETATM    9  C   UNL     1      43.519 -15.918   4.494  1.00  0.00     0.236 C 
HETATM   10  N   UNL     1      41.879 -15.184   3.102  1.00  0.00    -0.067 N 
HETATM   11  H   UNL     1      41.472 -15.820   2.425  1.00  0.00     0.280 HD
HETATM   12  C   UNL     1      40.281 -14.492   3.818  1.00  0.00     0.236 C 
HETATM   13  C   UNL     1      40.201 -14.706   5.474  1.00  0.00     0.040 C 
BRANCH  10  14
HETATM   14  C   UNL     1      42.168 -13.936   1.909  1.00  0.00     0.273 C 
BRANCH  14  15
HETATM   15  C   UNL     1      41.299 -14.134   0.678  1.00  0.00    -0.030 A 
HETATM   16  C   UNL     1      41.647 -15.005  -0.365  1.00  0.00     0.051 A 
HETATM   17  C   UNL     1      40.811 -15.154  -1.470  1.00  0.00     0.117 A 
HETATM   18  F   UNL     1      41.156 -16.026  -2.424  1.00  0.00    -0.206 F 
HETATM   19  C   UNL     1      39.642 -14.419  -1.590  1.00  0.00     0.042 A 
HETATM   20  C   UNL     1      39.307 -13.512  -0.589  1.00  0.00     0.004 A 
HETATM   21  C   UNL     1      40.128 -13.370   0.536  1.00  0.00     0.009 A 
ENDBRANCH  14  15
ENDBRANCH  10  14
ENDBRANCH   3   7
BRANCH   6  22
HETATM   22  C   UNL     1      42.793 -18.202   1.988  1.00  0.00     0.315 C 
BRANCH  22  23
HETATM   23  N   UNL     1      43.745 -19.363   2.315  1.00  0.00    -0.064 N 
HETATM   24  H   UNL     1      44.604 -19.218   1.771  1.00  0.00     0.280 HD
HETATM   25  C   UNL     1      44.130 -19.245   3.787  1.00  0.00     0.235 C 
HETATM   26  C   UNL     1      45.177 -20.251   4.246  1.00  0.00     0.028 C 
HETATM   27  C   UNL     1      44.609 -21.652   4.439  1.00  0.00     0.002 C 
HETATM   28  C   UNL     1      44.604 -22.507   3.181  1.00  0.00     0.002 C 
HETATM   29  C   UNL     1      44.343 -21.768   1.877  1.00  0.00     0.028 C 
HETATM   30  C   UNL     1      43.218 -20.741   1.933  1.00  0.00     0.235 C 
ENDBRANCH  22  23
ENDBRANCH   6  22
TORSDOF 5
ENDMDL
MODEL 5
REMARK VINA RESULT:      -8.4      1.826      6.277
REMARK  5 active torsions:
REMARK  status: ('A' for Active; 'I' for Inactive)
REMARK    1  A    between atoms: C_3  and  C_4 
REMARK    2  A    between atoms: N_7  and  C_9 
REMARK    3  A    between atoms: C_9  and  C_10 
REMARK    4  A    between atoms: C_21  and  C_22 
REMARK    5  A    between atoms: C_22  and  N_23 
ROOT
HETATM    1  C   UNL     1      40.626 -15.574   5.712  1.00  0.00     0.159 C 
HETATM    2  N   UNL     1      41.546 -14.989   4.751  1.00  0.00    -0.323 N 
HETATM    3  C   UNL     1      42.412 -13.356   4.915  1.00  0.00     0.134 A 
HETATM    4  N   UNL     1      43.533 -13.247   3.678  1.00  0.00    -0.134 NA
HETATM    5  N   UNL     1      43.377 -14.942   2.737  1.00  0.00    -0.133 NA
HETATM    6  C   UNL     1      42.242 -15.890   3.379  1.00  0.00     0.155 A 
ENDROOT
BRANCH   3   7
HETATM    7  C   UNL     1      42.337 -12.680   6.115  1.00  0.00     0.060 C 
HETATM    8  C   UNL     1      43.356 -13.888   6.226  1.00  0.00     0.040 C 
HETATM    9  C   UNL     1      43.521 -14.744   4.555  1.00  0.00     0.236 C 
HETATM   10  N   UNL     1      41.882 -13.896   3.229  1.00  0.00    -0.067 N 
HETATM   11  H   UNL     1      41.204 -14.520   2.806  1.00  0.00     0.280 HD
HETATM   12  C   UNL     1      40.682 -12.620   3.921  1.00  0.00     0.236 C 
HETATM   13  C   UNL     1      40.873 -12.420   5.569  1.00  0.00     0.040 C 
BRANCH  10  14
HETATM   14  C   UNL     1      42.240 -13.094   1.715  1.00  0.00     0.273 C 
BRANCH  14  15
HETATM   15  C   UNL     1      41.287 -13.534   0.616  1.00  0.00    -0.030 A 
HETATM   16  C   UNL     1      41.598 -14.555  -0.294  1.00  0.00     0.051 A 
HETATM   17  C   UNL     1      40.685 -14.924  -1.281  1.00  0.00     0.117 A 
HETATM   18  F   UNL     1      41.000 -15.931  -2.103  1.00  0.00    -0.206 F 
HETATM   19  C   UNL     1      39.472 -14.269  -1.418  1.00  0.00     0.042 A 
HETATM   20  C   UNL     1      39.169 -13.218  -0.556  1.00  0.00     0.004 A 
HETATM   21  C   UNL     1      40.068 -12.854   0.452  1.00  0.00     0.009 A 
ENDBRANCH  14  15
ENDBRANCH  10  14
ENDBRANCH   3   7
BRANCH   6  22
HETATM   22  C   UNL     1      41.739 -17.211   2.870  1.00  0.00     0.315 C 
BRANCH  22  23
HETATM   23  N   UNL     1      42.475 -18.495   3.284  1.00  0.00    -0.064 N 
HETATM   24  H   UNL     1      41.785 -19.115   3.726  1.00  0.00     0.280 HD
HETATM   25  C   UNL     1      42.941 -19.192   2.009  1.00  0.00     0.235 C 
HETATM   26  C   UNL     1      43.582 -20.555   2.236  1.00  0.00     0.028 C 
HETATM   27  C   UNL     1      45.002 -20.460   2.782  1.00  0.00     0.002 C 
HETATM   28  C   UNL     1      45.086 -20.371   4.299  1.00  0.00     0.002 C 
HETATM   29  C   UNL     1      43.969 -19.597   4.982  1.00  0.00     0.028 C 
HETATM   30  C   UNL     1      43.586 -18.286   4.305  1.00  0.00     0.235 C 
ENDBRANCH  22  23
ENDBRANCH   6  22
TORSDOF 5
ENDMDL
MODEL 6
REMARK VINA RESULT:      -8.4      2.222      5.736
REMARK  5 active torsions:
REMARK  status: ('A' for Active; 'I' for Inactive)
REMARK    1  A    between atoms: C_3  and  C_4 
REMARK    2  A    between atoms: N_7  and  C_9 
REMARK    3  A    between atoms: C_9  and  C_10 
REMARK    4  A    between atoms: C_21  and  C_22 
REMARK    5  A    between atoms: C_22  and  N_23 
ROOT
HETATM    1  C   UNL     1      42.154 -13.459   0.239  1.00  0.00     0.159 C 
HETATM    2  N   UNL     1      41.362 -14.024   1.318  1.00  0.00    -0.323 N 
HETATM    3  C   UNL     1      39.713 -13.408   1.908  1.00  0.00     0.134 A 
HETATM    4  N   UNL     1      39.110 -14.528   2.995  1.00  0.00    -0.134 NA
HETATM    5  N   UNL     1      40.449 -15.938   3.025  1.00  0.00    -0.133 NA
HETATM    6  C   UNL     1      41.701 -15.608   2.065  1.00  0.00     0.155 A 
ENDROOT
BRANCH   3   7
HETATM    7  C   UNL     1      39.065 -12.435   1.177  1.00  0.00     0.060 C 
HETATM    8  C   UNL     1      38.925 -13.843   0.464  1.00  0.00     0.040 C 
HETATM    9  C   UNL     1      39.732 -15.179   1.520  1.00  0.00     0.236 C 
HETATM   10  N   UNL     1      40.886 -14.104   3.155  1.00  0.00    -0.067 N 
HETATM   11  H   UNL     1      41.881 -14.267   3.258  1.00  0.00     0.280 HD
HETATM   12  C   UNL     1      40.912 -12.222   3.202  1.00  0.00     0.236 C 
HETATM   13  C   UNL     1      40.206 -11.558   1.840  1.00  0.00     0.040 C 
BRANCH  10  14
HETATM   14  C   UNL     1      40.560 -14.382   4.853  1.00  0.00     0.273 C 
BRANCH  14  15
HETATM   15  C   UNL     1      41.820 -14.792   5.598  1.00  0.00    -0.030 A 
HETATM   16  C   UNL     1      43.010 -14.054   5.539  1.00  0.00     0.051 A 
HETATM   17  C   UNL     1      44.137 -14.471   6.246  1.00  0.00     0.117 A 
HETATM   18  F   UNL     1      45.241 -13.717   6.200  1.00  0.00    -0.206 F 
HETATM   19  C   UNL     1      44.126 -15.642   6.988  1.00  0.00     0.042 A 
HETATM   20  C   UNL     1      42.968 -16.415   7.015  1.00  0.00     0.004 A 
HETATM   21  C   UNL     1      41.825 -15.995   6.327  1.00  0.00     0.009 A 
ENDBRANCH  14  15
ENDBRANCH  10  14
ENDBRANCH   3   7
BRANCH   6  22
HETATM   22  C   UNL     1      42.981 -16.378   1.910  1.00  0.00     0.315 C 
BRANCH  22  23
HETATM   23  N   UNL     1      43.098 -17.762   2.568  1.00  0.00    -0.064 N 
HETATM   24  H   UNL     1      42.153 -18.045   2.857  1.00  0.00     0.280 HD
HETATM   25  C   UNL     1      43.545 -18.749   1.493  1.00  0.00     0.235 C 
HETATM   26  C   UNL     1      43.586 -20.200   1.950  1.00  0.00     0.028 C 
HETATM   27  C   UNL     1      44.792 -20.511   2.830  1.00  0.00     0.002 C 
HETATM   28  C   UNL     1      44.575 -20.242   4.311  1.00  0.00     0.002 C 
HETATM   29  C   UNL     1      43.693 -19.049   4.647  1.00  0.00     0.028 C 
HETATM   30  C   UNL     1      43.963 -17.796   3.821  1.00  0.00     0.235 C 
ENDBRANCH  22  23
ENDBRANCH   6  22
TORSDOF 5
ENDMDL
MODEL 7
REMARK VINA RESULT:      -8.4      1.925      5.628
REMARK  5 active torsions:
REMARK  status: ('A' for Active; 'I' for Inactive)
REMARK    1  A    between atoms: C_3  and  C_4 
REMARK    2  A    between atoms: N_7  and  C_9 
REMARK    3  A    between atoms: C_9  and  C_10 
REMARK    4  A    between atoms: C_21  and  C_22 
REMARK    5  A    between atoms: C_22  and  N_23 
ROOT
HETATM    1  C   UNL     1      39.449 -13.196   4.497  1.00  0.00     0.159 C 
HETATM    2  N   UNL     1      40.405 -13.314   3.409  1.00  0.00    -0.323 N 
HETATM    3  C   UNL     1      40.027 -13.176   1.597  1.00  0.00     0.134 A 
HETATM    4  N   UNL     1      41.484 -13.143   0.774  1.00  0.00    -0.134 NA
HETATM    5  N   UNL     1      42.830 -13.209   2.176  1.00  0.00    -0.133 NA
HETATM    6  C   UNL     1      42.173 -13.306   3.645  1.00  0.00     0.155 A 
ENDROOT
BRANCH   3   7
HETATM    7  C   UNL     1      38.772 -12.758   1.208  1.00  0.00     0.060 C 
HETATM    8  C   UNL     1      39.634 -11.525   1.704  1.00  0.00     0.040 C 
HETATM    9  C   UNL     1      41.376 -12.094   2.142  1.00  0.00     0.236 C 
HETATM   10  N   UNL     1      41.336 -14.366   2.132  1.00  0.00    -0.067 N 
HETATM   11  H   UNL     1      41.608 -14.877   2.964  1.00  0.00     0.280 HD
HETATM   12  C   UNL     1      39.727 -15.274   1.769  1.00  0.00     0.236 C 
HETATM   13  C   UNL     1      38.428 -14.226   1.694  1.00  0.00     0.040 C 
BRANCH  10  14
HETATM   14  C   UNL     1      42.383 -15.305   1.089  1.00  0.00     0.273 C 
BRANCH  14  15
HETATM   15  C   UNL     1      42.738 -16.642   1.719  1.00  0.00    -0.030 A 
HETATM   16  C   UNL     1      43.607 -16.758   2.813  1.00  0.00     0.051 A 
HETATM   17  C   UNL     1      43.896 -18.008   3.357  1.00  0.00     0.117 A 
HETATM   18  F   UNL     1      44.696 -18.074   4.428  1.00  0.00    -0.206 F 
HETATM   19  C   UNL     1      43.371 -19.168   2.809  1.00  0.00     0.042 A 
HETATM   20  C   UNL     1      42.548 -19.075   1.691  1.00  0.00     0.004 A 
HETATM   21  C   UNL     1      42.233 -17.824   1.150  1.00  0.00     0.009 A 
ENDBRANCH  14  15
ENDBRANCH  10  14
ENDBRANCH   3   7
BRANCH   6  22
HETATM   22  C   UNL     1      42.868 -13.499   4.962  1.00  0.00     0.315 C 
BRANCH  22  23
HETATM   23  N   UNL     1      43.054 -14.927   5.501  1.00  0.00    -0.064 N 
HETATM   24  H   UNL     1      43.393 -15.506   4.722  1.00  0.00     0.280 HD
HETATM   25  C   UNL     1      44.169 -14.888   6.541  1.00  0.00     0.235 C 
HETATM   26  C   UNL     1      44.570 -16.252   7.084  1.00  0.00     0.028 C 
HETATM   27  C   UNL     1      43.566 -16.810   8.086  1.00  0.00     0.002 C 
HETATM   28  C   UNL     1      42.426 -17.599   7.459  1.00  0.00     0.002 C 
HETATM   29  C   UNL     1      41.935 -17.097   6.109  1.00  0.00     0.028 C 
HETATM   30  C   UNL     1      41.775 -15.585   6.004  1.00  0.00     0.235 C 
ENDBRANCH  22  23
ENDBRANCH   6  22
TORSDOF 5
ENDMDL
MODEL 8
REMARK VINA RESULT:      -8.2      2.075      5.709
REMARK  5 active torsions:
REMARK  status: ('A' for Active; 'I' for Inactive)
REMARK    1  A    between atoms: C_3  and  C_4 
REMARK    2  A    between atoms: N_7  and  C_9 
REMARK    3  A    between atoms: C_9  and  C_10 
REMARK    4  A    between atoms: C_21  and  C_22 
REMARK    5  A    between atoms: C_22  and  N_23 
ROOT
HETATM    1  C   UNL     1      39.881 -14.381   5.103  1.00  0.00     0.159 C 
HETATM    2  N   UNL     1      40.981 -14.344   4.153  1.00  0.00    -0.323 N 
HETATM    3  C   UNL     1      40.835 -14.121   2.315  1.00  0.00     0.134 A 
HETATM    4  N   UNL     1      42.379 -13.908   1.705  1.00  0.00    -0.134 NA
HETATM    5  N   UNL     1      43.526 -13.948   3.274  1.00  0.00    -0.133 NA
HETATM    6  C   UNL     1      42.692 -14.198   4.631  1.00  0.00     0.155 A 
ENDROOT
BRANCH   3   7
HETATM    7  C   UNL     1      39.609 -13.789   1.780  1.00  0.00     0.060 C 
HETATM    8  C   UNL     1      40.286 -12.516   2.436  1.00  0.00     0.040 C 
HETATM    9  C   UNL     1      42.000 -12.960   3.079  1.00  0.00     0.236 C 
HETATM   10  N   UNL     1      42.165 -15.224   2.972  1.00  0.00    -0.067 N 
HETATM   11  H   UNL     1      42.371 -15.754   3.812  1.00  0.00     0.280 HD
HETATM   12  C   UNL     1      40.704 -16.243   2.361  1.00  0.00     0.236 C 
HETATM   13  C   UNL     1      39.337 -15.304   2.155  1.00  0.00     0.040 C 
BRANCH  10  14
HETATM   14  C   UNL     1      43.418 -16.018   2.041  1.00  0.00     0.273 C 
BRANCH  14  15
HETATM   15  C   UNL     1      43.666 -17.432   2.539  1.00  0.00    -0.030 A 
HETATM   16  C   UNL     1      43.569 -18.557   1.708  1.00  0.00     0.051 A 
HETATM   17  C   UNL     1      43.812 -19.833   2.213  1.00  0.00     0.117 A 
HETATM   18  F   UNL     1      43.752 -20.877   1.379  1.00  0.00    -0.206 F 
HETATM   19  C   UNL     1      44.110 -20.029   3.553  1.00  0.00     0.042 A 
HETATM   20  C   UNL     1      44.159 -18.928   4.403  1.00  0.00     0.004 A 
HETATM   21  C   UNL     1      43.939 -17.641   3.902  1.00  0.00     0.009 A 
ENDBRANCH  14  15
ENDBRANCH  10  14
ENDBRANCH   3   7
BRANCH   6  22
HETATM   22  C   UNL     1      43.221 -14.416   6.020  1.00  0.00     0.315 C 
BRANCH  22  23
HETATM   23  N   UNL     1      43.730 -13.205   6.818  1.00  0.00    -0.064 N 
HETATM   24  H   UNL     1      44.248 -12.603   6.165  1.00  0.00     0.280 HD
HETATM   25  C   UNL     1      42.512 -12.411   7.280  1.00  0.00     0.235 C 
HETATM   26  C   UNL     1      42.845 -11.101   7.981  1.00  0.00     0.028 C 
HETATM   27  C   UNL     1      43.338 -11.300   9.409  1.00  0.00     0.002 C 
HETATM   28  C   UNL     1      44.837 -11.533   9.529  1.00  0.00     0.002 C 
HETATM   29  C   UNL     1      45.479 -12.324   8.398  1.00  0.00     0.028 C 
HETATM   30  C   UNL     1      44.695 -13.550   7.945  1.00  0.00     0.235 C 
ENDBRANCH  22  23
ENDBRANCH   6  22
TORSDOF 5
ENDMDL
