MODEL 1
REMARK VINA RESULT:      -8.6      0.000      0.000
REMARK  5 active torsions:
REMARK  status: ('A' for Active; 'I' for Inactive)
REMARK    1  A    between atoms: N_3  and  C_4 
REMARK    2  A    between atoms: C_5  and  C_6 
REMARK    3  A    between atoms: C_15  and  C_16 
REMARK       I    between atoms: C_16  and  N_17 
REMARK    4  A    between atoms: N_17  and  N_18 
REMARK       I    between atoms: N_18  and  C_19 
REMARK    5  A    between atoms: C_19  and  C_20 
ROOT
HETATM    1  C   UNL     1      39.843 -16.166   2.157  1.00  0.00     0.070 C 
HETATM    2  C   UNL     1      40.572 -15.252   3.114  1.00  0.00     0.036 A 
HETATM    3  N   UNL     1      41.871 -15.563   3.534  1.00  0.00    -0.237 N 
HETATM    4  N   UNL     1      42.534 -14.885   4.524  1.00  0.00    -0.158 NA
HETATM    5  C   UNL     1      41.967 -13.838   5.058  1.00  0.00     0.196 A 
HETATM    6  C   UNL     1      40.624 -13.359   4.573  1.00  0.00     0.209 A 
HETATM    7  O   UNL     1      40.150 -12.313   4.996  1.00  0.00    -0.286 OA
HETATM    8  C   UNL     1      39.917 -14.184   3.591  1.00  0.00     0.084 A 
ENDROOT
BRANCH   5   9
HETATM    9  C   UNL     1      42.720 -13.144   6.189  1.00  0.00     0.294 C 
HETATM   10  N   UNL     1      42.051 -12.113   6.820  1.00  0.00    -0.261 N 
HETATM   11  H   UNL     1      41.052 -11.927   6.666  1.00  0.00     0.190 HD
HETATM   12  O   UNL     1      43.847 -13.502   6.511  1.00  0.00    -0.264 OA
BRANCH  10  13
HETATM   13  N   UNL     1      42.626 -11.572   7.979  1.00  0.00    -0.262 N 
HETATM   14  C   UNL     1      41.889 -10.703   8.754  1.00  0.00     0.286 C 
HETATM   15  O   UNL     1      40.781 -10.297   8.406  1.00  0.00    -0.264 OA
HETATM   16  H   UNL     1      43.498 -11.992   8.293  1.00  0.00     0.190 HD
BRANCH  14  17
HETATM   17  C   UNL     1      42.502 -10.307  10.004  1.00  0.00     0.102 A 
HETATM   18  N   UNL     1      42.008  -9.250  10.739  1.00  0.00    -0.361 N 
HETATM   19  H   UNL     1      41.207  -8.698  10.457  1.00  0.00     0.165 HD
HETATM   20  C   UNL     1      42.751  -9.070  11.874  1.00  0.00     0.088 A 
HETATM   21  C   UNL     1      43.741 -10.025  11.884  1.00  0.00     0.019 A 
HETATM   22  C   UNL     1      43.587 -10.803  10.710  1.00  0.00     0.036 A 
ENDBRANCH  14  17
ENDBRANCH  10  13
ENDBRANCH   5   9
BRANCH   3  23
HETATM   23  C   UNL     1      42.631 -16.658   3.017  1.00  0.00     0.073 A 
HETATM   24  C   UNL     1      42.790 -17.861   3.737  1.00  0.00     0.076 A 
HETATM   25  C   UNL     1      43.588 -18.889   3.190  1.00  0.00     0.018 A 
HETATM   26  C   UNL     1      44.205 -18.740   1.950  1.00  0.00     0.001 A 
HETATM   27  C   UNL     1      44.050 -17.557   1.239  1.00  0.00     0.002 A 
HETATM   28  C   UNL     1      43.277 -16.524   1.772  1.00  0.00     0.032 A 
BRANCH  24  29
HETATM   29  C   UNL     1      42.130 -18.088   5.075  1.00  0.00     0.419 C 
HETATM   30  F   UNL     1      40.765 -18.069   5.046  1.00  0.00    -0.166 F 
HETATM   31  F   UNL     1      42.440 -19.318   5.595  1.00  0.00    -0.166 F 
HETATM   32  F   UNL     1      42.516 -17.200   6.032  1.00  0.00    -0.166 F 
ENDBRANCH  24  29
ENDBRANCH   3  23
TORSDOF 5
ENDMDL
MODEL 2
REMARK VINA RESULT:      -8.4      5.694      8.397
REMARK  5 active torsions:
REMARK  status: ('A' for Active; 'I' for Inactive)
REMARK    1  A    between atoms: N_3  and  C_4 
REMARK    2  A    between atoms: C_5  and  C_6 
REMARK    3  A    between atoms: C_15  and  C_16 
REMARK       I    between atoms: C_16  and  N_17 
REMARK    4  A    between atoms: N_17  and  N_18 
REMARK       I    between atoms: N_18  and  C_19 
REMARK    5  A    between atoms: C_19  and  C_20 
ROOT
HETATM    1  C   UNL     1      40.865 -11.508   1.270  1.00  0.00     0.070 C 
HETATM    2  C   UNL     1      41.450 -12.898   1.355  1.00  0.00     0.036 A 
HETATM    3  N   UNL     1      41.003 -13.904   0.489  1.00  0.00    -0.237 N 
HETATM    4  N   UNL     1      41.354 -15.223   0.610  1.00  0.00    -0.158 NA
HETATM    5  C   UNL     1      42.217 -15.564   1.528  1.00  0.00     0.196 A 
HETATM    6  C   UNL     1      42.845 -14.523   2.418  1.00  0.00     0.209 A 
HETATM    7  O   UNL     1      43.736 -14.831   3.198  1.00  0.00    -0.286 OA
HETATM    8  C   UNL     1      42.351 -13.148   2.315  1.00  0.00     0.084 A 
ENDROOT
BRANCH   5   9
HETATM    9  C   UNL     1      42.542 -17.049   1.658  1.00  0.00     0.294 C 
HETATM   10  N   UNL     1      43.869 -17.362   1.877  1.00  0.00    -0.261 N 
HETATM   11  H   UNL     1      44.573 -16.652   2.110  1.00  0.00     0.190 HD
HETATM   12  O   UNL     1      41.661 -17.898   1.582  1.00  0.00    -0.264 OA
BRANCH  10  13
HETATM   13  N   UNL     1      44.184 -18.694   2.187  1.00  0.00    -0.262 N 
HETATM   14  C   UNL     1      44.325 -19.063   3.507  1.00  0.00     0.286 C 
HETATM   15  O   UNL     1      44.293 -18.240   4.422  1.00  0.00    -0.264 OA
HETATM   16  H   UNL     1      44.112 -19.367   1.428  1.00  0.00     0.190 HD
BRANCH  14  17
HETATM   17  C   UNL     1      44.505 -20.480   3.744  1.00  0.00     0.102 A 
HETATM   18  N   UNL     1      44.811 -20.961   5.000  1.00  0.00    -0.361 N 
HETATM   19  H   UNL     1      44.927 -20.369   5.814  1.00  0.00     0.165 HD
HETATM   20  C   UNL     1      44.931 -22.324   4.971  1.00  0.00     0.088 A 
HETATM   21  C   UNL     1      44.696 -22.740   3.682  1.00  0.00     0.019 A 
HETATM   22  C   UNL     1      44.428 -21.583   2.908  1.00  0.00     0.036 A 
ENDBRANCH  14  17
ENDBRANCH  10  13
ENDBRANCH   5   9
BRANCH   3  23
HETATM   23  C   UNL     1      40.086 -13.678  -0.584  1.00  0.00     0.073 A 
HETATM   24  C   UNL     1      38.691 -13.808  -0.412  1.00  0.00     0.076 A 
HETATM   25  C   UNL     1      37.841 -13.612  -1.522  1.00  0.00     0.018 A 
HETATM   26  C   UNL     1      38.355 -13.280  -2.774  1.00  0.00     0.001 A 
HETATM   27  C   UNL     1      39.727 -13.151  -2.945  1.00  0.00     0.002 A 
HETATM   28  C   UNL     1      40.583 -13.356  -1.862  1.00  0.00     0.032 A 
BRANCH  24  29
HETATM   29  C   UNL     1      38.076 -14.146   0.924  1.00  0.00     0.419 C 
HETATM   30  F   UNL     1      38.116 -13.135   1.841  1.00  0.00    -0.166 F 
HETATM   31  F   UNL     1      36.743 -14.446   0.810  1.00  0.00    -0.166 F 
HETATM   32  F   UNL     1      38.627 -15.239   1.518  1.00  0.00    -0.166 F 
ENDBRANCH  24  29
ENDBRANCH   3  23
TORSDOF 5
ENDMDL
MODEL 3
REMARK VINA RESULT:      -8.3      6.331      9.147
REMARK  5 active torsions:
REMARK  status: ('A' for Active; 'I' for Inactive)
REMARK    1  A    between atoms: N_3  and  C_4 
REMARK    2  A    between atoms: C_5  and  C_6 
REMARK    3  A    between atoms: C_15  and  C_16 
REMARK       I    between atoms: C_16  and  N_17 
REMARK    4  A    between atoms: N_17  and  N_18 
REMARK       I    between atoms: N_18  and  C_19 
REMARK    5  A    between atoms: C_19  and  C_20 
ROOT
HETATM    1  C   UNL     1      40.559 -10.970   0.703  1.00  0.00     0.070 C 
HETATM    2  C   UNL     1      41.124 -12.370   0.777  1.00  0.00     0.036 A 
HETATM    3  N   UNL     1      40.810 -13.309  -0.214  1.00  0.00    -0.237 N 
HETATM    4  N   UNL     1      41.138 -14.637  -0.133  1.00  0.00    -0.158 NA
HETATM    5  C   UNL     1      41.854 -15.049   0.877  1.00  0.00     0.196 A 
HETATM    6  C   UNL     1      42.343 -14.079   1.920  1.00  0.00     0.209 A 
HETATM    7  O   UNL     1      43.107 -14.449   2.801  1.00  0.00    -0.286 OA
HETATM    8  C   UNL     1      41.871 -12.694   1.841  1.00  0.00     0.084 A 
ENDROOT
BRANCH   5   9
HETATM    9  C   UNL     1      42.154 -16.543   0.950  1.00  0.00     0.294 C 
HETATM   10  N   UNL     1      43.490 -16.891   1.007  1.00  0.00    -0.261 N 
HETATM   11  H   UNL     1      44.235 -16.200   1.162  1.00  0.00     0.190 HD
HETATM   12  O   UNL     1      41.250 -17.370   0.970  1.00  0.00    -0.264 OA
BRANCH  10  13
HETATM   13  N   UNL     1      43.806 -18.233   1.261  1.00  0.00    -0.262 N 
HETATM   14  C   UNL     1      44.009 -18.643   2.562  1.00  0.00     0.286 C 
HETATM   15  O   UNL     1      44.031 -17.847   3.500  1.00  0.00    -0.264 OA
HETATM   16  H   UNL     1      43.689 -18.883   0.488  1.00  0.00     0.190 HD
BRANCH  14  17
HETATM   17  C   UNL     1      44.186 -20.067   2.748  1.00  0.00     0.102 A 
HETATM   18  N   UNL     1      44.628 -20.582   3.950  1.00  0.00    -0.361 N 
HETATM   19  H   UNL     1      44.852 -20.009   4.755  1.00  0.00     0.165 HD
HETATM   20  C   UNL     1      44.715 -21.945   3.881  1.00  0.00     0.088 A 
HETATM   21  C   UNL     1      44.320 -22.329   2.621  1.00  0.00     0.019 A 
HETATM   22  C   UNL     1      43.988 -21.151   1.907  1.00  0.00     0.036 A 
ENDBRANCH  14  17
ENDBRANCH  10  13
ENDBRANCH   5   9
BRANCH   3  23
HETATM   23  C   UNL     1      40.063 -12.999  -1.392  1.00  0.00     0.073 A 
HETATM   24  C   UNL     1      40.683 -12.499  -2.557  1.00  0.00     0.076 A 
HETATM   25  C   UNL     1      39.884 -12.173  -3.675  1.00  0.00     0.018 A 
HETATM   26  C   UNL     1      38.502 -12.350  -3.649  1.00  0.00     0.001 A 
HETATM   27  C   UNL     1      37.890 -12.842  -2.503  1.00  0.00     0.002 A 
HETATM   28  C   UNL     1      38.663 -13.156  -1.385  1.00  0.00     0.032 A 
BRANCH  24  29
HETATM   29  C   UNL     1      42.177 -12.305  -2.651  1.00  0.00     0.419 C 
HETATM   30  F   UNL     1      42.915 -13.406  -2.326  1.00  0.00    -0.166 F 
HETATM   31  F   UNL     1      42.572 -11.998  -3.927  1.00  0.00    -0.166 F 
HETATM   32  F   UNL     1      42.643 -11.279  -1.888  1.00  0.00    -0.166 F 
ENDBRANCH  24  29
ENDBRANCH   3  23
TORSDOF 5
ENDMDL
MODEL 4
REMARK VINA RESULT:      -8.2      2.764      4.329
REMARK  5 active torsions:
REMARK  status: ('A' for Active; 'I' for Inactive)
REMARK    1  A    between atoms: N_3  and  C_4 
REMARK    2  A    between atoms: C_5  and  C_6 
REMARK    3  A    between atoms: C_15  and  C_16 
REMARK       I    between atoms: C_16  and  N_17 
REMARK    4  A    between atoms: N_17  and  N_18 
REMARK       I    between atoms: N_18  and  C_19 
REMARK    5  A    between atoms: C_19  and  C_20 
ROOT
HETATM    1  C   UNL     1      43.988 -20.826   6.661  1.00  0.00     0.070 C 
HETATM    2  C   UNL     1      43.808 -19.328   6.752  1.00  0.00     0.036 A 
HETATM    3  N   UNL     1      43.783 -18.550   5.588  1.00  0.00    -0.237 N 
HETATM    4  N   UNL     1      43.795 -17.180   5.589  1.00  0.00    -0.158 NA
HETATM    5  C   UNL     1      43.744 -16.550   6.731  1.00  0.00     0.196 A 
HETATM    6  C   UNL     1      43.637 -17.313   8.026  1.00  0.00     0.209 A 
HETATM    7  O   UNL     1      43.475 -16.719   9.083  1.00  0.00    -0.286 OA
HETATM    8  C   UNL     1      43.738 -18.773   7.970  1.00  0.00     0.084 A 
ENDROOT
BRANCH   5   9
HETATM    9  C   UNL     1      43.808 -15.027   6.686  1.00  0.00     0.294 C 
HETATM   10  N   UNL     1      42.654 -14.383   6.283  1.00  0.00    -0.261 N 
HETATM   11  H   UNL     1      41.756 -14.871   6.181  1.00  0.00     0.190 HD
HETATM   12  O   UNL     1      44.828 -14.427   7.006  1.00  0.00    -0.264 OA
BRANCH  10  13
HETATM   13  N   UNL     1      42.608 -12.986   6.405  1.00  0.00    -0.262 N 
HETATM   14  C   UNL     1      41.685 -12.276   5.666  1.00  0.00     0.286 C 
HETATM   15  O   UNL     1      40.974 -12.815   4.819  1.00  0.00    -0.264 OA
HETATM   16  H   UNL     1      43.135 -12.578   7.172  1.00  0.00     0.190 HD
BRANCH  14  17
HETATM   17  C   UNL     1      41.607 -10.861   5.959  1.00  0.00     0.102 A 
HETATM   18  N   UNL     1      41.664  -9.918   4.953  1.00  0.00    -0.361 N 
HETATM   19  H   UNL     1      41.764 -10.152   3.972  1.00  0.00     0.165 HD
HETATM   20  C   UNL     1      41.571  -8.658   5.476  1.00  0.00     0.088 A 
HETATM   21  C   UNL     1      41.445  -8.776   6.840  1.00  0.00     0.019 A 
HETATM   22  C   UNL     1      41.468 -10.159   7.147  1.00  0.00     0.036 A 
ENDBRANCH  14  17
ENDBRANCH  10  13
ENDBRANCH   5   9
BRANCH   3  23
HETATM   23  C   UNL     1      43.800 -19.097   4.268  1.00  0.00     0.073 A 
HETATM   24  C   UNL     1      42.850 -18.723   3.294  1.00  0.00     0.076 A 
HETATM   25  C   UNL     1      42.894 -19.332   2.020  1.00  0.00     0.018 A 
HETATM   26  C   UNL     1      43.867 -20.279   1.708  1.00  0.00     0.001 A 
HETATM   27  C   UNL     1      44.803 -20.649   2.665  1.00  0.00     0.002 A 
HETATM   28  C   UNL     1      44.764 -20.069   3.934  1.00  0.00     0.032 A 
BRANCH  24  29
HETATM   29  C   UNL     1      41.786 -17.688   3.567  1.00  0.00     0.419 C 
HETATM   30  F   UNL     1      42.254 -16.413   3.700  1.00  0.00    -0.166 F 
HETATM   31  F   UNL     1      40.877 -17.608   2.544  1.00  0.00    -0.166 F 
HETATM   32  F   UNL     1      41.040 -17.951   4.674  1.00  0.00    -0.166 F 
ENDBRANCH  24  29
ENDBRANCH   3  23
TORSDOF 5
ENDMDL
MODEL 5
REMARK VINA RESULT:      -8.1      6.177      8.499
REMARK  5 active torsions:
REMARK  status: ('A' for Active; 'I' for Inactive)
REMARK    1  A    between atoms: N_3  and  C_4 
REMARK    2  A    between atoms: C_5  and  C_6 
REMARK    3  A    between atoms: C_15  and  C_16 
REMARK       I    between atoms: C_16  and  N_17 
REMARK    4  A    between atoms: N_17  and  N_18 
REMARK       I    between atoms: N_18  and  C_19 
REMARK    5  A    between atoms: C_19  and  C_20 
ROOT
HETATM    1  C   UNL     1      39.262 -12.239   0.496  1.00  0.00     0.070 C 
HETATM    2  C   UNL     1      40.139 -13.389   0.933  1.00  0.00     0.036 A 
HETATM    3  N   UNL     1      41.192 -13.822   0.117  1.00  0.00    -0.237 N 
HETATM    4  N   UNL     1      41.923 -14.957   0.356  1.00  0.00    -0.158 NA
HETATM    5  C   UNL     1      41.690 -15.638   1.444  1.00  0.00     0.196 A 
HETATM    6  C   UNL     1      40.663 -15.169   2.441  1.00  0.00     0.209 A 
HETATM    7  O   UNL     1      40.530 -15.746   3.512  1.00  0.00    -0.286 OA
HETATM    8  C   UNL     1      39.839 -14.013   2.081  1.00  0.00     0.084 A 
ENDROOT
BRANCH   5   9
HETATM    9  C   UNL     1      42.494 -16.919   1.645  1.00  0.00     0.294 C 
HETATM   10  N   UNL     1      42.282 -17.588   2.835  1.00  0.00    -0.261 N 
HETATM   11  H   UNL     1      41.516 -17.347   3.475  1.00  0.00     0.190 HD
HETATM   12  O   UNL     1      43.267 -17.321   0.783  1.00  0.00    -0.264 OA
BRANCH  10  13
HETATM   13  N   UNL     1      42.855 -18.860   2.981  1.00  0.00    -0.262 N 
HETATM   14  C   UNL     1      43.850 -19.046   3.917  1.00  0.00     0.286 C 
HETATM   15  O   UNL     1      44.331 -18.109   4.553  1.00  0.00    -0.264 OA
HETATM   16  H   UNL     1      42.380 -19.630   2.517  1.00  0.00     0.190 HD
BRANCH  14  17
HETATM   17  C   UNL     1      44.283 -20.414   4.105  1.00  0.00     0.102 A 
HETATM   18  N   UNL     1      44.335 -21.299   3.047  1.00  0.00    -0.361 N 
HETATM   19  H   UNL     1      44.079 -21.053   2.098  1.00  0.00     0.165 HD
HETATM   20  C   UNL     1      44.772 -22.524   3.472  1.00  0.00     0.088 A 
HETATM   21  C   UNL     1      45.014 -22.439   4.823  1.00  0.00     0.019 A 
HETATM   22  C   UNL     1      44.707 -21.115   5.223  1.00  0.00     0.036 A 
ENDBRANCH  14  17
ENDBRANCH  10  13
ENDBRANCH   5   9
BRANCH   3  23
HETATM   23  C   UNL     1      41.585 -13.160  -1.087  1.00  0.00     0.073 A 
HETATM   24  C   UNL     1      41.133 -13.587  -2.354  1.00  0.00     0.076 A 
HETATM   25  C   UNL     1      41.592 -12.917  -3.509  1.00  0.00     0.018 A 
HETATM   26  C   UNL     1      42.468 -11.837  -3.416  1.00  0.00     0.001 A 
HETATM   27  C   UNL     1      42.914 -11.415  -2.170  1.00  0.00     0.002 A 
HETATM   28  C   UNL     1      42.483 -12.076  -1.019  1.00  0.00     0.032 A 
BRANCH  24  29
HETATM   29  C   UNL     1      40.169 -14.736  -2.516  1.00  0.00     0.419 C 
HETATM   30  F   UNL     1      38.986 -14.585  -1.851  1.00  0.00    -0.166 F 
HETATM   31  F   UNL     1      39.800 -14.913  -3.825  1.00  0.00    -0.166 F 
HETATM   32  F   UNL     1      40.683 -15.938  -2.136  1.00  0.00    -0.166 F 
ENDBRANCH  24  29
ENDBRANCH   3  23
TORSDOF 5
ENDMDL
MODEL 6
REMARK VINA RESULT:      -8.0      4.222      8.113
REMARK  5 active torsions:
REMARK  status: ('A' for Active; 'I' for Inactive)
REMARK    1  A    between atoms: N_3  and  C_4 
REMARK    2  A    between atoms: C_5  and  C_6 
REMARK    3  A    between atoms: C_15  and  C_16 
REMARK       I    between atoms: C_16  and  N_17 
REMARK    4  A    between atoms: N_17  and  N_18 
REMARK       I    between atoms: N_18  and  C_19 
REMARK    5  A    between atoms: C_19  and  C_20 
ROOT
HETATM    1  C   UNL     1      44.350 -15.597   6.611  1.00  0.00     0.070 C 
HETATM    2  C   UNL     1      43.248 -15.603   5.578  1.00  0.00     0.036 A 
HETATM    3  N   UNL     1      42.827 -16.809   5.004  1.00  0.00    -0.237 N 
HETATM    4  N   UNL     1      41.960 -16.886   3.945  1.00  0.00    -0.158 NA
HETATM    5  C   UNL     1      41.426 -15.786   3.488  1.00  0.00     0.196 A 
HETATM    6  C   UNL     1      41.726 -14.459   4.133  1.00  0.00     0.209 A 
HETATM    7  O   UNL     1      41.135 -13.448   3.775  1.00  0.00    -0.286 OA
HETATM    8  C   UNL     1      42.741 -14.425   5.188  1.00  0.00     0.084 A 
ENDROOT
BRANCH   5   9
HETATM    9  C   UNL     1      40.505 -15.914   2.278  1.00  0.00     0.294 C 
HETATM   10  N   UNL     1      40.488 -14.839   1.412  1.00  0.00    -0.261 N 
HETATM   11  H   UNL     1      41.169 -14.072   1.471  1.00  0.00     0.190 HD
HETATM   12  O   UNL     1      39.836 -16.926   2.097  1.00  0.00    -0.264 OA
BRANCH  10  13
HETATM   13  N   UNL     1      39.803 -14.988   0.197  1.00  0.00    -0.262 N 
HETATM   14  C   UNL     1      40.475 -14.769  -0.986  1.00  0.00     0.286 C 
HETATM   15  O   UNL     1      41.627 -14.340  -1.013  1.00  0.00    -0.264 OA
HETATM   16  H   UNL     1      38.889 -15.431   0.242  1.00  0.00     0.190 HD
BRANCH  14  17
HETATM   17  C   UNL     1      39.737 -15.085  -2.191  1.00  0.00     0.102 A 
HETATM   18  N   UNL     1      38.418 -14.710  -2.341  1.00  0.00    -0.361 N 
HETATM   19  H   UNL     1      37.896 -14.203  -1.635  1.00  0.00     0.165 HD
HETATM   20  C   UNL     1      37.941 -15.120  -3.556  1.00  0.00     0.088 A 
HETATM   21  C   UNL     1      38.961 -15.767  -4.212  1.00  0.00     0.019 A 
HETATM   22  C   UNL     1      40.091 -15.748  -3.356  1.00  0.00     0.036 A 
ENDBRANCH  14  17
ENDBRANCH  10  13
ENDBRANCH   5   9
BRANCH   3  23
HETATM   23  C   UNL     1      43.297 -18.092   5.421  1.00  0.00     0.073 A 
HETATM   24  C   UNL     1      43.843 -19.020   4.508  1.00  0.00     0.076 A 
HETATM   25  C   UNL     1      44.250 -20.288   4.976  1.00  0.00     0.018 A 
HETATM   26  C   UNL     1      44.136 -20.630   6.321  1.00  0.00     0.001 A 
HETATM   27  C   UNL     1      43.600 -19.719   7.223  1.00  0.00     0.002 A 
HETATM   28  C   UNL     1      43.178 -18.467   6.774  1.00  0.00     0.032 A 
BRANCH  24  29
HETATM   29  C   UNL     1      44.010 -18.698   3.042  1.00  0.00     0.419 C 
HETATM   30  F   UNL     1      44.888 -19.506   2.379  1.00  0.00    -0.166 F 
HETATM   31  F   UNL     1      42.834 -18.839   2.352  1.00  0.00    -0.166 F 
HETATM   32  F   UNL     1      44.399 -17.416   2.806  1.00  0.00    -0.166 F 
ENDBRANCH  24  29
ENDBRANCH   3  23
TORSDOF 5
ENDMDL
MODEL 7
REMARK VINA RESULT:      -7.9      3.306      4.768
REMARK  5 active torsions:
REMARK  status: ('A' for Active; 'I' for Inactive)
REMARK    1  A    between atoms: N_3  and  C_4 
REMARK    2  A    between atoms: C_5  and  C_6 
REMARK    3  A    between atoms: C_15  and  C_16 
REMARK       I    between atoms: C_16  and  N_17 
REMARK    4  A    between atoms: N_17  and  N_18 
REMARK       I    between atoms: N_18  and  C_19 
REMARK    5  A    between atoms: C_19  and  C_20 
ROOT
HETATM    1  C   UNL     1      41.370 -16.673   0.253  1.00  0.00     0.070 C 
HETATM    2  C   UNL     1      41.400 -16.138   1.666  1.00  0.00     0.036 A 
HETATM    3  N   UNL     1      41.282 -14.762   1.900  1.00  0.00    -0.237 N 
HETATM    4  N   UNL     1      41.470 -14.181   3.127  1.00  0.00    -0.158 NA
HETATM    5  C   UNL     1      41.690 -14.947   4.160  1.00  0.00     0.196 A 
HETATM    6  C   UNL     1      41.703 -16.446   4.017  1.00  0.00     0.209 A 
HETATM    7  O   UNL     1      41.794 -17.162   5.005  1.00  0.00    -0.286 OA
HETATM    8  C   UNL     1      41.605 -17.006   2.666  1.00  0.00     0.084 A 
ENDROOT
BRANCH   5   9
HETATM    9  C   UNL     1      41.939 -14.255   5.496  1.00  0.00     0.294 C 
HETATM   10  N   UNL     1      43.048 -14.680   6.202  1.00  0.00    -0.261 N 
HETATM   11  H   UNL     1      43.760 -15.297   5.793  1.00  0.00     0.190 HD
HETATM   12  O   UNL     1      41.196 -13.366   5.896  1.00  0.00    -0.264 OA
BRANCH  10  13
HETATM   13  N   UNL     1      43.419 -13.948   7.339  1.00  0.00    -0.262 N 
HETATM   14  C   UNL     1      44.713 -13.484   7.449  1.00  0.00     0.286 C 
HETATM   15  O   UNL     1      45.585 -13.785   6.634  1.00  0.00    -0.264 OA
HETATM   16  H   UNL     1      42.666 -13.635   7.946  1.00  0.00     0.190 HD
BRANCH  14  17
HETATM   17  C   UNL     1      44.972 -12.618   8.579  1.00  0.00     0.102 A 
HETATM   18  N   UNL     1      44.141 -12.611   9.680  1.00  0.00    -0.361 N 
HETATM   19  H   UNL     1      43.318 -13.196   9.764  1.00  0.00     0.165 HD
HETATM   20  C   UNL     1      44.591 -11.715  10.610  1.00  0.00     0.088 A 
HETATM   21  C   UNL     1      45.733 -11.131  10.115  1.00  0.00     0.019 A 
HETATM   22  C   UNL     1      45.975 -11.696   8.838  1.00  0.00     0.036 A 
ENDBRANCH  14  17
ENDBRANCH  10  13
ENDBRANCH   5   9
BRANCH   3  23
HETATM   23  C   UNL     1      41.010 -13.804   0.875  1.00  0.00     0.073 A 
HETATM   24  C   UNL     1      39.704 -13.333   0.622  1.00  0.00     0.076 A 
HETATM   25  C   UNL     1      39.495 -12.418  -0.432  1.00  0.00     0.018 A 
HETATM   26  C   UNL     1      40.555 -11.964  -1.213  1.00  0.00     0.001 A 
HETATM   27  C   UNL     1      41.842 -12.425  -0.966  1.00  0.00     0.002 A 
HETATM   28  C   UNL     1      42.064 -13.341   0.063  1.00  0.00     0.032 A 
BRANCH  24  29
HETATM   29  C   UNL     1      38.519 -13.774   1.447  1.00  0.00     0.419 C 
HETATM   30  F   UNL     1      38.531 -13.335   2.739  1.00  0.00    -0.166 F 
HETATM   31  F   UNL     1      37.338 -13.298   0.939  1.00  0.00    -0.166 F 
HETATM   32  F   UNL     1      38.357 -15.125   1.492  1.00  0.00    -0.166 F 
ENDBRANCH  24  29
ENDBRANCH   3  23
TORSDOF 5
ENDMDL
MODEL 8
REMARK VINA RESULT:      -7.9      5.150      8.963
REMARK  5 active torsions:
REMARK  status: ('A' for Active; 'I' for Inactive)
REMARK    1  A    between atoms: N_3  and  C_4 
REMARK    2  A    between atoms: C_5  and  C_6 
REMARK    3  A    between atoms: C_15  and  C_16 
REMARK       I    between atoms: C_16  and  N_17 
REMARK    4  A    between atoms: N_17  and  N_18 
REMARK       I    between atoms: N_18  and  C_19 
REMARK    5  A    between atoms: C_19  and  C_20 
ROOT
HETATM    1  C   UNL     1      43.794 -14.145   3.432  1.00  0.00     0.070 C 
HETATM    2  C   UNL     1      42.725 -14.212   2.365  1.00  0.00     0.036 A 
HETATM    3  N   UNL     1      42.366 -15.445   1.806  1.00  0.00    -0.237 N 
HETATM    4  N   UNL     1      41.536 -15.575   0.723  1.00  0.00    -0.158 NA
HETATM    5  C   UNL     1      40.978 -14.506   0.224  1.00  0.00     0.196 A 
HETATM    6  C   UNL     1      41.210 -13.155   0.848  1.00  0.00     0.209 A 
HETATM    7  O   UNL     1      40.596 -12.175   0.450  1.00  0.00    -0.286 OA
HETATM    8  C   UNL     1      42.190 -13.062   1.934  1.00  0.00     0.084 A 
ENDROOT
BRANCH   5   9
HETATM    9  C   UNL     1      40.101 -14.693  -1.010  1.00  0.00     0.294 C 
HETATM   10  N   UNL     1      38.761 -14.397  -0.852  1.00  0.00    -0.261 N 
HETATM   11  H   UNL     1      38.395 -13.920  -0.018  1.00  0.00     0.190 HD
HETATM   12  O   UNL     1      40.578 -15.073  -2.073  1.00  0.00    -0.264 OA
BRANCH  10  13
HETATM   13  N   UNL     1      37.956 -14.375  -2.000  1.00  0.00    -0.262 N 
HETATM   14  C   UNL     1      37.605 -13.163  -2.554  1.00  0.00     0.286 C 
HETATM   15  O   UNL     1      37.881 -12.093  -2.012  1.00  0.00    -0.264 OA
HETATM   16  H   UNL     1      37.821 -15.262  -2.479  1.00  0.00     0.190 HD
BRANCH  14  17
HETATM   17  C   UNL     1      36.898 -13.233  -3.815  1.00  0.00     0.102 A 
HETATM   18  N   UNL     1      36.749 -12.119  -4.615  1.00  0.00    -0.361 N 
HETATM   19  H   UNL     1      37.115 -11.205  -4.375  1.00  0.00     0.165 HD
HETATM   20  C   UNL     1      36.049 -12.434  -5.747  1.00  0.00     0.088 A 
HETATM   21  C   UNL     1      35.740 -13.773  -5.691  1.00  0.00     0.019 A 
HETATM   22  C   UNL     1      36.271 -14.278  -4.478  1.00  0.00     0.036 A 
ENDBRANCH  14  17
ENDBRANCH  10  13
ENDBRANCH   5   9
BRANCH   3  23
HETATM   23  C   UNL     1      42.867 -16.701   2.266  1.00  0.00     0.073 A 
HETATM   24  C   UNL     1      42.374 -17.318   3.436  1.00  0.00     0.076 A 
HETATM   25  C   UNL     1      42.941 -18.539   3.861  1.00  0.00     0.018 A 
HETATM   26  C   UNL     1      43.964 -19.148   3.139  1.00  0.00     0.001 A 
HETATM   27  C   UNL     1      44.451 -18.544   1.987  1.00  0.00     0.002 A 
HETATM   28  C   UNL     1      43.913 -17.329   1.561  1.00  0.00     0.032 A 
BRANCH  24  29
HETATM   29  C   UNL     1      41.254 -16.715   4.249  1.00  0.00     0.419 C 
HETATM   30  F   UNL     1      40.648 -17.582   5.113  1.00  0.00    -0.166 F 
HETATM   31  F   UNL     1      41.696 -15.694   5.049  1.00  0.00    -0.166 F 
HETATM   32  F   UNL     1      40.268 -16.160   3.492  1.00  0.00    -0.166 F 
ENDBRANCH  24  29
ENDBRANCH   3  23
TORSDOF 5
ENDMDL
MODEL 9
REMARK VINA RESULT:      -7.8      4.710      7.712
REMARK  5 active torsions:
REMARK  status: ('A' for Active; 'I' for Inactive)
REMARK    1  A    between atoms: N_3  and  C_4 
REMARK    2  A    between atoms: C_5  and  C_6 
REMARK    3  A    between atoms: C_15  and  C_16 
REMARK       I    between atoms: C_16  and  N_17 
REMARK    4  A    between atoms: N_17  and  N_18 
REMARK       I    between atoms: N_18  and  C_19 
REMARK    5  A    between atoms: C_19  and  C_20 
ROOT
HETATM    1  C   UNL     1      40.773 -16.602   6.281  1.00  0.00     0.070 C 
HETATM    2  C   UNL     1      40.985 -15.935   4.941  1.00  0.00     0.036 A 
HETATM    3  N   UNL     1      42.156 -16.175   4.212  1.00  0.00    -0.237 N 
HETATM    4  N   UNL     1      42.501 -15.485   3.079  1.00  0.00    -0.158 NA
HETATM    5  C   UNL     1      41.664 -14.609   2.595  1.00  0.00     0.196 A 
HETATM    6  C   UNL     1      40.324 -14.384   3.247  1.00  0.00     0.209 A 
HETATM    7  O   UNL     1      39.498 -13.647   2.725  1.00  0.00    -0.286 OA
HETATM    8  C   UNL     1      40.055 -15.069   4.513  1.00  0.00     0.084 A 
ENDROOT
BRANCH   5   9
HETATM    9  C   UNL     1      42.110 -13.831   1.361  1.00  0.00     0.294 C 
HETATM   10  N   UNL     1      41.895 -14.449   0.144  1.00  0.00    -0.261 N 
HETATM   11  H   UNL     1      41.322 -15.296   0.048  1.00  0.00     0.190 HD
HETATM   12  O   UNL     1      42.616 -12.719   1.464  1.00  0.00    -0.264 OA
BRANCH  10  13
HETATM   13  N   UNL     1      42.118 -13.697  -1.019  1.00  0.00    -0.262 N 
HETATM   14  C   UNL     1      41.046 -13.364  -1.820  1.00  0.00     0.286 C 
HETATM   15  O   UNL     1      39.914 -13.797  -1.610  1.00  0.00    -0.264 OA
HETATM   16  H   UNL     1      43.037 -13.274  -1.119  1.00  0.00     0.190 HD
BRANCH  14  17
HETATM   17  C   UNL     1      41.342 -12.467  -2.917  1.00  0.00     0.102 A 
HETATM   18  N   UNL     1      40.335 -11.920  -3.685  1.00  0.00    -0.361 N 
HETATM   19  H   UNL     1      39.351 -12.107  -3.533  1.00  0.00     0.165 HD
HETATM   20  C   UNL     1      40.861 -11.110  -4.654  1.00  0.00     0.088 A 
HETATM   21  C   UNL     1      42.229 -11.124  -4.517  1.00  0.00     0.019 A 
HETATM   22  C   UNL     1      42.535 -11.976  -3.427  1.00  0.00     0.036 A 
ENDBRANCH  14  17
ENDBRANCH  10  13
ENDBRANCH   5   9
BRANCH   3  23
HETATM   23  C   UNL     1      43.150 -17.126   4.598  1.00  0.00     0.073 A 
HETATM   24  C   UNL     1      43.416 -18.280   3.830  1.00  0.00     0.076 A 
HETATM   25  C   UNL     1      44.381 -19.203   4.288  1.00  0.00     0.018 A 
HETATM   26  C   UNL     1      45.081 -18.986   5.473  1.00  0.00     0.001 A 
HETATM   27  C   UNL     1      44.821 -17.851   6.231  1.00  0.00     0.002 A 
HETATM   28  C   UNL     1      43.859 -16.936   5.801  1.00  0.00     0.032 A 
BRANCH  24  29
HETATM   29  C   UNL     1      42.704 -18.559   2.528  1.00  0.00     0.419 C 
HETATM   30  F   UNL     1      43.239 -17.929   1.442  1.00  0.00    -0.166 F 
HETATM   31  F   UNL     1      42.742 -19.889   2.201  1.00  0.00    -0.166 F 
HETATM   32  F   UNL     1      41.380 -18.245   2.552  1.00  0.00    -0.166 F 
ENDBRANCH  24  29
ENDBRANCH   3  23
TORSDOF 5
ENDMDL
MODEL 10
REMARK VINA RESULT:      -7.5      3.384      4.733
REMARK  5 active torsions:
REMARK  status: ('A' for Active; 'I' for Inactive)
REMARK    1  A    between atoms: N_3  and  C_4 
REMARK    2  A    between atoms: C_5  and  C_6 
REMARK    3  A    between atoms: C_15  and  C_16 
REMARK       I    between atoms: C_16  and  N_17 
REMARK    4  A    between atoms: N_17  and  N_18 
REMARK       I    between atoms: N_18  and  C_19 
REMARK    5  A    between atoms: C_19  and  C_20 
ROOT
HETATM    1  C   UNL     1      40.670 -17.267   1.184  1.00  0.00     0.070 C 
HETATM    2  C   UNL     1      40.609 -16.473   2.468  1.00  0.00     0.036 A 
HETATM    3  N   UNL     1      40.089 -15.172   2.468  1.00  0.00    -0.237 N 
HETATM    4  N   UNL     1      40.153 -14.328   3.545  1.00  0.00    -0.158 NA
HETATM    5  C   UNL     1      40.651 -14.773   4.666  1.00  0.00     0.196 A 
HETATM    6  C   UNL     1      41.114 -16.201   4.789  1.00  0.00     0.209 A 
HETATM    7  O   UNL     1      41.471 -16.646   5.871  1.00  0.00    -0.286 OA
HETATM    8  C   UNL     1      41.121 -17.024   3.577  1.00  0.00     0.084 A 
ENDROOT
BRANCH   5   9
HETATM    9  C   UNL     1      40.747 -13.784   5.824  1.00  0.00     0.294 C 
HETATM   10  N   UNL     1      39.567 -13.515   6.491  1.00  0.00    -0.261 N 
HETATM   11  H   UNL     1      38.710 -14.061   6.341  1.00  0.00     0.190 HD
HETATM   12  O   UNL     1      41.819 -13.279   6.136  1.00  0.00    -0.264 OA
BRANCH  10  13
HETATM   13  N   UNL     1      39.641 -12.760   7.671  1.00  0.00    -0.262 N 
HETATM   14  C   UNL     1      39.323 -11.419   7.633  1.00  0.00     0.286 C 
HETATM   15  O   UNL     1      39.084 -10.835   6.577  1.00  0.00    -0.264 OA
HETATM   16  H   UNL     1      39.747 -13.280   8.538  1.00  0.00     0.190 HD
BRANCH  14  17
HETATM   17  C   UNL     1      39.284 -10.751   8.916  1.00  0.00     0.102 A 
HETATM   18  N   UNL     1      39.866 -11.313  10.034  1.00  0.00    -0.361 N 
HETATM   19  H   UNL     1      40.343 -12.207  10.026  1.00  0.00     0.165 HD
HETATM   20  C   UNL     1      39.698 -10.498  11.120  1.00  0.00     0.088 A 
HETATM   21  C   UNL     1      39.002  -9.386  10.708  1.00  0.00     0.019 A 
HETATM   22  C   UNL     1      38.740  -9.542   9.324  1.00  0.00     0.036 A 
ENDBRANCH  14  17
ENDBRANCH  10  13
ENDBRANCH   5   9
BRANCH   3  23
HETATM   23  C   UNL     1      39.484 -14.560   1.327  1.00  0.00     0.073 A 
HETATM   24  C   UNL     1      40.245 -13.876   0.356  1.00  0.00     0.076 A 
HETATM   25  C   UNL     1      39.583 -13.256  -0.726  1.00  0.00     0.018 A 
HETATM   26  C   UNL     1      38.198 -13.323  -0.856  1.00  0.00     0.001 A 
HETATM   27  C   UNL     1      37.446 -13.995   0.098  1.00  0.00     0.002 A 
HETATM   28  C   UNL     1      38.083 -14.601   1.182  1.00  0.00     0.032 A 
BRANCH  24  29
HETATM   29  C   UNL     1      41.751 -13.788   0.433  1.00  0.00     0.419 C 
HETATM   30  F   UNL     1      42.318 -12.945  -0.478  1.00  0.00    -0.166 F 
HETATM   31  F   UNL     1      42.172 -13.309   1.646  1.00  0.00    -0.166 F 
HETATM   32  F   UNL     1      42.375 -14.990   0.300  1.00  0.00    -0.166 F 
ENDBRANCH  24  29
ENDBRANCH   3  23
TORSDOF 5
ENDMDL
