MODEL 1
REMARK VINA RESULT:      -7.6      0.000      0.000
REMARK  1 active torsions:
REMARK  status: ('A' for Active; 'I' for Inactive)
REMARK    1  A    between atoms: C_8  and  C_9 
ROOT
HETATM    1  C   UNL     1      43.438 -17.505   0.970  1.00  0.00     0.073 C 
HETATM    2  C   UNL     1      42.242 -17.115   1.761  1.00  0.00     0.062 C 
HETATM    3  N   UNL     1      41.024 -17.447   1.318  1.00  0.00    -0.178 NA
HETATM    4  N   UNL     1      40.200 -16.983   2.265  1.00  0.00    -0.262 N 
HETATM    5  H   UNL     1      39.204 -17.130   2.145  1.00  0.00     0.191 HD
HETATM    6  C   UNL     1      40.836 -16.249   3.226  1.00  0.00     0.134 C 
HETATM    7  C   UNL     1      42.189 -16.414   3.009  1.00  0.00     0.032 C 
HETATM    8  C   UNL     1      43.348 -16.051   3.876  1.00  0.00     0.119 C 
HETATM    9  S   UNL     1      43.435 -14.393   4.598  1.00  0.00    -0.141 SA
HETATM   10  C   UNL     1      41.795 -13.667   4.315  1.00  0.00     0.136 C 
HETATM   11  C   UNL     1      41.594 -13.139   2.897  1.00  0.00     0.031 C 
HETATM   12  C   UNL     1      40.621 -14.476   4.863  1.00  0.00     0.236 C 
HETATM   13  O   UNL     1      40.010 -14.110   5.872  1.00  0.00    -0.272 OA
HETATM   14  N   UNL     1      40.142 -15.564   4.187  1.00  0.00    -0.311 N 
HETATM   15  H   UNL     1      39.212 -15.858   4.460  1.00  0.00     0.170 HD
ENDROOT
BRANCH   8  16
HETATM   16  C   UNL     1      43.441 -17.171   4.917  1.00  0.00    -0.040 A 
HETATM   17  C   UNL     1      43.958 -18.426   4.540  1.00  0.00     0.010 A 
HETATM   18  C   UNL     1      44.025 -19.485   5.451  1.00  0.00     0.024 A 
HETATM   19  C   UNL     1      43.584 -19.303   6.759  1.00  0.00     0.034 A 
HETATM   20 CL   UNL     1      43.663 -20.605   7.879  1.00  0.00    -0.084 Cl
HETATM   21  C   UNL     1      43.080 -18.071   7.162  1.00  0.00     0.024 A 
HETATM   22  C   UNL     1      43.006 -17.016   6.247  1.00  0.00     0.010 A 
ENDBRANCH   8  16
TORSDOF 1
ENDMDL
MODEL 2
REMARK VINA RESULT:      -7.5      2.107      2.943
REMARK  1 active torsions:
REMARK  status: ('A' for Active; 'I' for Inactive)
REMARK    1  A    between atoms: C_8  and  C_9 
ROOT
HETATM    1  C   UNL     1      41.721 -14.190  -0.473  1.00  0.00     0.073 C 
HETATM    2  C   UNL     1      40.930 -14.583   0.722  1.00  0.00     0.062 C 
HETATM    3  N   UNL     1      39.611 -14.776   0.604  1.00  0.00    -0.178 NA
HETATM    4  N   UNL     1      39.228 -15.144   1.832  1.00  0.00    -0.262 N 
HETATM    5  H   UNL     1      38.248 -15.356   1.983  1.00  0.00     0.191 HD
HETATM    6  C   UNL     1      40.227 -15.060   2.760  1.00  0.00     0.134 C 
HETATM    7  C   UNL     1      41.391 -14.820   2.058  1.00  0.00     0.032 C 
HETATM    8  C   UNL     1      42.811 -14.874   2.512  1.00  0.00     0.119 C 
HETATM    9  S   UNL     1      43.289 -14.026   4.039  1.00  0.00    -0.141 SA
HETATM   10  C   UNL     1      41.724 -13.577   4.842  1.00  0.00     0.136 C 
HETATM   11  C   UNL     1      41.066 -12.334   4.250  1.00  0.00     0.031 C 
HETATM   12  C   UNL     1      40.767 -14.740   5.099  1.00  0.00     0.236 C 
HETATM   13  O   UNL     1      40.596 -15.183   6.239  1.00  0.00    -0.272 OA
HETATM   14  N   UNL     1      39.988 -15.244   4.096  1.00  0.00    -0.311 N 
HETATM   15  H   UNL     1      39.200 -15.799   4.407  1.00  0.00     0.170 HD
ENDROOT
BRANCH   8  16
HETATM   16  C   UNL     1      43.184 -16.359   2.501  1.00  0.00    -0.040 A 
HETATM   17  C   UNL     1      43.147 -17.093   3.702  1.00  0.00     0.010 A 
HETATM   18  C   UNL     1      43.516 -18.441   3.740  1.00  0.00     0.024 A 
HETATM   19  C   UNL     1      43.920 -19.082   2.572  1.00  0.00     0.034 A 
HETATM   20 CL   UNL     1      44.378 -20.739   2.619  1.00  0.00    -0.084 Cl
HETATM   21  C   UNL     1      43.956 -18.385   1.370  1.00  0.00     0.024 A 
HETATM   22  C   UNL     1      43.594 -17.035   1.335  1.00  0.00     0.010 A 
ENDBRANCH   8  16
TORSDOF 1
ENDMDL
MODEL 3
REMARK VINA RESULT:      -7.0      3.047      4.077
REMARK  1 active torsions:
REMARK  status: ('A' for Active; 'I' for Inactive)
REMARK    1  A    between atoms: C_8  and  C_9 
ROOT
HETATM    1  C   UNL     1      42.319 -15.217   6.228  1.00  0.00     0.073 C 
HETATM    2  C   UNL     1      42.659 -14.857   4.827  1.00  0.00     0.062 C 
HETATM    3  N   UNL     1      43.553 -13.889   4.595  1.00  0.00    -0.178 NA
HETATM    4  N   UNL     1      43.644 -13.847   3.260  1.00  0.00    -0.262 N 
HETATM    5  H   UNL     1      44.284 -13.178   2.846  1.00  0.00     0.191 HD
HETATM    6  C   UNL     1      42.741 -14.656   2.629  1.00  0.00     0.134 C 
HETATM    7  C   UNL     1      42.161 -15.432   3.612  1.00  0.00     0.032 C 
HETATM    8  C   UNL     1      41.296 -16.640   3.491  1.00  0.00     0.119 C 
HETATM    9  S   UNL     1      39.881 -16.612   2.361  1.00  0.00    -0.141 SA
HETATM   10  C   UNL     1      40.106 -15.115   1.358  1.00  0.00     0.136 C 
HETATM   11  C   UNL     1      39.682 -13.832   2.068  1.00  0.00     0.031 C 
HETATM   12  C   UNL     1      41.440 -15.021   0.620  1.00  0.00     0.236 C 
HETATM   13  O   UNL     1      41.505 -15.192  -0.602  1.00  0.00    -0.272 OA
HETATM   14  N   UNL     1      42.577 -14.630   1.270  1.00  0.00    -0.311 N 
HETATM   15  H   UNL     1      43.329 -14.324   0.665  1.00  0.00     0.170 HD
ENDROOT
BRANCH   8  16
HETATM   16  C   UNL     1      42.258 -17.803   3.229  1.00  0.00    -0.040 A 
HETATM   17  C   UNL     1      42.345 -18.353   1.935  1.00  0.00     0.010 A 
HETATM   18  C   UNL     1      43.183 -19.439   1.664  1.00  0.00     0.024 A 
HETATM   19  C   UNL     1      43.958 -19.988   2.682  1.00  0.00     0.034 A 
HETATM   20 CL   UNL     1      44.986 -21.325   2.350  1.00  0.00    -0.084 Cl
HETATM   21  C   UNL     1      43.900 -19.458   3.966  1.00  0.00     0.024 A 
HETATM   22  C   UNL     1      43.055 -18.378   4.238  1.00  0.00     0.010 A 
ENDBRANCH   8  16
TORSDOF 1
ENDMDL
MODEL 4
REMARK VINA RESULT:      -6.8      2.878      4.217
REMARK  1 active torsions:
REMARK  status: ('A' for Active; 'I' for Inactive)
REMARK    1  A    between atoms: C_8  and  C_9 
ROOT
HETATM    1  C   UNL     1      43.296 -16.945   8.376  1.00  0.00     0.073 C 
HETATM    2  C   UNL     1      43.669 -16.042   7.256  1.00  0.00     0.062 C 
HETATM    3  N   UNL     1      44.705 -15.209   7.401  1.00  0.00    -0.178 NA
HETATM    4  N   UNL     1      44.782 -14.583   6.220  1.00  0.00    -0.262 N 
HETATM    5  H   UNL     1      45.517 -13.895   6.092  1.00  0.00     0.191 HD
HETATM    6  C   UNL     1      43.752 -14.886   5.376  1.00  0.00     0.134 C 
HETATM    7  C   UNL     1      43.067 -15.932   5.960  1.00  0.00     0.032 C 
HETATM    8  C   UNL     1      42.015 -16.823   5.391  1.00  0.00     0.119 C 
HETATM    9  S   UNL     1      40.607 -16.092   4.516  1.00  0.00    -0.141 SA
HETATM   10  C   UNL     1      41.058 -14.351   4.266  1.00  0.00     0.136 C 
HETATM   11  C   UNL     1      40.859 -13.481   5.504  1.00  0.00     0.031 C 
HETATM   12  C   UNL     1      42.379 -14.120   3.534  1.00  0.00     0.236 C 
HETATM   13  O   UNL     1      42.398 -13.729   2.362  1.00  0.00    -0.272 OA
HETATM   14  N   UNL     1      43.574 -14.227   4.190  1.00  0.00    -0.311 N 
HETATM   15  H   UNL     1      44.358 -13.789   3.721  1.00  0.00     0.170 HD
ENDROOT
BRANCH   8  16
HETATM   16  C   UNL     1      42.771 -17.863   4.559  1.00  0.00    -0.040 A 
HETATM   17  C   UNL     1      42.547 -17.937   3.170  1.00  0.00     0.010 A 
HETATM   18  C   UNL     1      43.189 -18.897   2.382  1.00  0.00     0.024 A 
HETATM   19  C   UNL     1      44.076 -19.795   2.969  1.00  0.00     0.034 A 
HETATM   20 CL   UNL     1      44.864 -20.978   2.002  1.00  0.00    -0.084 Cl
HETATM   21  C   UNL     1      44.325 -19.739   4.336  1.00  0.00     0.024 A 
HETATM   22  C   UNL     1      43.676 -18.783   5.124  1.00  0.00     0.010 A 
ENDBRANCH   8  16
TORSDOF 1
ENDMDL
MODEL 5
REMARK VINA RESULT:      -6.6      3.061      4.392
REMARK  1 active torsions:
REMARK  status: ('A' for Active; 'I' for Inactive)
REMARK    1  A    between atoms: C_8  and  C_9 
ROOT
HETATM    1  C   UNL     1      40.876 -14.578   6.164  1.00  0.00     0.073 C 
HETATM    2  C   UNL     1      41.540 -14.075   4.934  1.00  0.00     0.062 C 
HETATM    3  N   UNL     1      42.460 -13.107   5.032  1.00  0.00    -0.178 NA
HETATM    4  N   UNL     1      42.868 -12.923   3.771  1.00  0.00    -0.262 N 
HETATM    5  H   UNL     1      43.585 -12.227   3.599  1.00  0.00     0.191 HD
HETATM    6  C   UNL     1      42.147 -13.637   2.856  1.00  0.00     0.134 C 
HETATM    7  C   UNL     1      41.351 -14.502   3.580  1.00  0.00     0.032 C 
HETATM    8  C   UNL     1      40.546 -15.671   3.121  1.00  0.00     0.119 C 
HETATM    9  S   UNL     1      39.443 -15.488   1.696  1.00  0.00    -0.141 SA
HETATM   10  C   UNL     1      39.895 -13.896   0.949  1.00  0.00     0.136 C 
HETATM   11  C   UNL     1      39.308 -12.689   1.675  1.00  0.00     0.031 C 
HETATM   12  C   UNL     1      41.367 -13.751   0.566  1.00  0.00     0.236 C 
HETATM   13  O   UNL     1      41.725 -13.789  -0.616  1.00  0.00    -0.272 OA
HETATM   14  N   UNL     1      42.313 -13.459   1.509  1.00  0.00    -0.311 N 
HETATM   15  H   UNL     1      43.188 -13.106   1.139  1.00  0.00     0.170 HD
ENDROOT
BRANCH   8  16
HETATM   16  C   UNL     1      41.548 -16.819   2.968  1.00  0.00    -0.040 A 
HETATM   17  C   UNL     1      41.993 -17.508   4.113  1.00  0.00     0.010 A 
HETATM   18  C   UNL     1      42.935 -18.537   4.020  1.00  0.00     0.024 A 
HETATM   19  C   UNL     1      43.442 -18.901   2.776  1.00  0.00     0.034 A 
HETATM   20 CL   UNL     1      44.604 -20.164   2.660  1.00  0.00    -0.084 Cl
HETATM   21  C   UNL     1      43.013 -18.245   1.627  1.00  0.00     0.024 A 
HETATM   22  C   UNL     1      42.076 -17.212   1.723  1.00  0.00     0.010 A 
ENDBRANCH   8  16
TORSDOF 1
ENDMDL
MODEL 6
REMARK VINA RESULT:      -6.6      2.631      3.923
REMARK  1 active torsions:
REMARK  status: ('A' for Active; 'I' for Inactive)
REMARK    1  A    between atoms: C_8  and  C_9 
ROOT
HETATM    1  C   UNL     1      40.805 -13.352   5.224  1.00  0.00     0.073 C 
HETATM    2  C   UNL     1      41.925 -13.840   4.378  1.00  0.00     0.062 C 
HETATM    3  N   UNL     1      42.961 -13.031   4.128  1.00  0.00    -0.178 NA
HETATM    4  N   UNL     1      43.782 -13.780   3.383  1.00  0.00    -0.262 N 
HETATM    5  H   UNL     1      44.657 -13.369   3.076  1.00  0.00     0.191 HD
HETATM    6  C   UNL     1      43.249 -14.989   3.035  1.00  0.00     0.134 C 
HETATM    7  C   UNL     1      42.087 -15.126   3.767  1.00  0.00     0.032 C 
HETATM    8  C   UNL     1      41.225 -16.325   3.978  1.00  0.00     0.119 C 
HETATM    9  S   UNL     1      40.710 -17.313   2.551  1.00  0.00    -0.141 SA
HETATM   10  C   UNL     1      41.730 -16.720   1.172  1.00  0.00     0.136 C 
HETATM   11  C   UNL     1      41.235 -15.412   0.560  1.00  0.00     0.031 C 
HETATM   12  C   UNL     1      43.239 -16.780   1.405  1.00  0.00     0.236 C 
HETATM   13  O   UNL     1      43.937 -17.630   0.843  1.00  0.00    -0.272 OA
HETATM   14  N   UNL     1      43.873 -15.825   2.149  1.00  0.00    -0.311 N 
HETATM   15  H   UNL     1      44.877 -15.779   2.016  1.00  0.00     0.170 HD
ENDROOT
BRANCH   8  16
HETATM   16  C   UNL     1      41.931 -17.146   5.061  1.00  0.00    -0.040 A 
HETATM   17  C   UNL     1      41.887 -16.711   6.401  1.00  0.00     0.010 A 
HETATM   18  C   UNL     1      42.550 -17.412   7.413  1.00  0.00     0.024 A 
HETATM   19  C   UNL     1      43.262 -18.568   7.103  1.00  0.00     0.034 A 
HETATM   20 CL   UNL     1      44.080 -19.428   8.347  1.00  0.00    -0.084 Cl
HETATM   21  C   UNL     1      43.314 -19.026   5.792  1.00  0.00     0.024 A 
HETATM   22  C   UNL     1      42.656 -18.320   4.780  1.00  0.00     0.010 A 
ENDBRANCH   8  16
TORSDOF 1
ENDMDL
MODEL 7
REMARK VINA RESULT:      -6.4      3.203      4.280
REMARK  1 active torsions:
REMARK  status: ('A' for Active; 'I' for Inactive)
REMARK    1  A    between atoms: C_8  and  C_9 
ROOT
HETATM    1  C   UNL     1      43.145 -17.280   4.579  1.00  0.00     0.073 C 
HETATM    2  C   UNL     1      41.962 -16.586   5.151  1.00  0.00     0.062 C 
HETATM    3  N   UNL     1      41.030 -17.297   5.794  1.00  0.00    -0.178 NA
HETATM    4  N   UNL     1      40.146 -16.378   6.199  1.00  0.00    -0.262 N 
HETATM    5  H   UNL     1      39.339 -16.692   6.728  1.00  0.00     0.191 HD
HETATM    6  C   UNL     1      40.407 -15.125   5.721  1.00  0.00     0.134 C 
HETATM    7  C   UNL     1      41.655 -15.187   5.134  1.00  0.00     0.032 C 
HETATM    8  C   UNL     1      42.547 -14.086   4.667  1.00  0.00     0.119 C 
HETATM    9  S   UNL     1      41.869 -12.775   3.618  1.00  0.00    -0.141 SA
HETATM   10  C   UNL     1      40.068 -12.994   3.691  1.00  0.00     0.136 C 
HETATM   11  C   UNL     1      39.549 -14.111   2.790  1.00  0.00     0.031 C 
HETATM   12  C   UNL     1      39.468 -12.982   5.096  1.00  0.00     0.236 C 
HETATM   13  O   UNL     1      38.821 -12.012   5.504  1.00  0.00    -0.272 OA
HETATM   14  N   UNL     1      39.531 -14.088   5.897  1.00  0.00    -0.311 N 
HETATM   15  H   UNL     1      38.878 -14.091   6.671  1.00  0.00     0.170 HD
ENDROOT
BRANCH   8  16
HETATM   16  C   UNL     1      43.235 -13.558   5.929  1.00  0.00    -0.040 A 
HETATM   17  C   UNL     1      44.422 -14.168   6.379  1.00  0.00     0.010 A 
HETATM   18  C   UNL     1      45.059 -13.739   7.548  1.00  0.00     0.024 A 
HETATM   19  C   UNL     1      44.524 -12.684   8.282  1.00  0.00     0.034 A 
HETATM   20 CL   UNL     1      45.305 -12.159   9.721  1.00  0.00    -0.084 Cl
HETATM   21  C   UNL     1      43.359 -12.056   7.856  1.00  0.00     0.024 A 
HETATM   22  C   UNL     1      42.719 -12.492   6.691  1.00  0.00     0.010 A 
ENDBRANCH   8  16
TORSDOF 1
ENDMDL
MODEL 8
REMARK VINA RESULT:      -6.2      5.245      6.811
REMARK  1 active torsions:
REMARK  status: ('A' for Active; 'I' for Inactive)
REMARK    1  A    between atoms: C_8  and  C_9 
ROOT
HETATM    1  C   UNL     1      42.245 -10.814  -0.022  1.00  0.00     0.073 C 
HETATM    2  C   UNL     1      42.276 -11.787  -1.145  1.00  0.00     0.062 C 
HETATM    3  N   UNL     1      43.165 -11.624  -2.131  1.00  0.00    -0.178 NA
HETATM    4  N   UNL     1      42.945 -12.669  -2.938  1.00  0.00    -0.262 N 
HETATM    5  H   UNL     1      43.522 -12.761  -3.767  1.00  0.00     0.191 HD
HETATM    6  C   UNL     1      41.860 -13.416  -2.577  1.00  0.00     0.134 C 
HETATM    7  C   UNL     1      41.465 -12.952  -1.338  1.00  0.00     0.032 C 
HETATM    8  C   UNL     1      40.502 -13.537  -0.360  1.00  0.00     0.119 C 
HETATM    9  S   UNL     1      38.870 -14.074  -0.931  1.00  0.00    -0.141 SA
HETATM   10  C   UNL     1      38.973 -14.055  -2.744  1.00  0.00     0.136 C 
HETATM   11  C   UNL     1      38.828 -12.663  -3.352  1.00  0.00     0.031 C 
HETATM   12  C   UNL     1      40.101 -14.894  -3.341  1.00  0.00     0.236 C 
HETATM   13  O   UNL     1      39.866 -15.966  -3.908  1.00  0.00    -0.272 OA
HETATM   14  N   UNL     1      41.385 -14.428  -3.367  1.00  0.00    -0.311 N 
HETATM   15  H   UNL     1      41.998 -14.904  -4.018  1.00  0.00     0.170 HD
ENDROOT
BRANCH   8  16
HETATM   16  C   UNL     1      41.282 -14.636   0.368  1.00  0.00    -0.040 A 
HETATM   17  C   UNL     1      41.999 -14.319   1.538  1.00  0.00     0.010 A 
HETATM   18  C   UNL     1      42.754 -15.286   2.210  1.00  0.00     0.024 A 
HETATM   19  C   UNL     1      42.795 -16.591   1.728  1.00  0.00     0.034 A 
HETATM   20 CL   UNL     1      43.725 -17.780   2.553  1.00  0.00    -0.084 Cl
HETATM   21  C   UNL     1      42.087 -16.936   0.582  1.00  0.00     0.024 A 
HETATM   22  C   UNL     1      41.340 -15.966  -0.094  1.00  0.00     0.010 A 
ENDBRANCH   8  16
TORSDOF 1
ENDMDL
MODEL 9
REMARK VINA RESULT:      -6.0      3.811      6.148
REMARK  1 active torsions:
REMARK  status: ('A' for Active; 'I' for Inactive)
REMARK    1  A    between atoms: C_8  and  C_9 
ROOT
HETATM    1  C   UNL     1      41.332 -10.899   5.437  1.00  0.00     0.073 C 
HETATM    2  C   UNL     1      40.761 -12.236   5.747  1.00  0.00     0.062 C 
HETATM    3  N   UNL     1      39.849 -12.351   6.720  1.00  0.00    -0.178 NA
HETATM    4  N   UNL     1      39.531 -13.651   6.711  1.00  0.00    -0.262 N 
HETATM    5  H   UNL     1      38.836 -13.977   7.373  1.00  0.00     0.191 HD
HETATM    6  C   UNL     1      40.305 -14.393   5.863  1.00  0.00     0.134 C 
HETATM    7  C   UNL     1      41.037 -13.492   5.117  1.00  0.00     0.032 C 
HETATM    8  C   UNL     1      41.858 -13.710   3.891  1.00  0.00     0.119 C 
HETATM    9  S   UNL     1      43.059 -15.065   3.852  1.00  0.00    -0.141 SA
HETATM   10  C   UNL     1      42.679 -16.075   5.312  1.00  0.00     0.136 C 
HETATM   11  C   UNL     1      43.231 -15.502   6.615  1.00  0.00     0.031 C 
HETATM   12  C   UNL     1      41.239 -16.579   5.399  1.00  0.00     0.236 C 
HETATM   13  O   UNL     1      40.964 -17.763   5.182  1.00  0.00    -0.272 OA
HETATM   14  N   UNL     1      40.234 -15.760   5.833  1.00  0.00    -0.311 N 
HETATM   15  H   UNL     1      39.392 -16.240   6.128  1.00  0.00     0.170 HD
ENDROOT
BRANCH   8  16
HETATM   16  C   UNL     1      40.855 -13.756   2.735  1.00  0.00    -0.040 A 
HETATM   17  C   UNL     1      40.423 -15.002   2.240  1.00  0.00     0.010 A 
HETATM   18  C   UNL     1      39.536 -15.086   1.162  1.00  0.00     0.024 A 
HETATM   19  C   UNL     1      39.058 -13.923   0.565  1.00  0.00     0.034 A 
HETATM   20 CL   UNL     1      37.971 -14.026  -0.763  1.00  0.00    -0.084 Cl
HETATM   21  C   UNL     1      39.459 -12.679   1.039  1.00  0.00     0.024 A 
HETATM   22  C   UNL     1      40.351 -12.597   2.113  1.00  0.00     0.010 A 
ENDBRANCH   8  16
TORSDOF 1
ENDMDL
MODEL 10
REMARK VINA RESULT:      -5.9      4.608      6.217
REMARK  1 active torsions:
REMARK  status: ('A' for Active; 'I' for Inactive)
REMARK    1  A    between atoms: C_8  and  C_9 
ROOT
HETATM    1  C   UNL     1      38.812 -12.303   2.763  1.00  0.00     0.073 C 
HETATM    2  C   UNL     1      40.057 -12.128   1.971  1.00  0.00     0.062 C 
HETATM    3  N   UNL     1      40.970 -11.235   2.369  1.00  0.00    -0.178 NA
HETATM    4  N   UNL     1      41.954 -11.357   1.470  1.00  0.00    -0.262 N 
HETATM    5  H   UNL     1      42.774 -10.771   1.578  1.00  0.00     0.191 HD
HETATM    6  C   UNL     1      41.644 -12.195   0.436  1.00  0.00     0.134 C 
HETATM    7  C   UNL     1      40.464 -12.821   0.785  1.00  0.00     0.032 C 
HETATM    8  C   UNL     1      39.786 -13.997   0.165  1.00  0.00     0.119 C 
HETATM    9  S   UNL     1      39.545 -14.041  -1.629  1.00  0.00    -0.141 SA
HETATM   10  C   UNL     1      40.564 -12.686  -2.277  1.00  0.00     0.136 C 
HETATM   11  C   UNL     1      39.920 -11.310  -2.133  1.00  0.00     0.031 C 
HETATM   12  C   UNL     1      42.041 -12.739  -1.890  1.00  0.00     0.236 C 
HETATM   13  O   UNL     1      42.905 -13.057  -2.713  1.00  0.00    -0.272 OA
HETATM   14  N   UNL     1      42.459 -12.324  -0.656  1.00  0.00    -0.311 N 
HETATM   15  H   UNL     1      43.449 -12.126  -0.587  1.00  0.00     0.170 HD
ENDROOT
BRANCH   8  16
HETATM   16  C   UNL     1      40.526 -15.223   0.708  1.00  0.00    -0.040 A 
HETATM   17  C   UNL     1      40.112 -15.800   1.925  1.00  0.00     0.010 A 
HETATM   18  C   UNL     1      40.785 -16.897   2.472  1.00  0.00     0.024 A 
HETATM   19  C   UNL     1      41.878 -17.443   1.805  1.00  0.00     0.034 A 
HETATM   20 CL   UNL     1      42.708 -18.790   2.480  1.00  0.00    -0.084 Cl
HETATM   21  C   UNL     1      42.302 -16.901   0.597  1.00  0.00     0.024 A 
HETATM   22  C   UNL     1      41.633 -15.799   0.055  1.00  0.00     0.010 A 
ENDBRANCH   8  16
TORSDOF 1
ENDMDL
