MODEL 1
REMARK VINA RESULT:      -8.0      0.000      0.000
REMARK  6 active torsions:
REMARK  status: ('A' for Active; 'I' for Inactive)
REMARK    1  A    between atoms: C_2  and  C_3 
REMARK    2  A    between atoms: C_2  and  C_18 
REMARK       I    between atoms: C_3  and  N_4 
REMARK    3  A    between atoms: N_4  and  C_5 
REMARK    4  A    between atoms: C_9  and  C_10 
REMARK    5  A    between atoms: C_18  and  C_19 
REMARK    6  A    between atoms: C_22  and  O_23 
ROOT
HETATM    1  C   UNL     1      41.623 -16.265   0.825  1.00  0.00     0.227 C 
HETATM    2  N   UNL     1      41.926 -15.313  -0.138  1.00  0.00    -0.312 N 
HETATM    3  O   UNL     1      40.700 -17.072   0.732  1.00  0.00    -0.273 OA
HETATM    4  H   UNL     1      42.709 -14.684   0.001  1.00  0.00     0.170 HD
ENDROOT
BRANCH   2   5
HETATM    5  C   UNL     1      41.138 -15.129  -1.254  1.00  0.00     0.126 A 
HETATM    6  N   UNL     1      41.427 -15.612  -2.500  1.00  0.00    -0.262 N 
HETATM    7  H   UNL     1      42.251 -16.146  -2.767  1.00  0.00     0.191 HD
HETATM    8  N   UNL     1      40.480 -15.343  -3.415  1.00  0.00    -0.172 NA
HETATM    9  C   UNL     1      39.545 -14.648  -2.743  1.00  0.00     0.092 A 
HETATM   10  C   UNL     1      39.935 -14.480  -1.382  1.00  0.00     0.084 A 
BRANCH   9  11
HETATM   11  C   UNL     1      38.318 -14.190  -3.397  1.00  0.00     0.012 A 
HETATM   12  C   UNL     1      37.473 -15.064  -4.076  1.00  0.00     0.130 A 
HETATM   13  N   UNL     1      36.335 -14.696  -4.720  1.00  0.00    -0.272 NA
HETATM   14  C   UNL     1      36.019 -13.385  -4.684  1.00  0.00     0.116 A 
HETATM   15  C   UNL     1      36.782 -12.430  -4.035  1.00  0.00     0.020 A 
HETATM   16  C   UNL     1      37.944 -12.842  -3.384  1.00  0.00     0.017 A 
ENDBRANCH   9  11
ENDBRANCH   2   5
BRANCH   1  17
HETATM   17  C   UNL     1      42.567 -16.213   2.022  1.00  0.00     0.078 C 
HETATM   18  C   UNL     1      42.873 -14.754   2.369  1.00  0.00     0.020 C 
BRANCH  17  19
HETATM   19  C   UNL     1      43.846 -17.019   1.733  1.00  0.00     0.052 C 
BRANCH  19  20
HETATM   20  C   UNL     1      44.044 -18.151   2.713  1.00  0.00    -0.057 A 
HETATM   21  C   UNL     1      43.987 -17.904   4.091  1.00  0.00     0.010 A 
HETATM   22  C   UNL     1      44.199 -18.940   5.003  1.00  0.00     0.037 A 
HETATM   23  C   UNL     1      44.468 -20.236   4.560  1.00  0.00     0.068 A 
HETATM   24  C   UNL     1      44.518 -20.489   3.189  1.00  0.00     0.037 A 
HETATM   25  C   UNL     1      44.307 -19.453   2.272  1.00  0.00     0.010 A 
BRANCH  23  26
HETATM   26  O   UNL     1      44.662 -21.151   5.558  1.00  0.00    -0.356 OA
HETATM   27  C   UNL     1      45.045 -22.462   5.163  1.00  0.00     0.210 C 
ENDBRANCH  23  26
ENDBRANCH  19  20
ENDBRANCH  17  19
ENDBRANCH   1  17
TORSDOF 6
ENDMDL
MODEL 2
REMARK VINA RESULT:      -8.0      2.716      4.752
REMARK  6 active torsions:
REMARK  status: ('A' for Active; 'I' for Inactive)
REMARK    1  A    between atoms: C_2  and  C_3 
REMARK    2  A    between atoms: C_2  and  C_18 
REMARK       I    between atoms: C_3  and  N_4 
REMARK    3  A    between atoms: N_4  and  C_5 
REMARK    4  A    between atoms: C_9  and  C_10 
REMARK    5  A    between atoms: C_18  and  C_19 
REMARK    6  A    between atoms: C_22  and  O_23 
ROOT
HETATM    1  C   UNL     1      42.750 -16.846   5.849  1.00  0.00     0.227 C 
HETATM    2  N   UNL     1      41.749 -17.338   5.023  1.00  0.00    -0.312 N 
HETATM    3  O   UNL     1      43.129 -15.676   5.853  1.00  0.00    -0.273 OA
HETATM    4  H   UNL     1      41.482 -18.314   5.079  1.00  0.00     0.170 HD
ENDROOT
BRANCH   2   5
HETATM    5  C   UNL     1      41.156 -16.558   4.052  1.00  0.00     0.126 A 
HETATM    6  N   UNL     1      40.302 -15.520   4.302  1.00  0.00    -0.262 N 
HETATM    7  H   UNL     1      39.986 -15.202   5.216  1.00  0.00     0.191 HD
HETATM    8  N   UNL     1      39.894 -14.881   3.194  1.00  0.00    -0.172 NA
HETATM    9  C   UNL     1      40.493 -15.534   2.182  1.00  0.00     0.092 A 
HETATM   10  C   UNL     1      41.284 -16.608   2.686  1.00  0.00     0.084 A 
BRANCH   9  11
HETATM   11  C   UNL     1      40.319 -15.113   0.792  1.00  0.00     0.012 A 
HETATM   12  C   UNL     1      41.117 -15.609  -0.235  1.00  0.00     0.130 A 
HETATM   13  N   UNL     1      41.018 -15.240  -1.539  1.00  0.00    -0.272 NA
HETATM   14  C   UNL     1      40.068 -14.329  -1.838  1.00  0.00     0.116 A 
HETATM   15  C   UNL     1      39.216 -13.774  -0.898  1.00  0.00     0.020 A 
HETATM   16  C   UNL     1      39.346 -14.174   0.431  1.00  0.00     0.017 A 
ENDBRANCH   9  11
ENDBRANCH   2   5
BRANCH   1  17
HETATM   17  C   UNL     1      43.336 -17.915   6.767  1.00  0.00     0.078 C 
HETATM   18  C   UNL     1      43.349 -17.398   8.207  1.00  0.00     0.020 C 
BRANCH  17  19
HETATM   19  C   UNL     1      44.739 -18.325   6.287  1.00  0.00     0.052 C 
BRANCH  19  20
HETATM   20  C   UNL     1      44.696 -19.472   5.304  1.00  0.00    -0.057 A 
HETATM   21  C   UNL     1      44.724 -19.218   3.927  1.00  0.00     0.010 A 
HETATM   22  C   UNL     1      44.653 -20.271   3.013  1.00  0.00     0.037 A 
HETATM   23  C   UNL     1      44.554 -21.592   3.454  1.00  0.00     0.068 A 
HETATM   24  C   UNL     1      44.533 -21.851   4.824  1.00  0.00     0.037 A 
HETATM   25  C   UNL     1      44.604 -20.798   5.744  1.00  0.00     0.010 A 
BRANCH  23  26
HETATM   26  O   UNL     1      44.486 -22.522   2.454  1.00  0.00    -0.356 OA
HETATM   27  C   UNL     1      43.949 -22.089   1.210  1.00  0.00     0.210 C 
ENDBRANCH  23  26
ENDBRANCH  19  20
ENDBRANCH  17  19
ENDBRANCH   1  17
TORSDOF 6
ENDMDL
MODEL 3
REMARK VINA RESULT:      -7.9      5.475      9.172
REMARK  6 active torsions:
REMARK  status: ('A' for Active; 'I' for Inactive)
REMARK    1  A    between atoms: C_2  and  C_3 
REMARK    2  A    between atoms: C_2  and  C_18 
REMARK       I    between atoms: C_3  and  N_4 
REMARK    3  A    between atoms: N_4  and  C_5 
REMARK    4  A    between atoms: C_9  and  C_10 
REMARK    5  A    between atoms: C_18  and  C_19 
REMARK    6  A    between atoms: C_22  and  O_23 
ROOT
HETATM    1  C   UNL     1      42.426 -16.147   4.106  1.00  0.00     0.227 C 
HETATM    2  N   UNL     1      43.396 -15.184   4.344  1.00  0.00    -0.312 N 
HETATM    3  O   UNL     1      41.746 -16.674   4.985  1.00  0.00    -0.273 OA
HETATM    4  H   UNL     1      43.914 -14.786   3.569  1.00  0.00     0.170 HD
ENDROOT
BRANCH   2   5
HETATM    5  C   UNL     1      43.751 -14.807   5.623  1.00  0.00     0.126 A 
HETATM    6  N   UNL     1      43.900 -15.668   6.675  1.00  0.00    -0.262 N 
HETATM    7  H   UNL     1      43.757 -16.676   6.658  1.00  0.00     0.191 HD
HETATM    8  N   UNL     1      44.298 -15.068   7.808  1.00  0.00    -0.172 NA
HETATM    9  C   UNL     1      44.401 -13.767   7.488  1.00  0.00     0.092 A 
HETATM   10  C   UNL     1      44.047 -13.563   6.122  1.00  0.00     0.084 A 
BRANCH   9  11
HETATM   11  C   UNL     1      44.846 -12.772   8.466  1.00  0.00     0.012 A 
HETATM   12  C   UNL     1      45.911 -11.913   8.211  1.00  0.00     0.130 A 
HETATM   13  N   UNL     1      46.384 -10.986   9.086  1.00  0.00    -0.272 NA
HETATM   14  C   UNL     1      45.759 -10.910  10.279  1.00  0.00     0.116 A 
HETATM   15  C   UNL     1      44.687 -11.710  10.636  1.00  0.00     0.020 A 
HETATM   16  C   UNL     1      44.228 -12.651   9.715  1.00  0.00     0.017 A 
ENDBRANCH   9  11
ENDBRANCH   2   5
BRANCH   1  17
HETATM   17  C   UNL     1      42.281 -16.484   2.625  1.00  0.00     0.078 C 
HETATM   18  C   UNL     1      41.118 -17.460   2.436  1.00  0.00     0.020 C 
BRANCH  17  19
HETATM   19  C   UNL     1      43.602 -17.045   2.070  1.00  0.00     0.052 C 
BRANCH  19  20
HETATM   20  C   UNL     1      43.836 -18.478   2.487  1.00  0.00    -0.057 A 
HETATM   21  C   UNL     1      44.373 -18.761   3.749  1.00  0.00     0.010 A 
HETATM   22  C   UNL     1      44.621 -20.082   4.130  1.00  0.00     0.037 A 
HETATM   23  C   UNL     1      44.338 -21.139   3.263  1.00  0.00     0.068 A 
HETATM   24  C   UNL     1      43.796 -20.862   2.008  1.00  0.00     0.037 A 
HETATM   25  C   UNL     1      43.546 -19.539   1.623  1.00  0.00     0.010 A 
BRANCH  23  26
HETATM   26  O   UNL     1      44.635 -22.377   3.760  1.00  0.00    -0.356 OA
HETATM   27  C   UNL     1      45.072 -22.439   5.112  1.00  0.00     0.210 C 
ENDBRANCH  23  26
ENDBRANCH  19  20
ENDBRANCH  17  19
ENDBRANCH   1  17
TORSDOF 6
ENDMDL
MODEL 4
REMARK VINA RESULT:      -7.8      3.802      9.476
REMARK  6 active torsions:
REMARK  status: ('A' for Active; 'I' for Inactive)
REMARK    1  A    between atoms: C_2  and  C_3 
REMARK    2  A    between atoms: C_2  and  C_18 
REMARK       I    between atoms: C_3  and  N_4 
REMARK    3  A    between atoms: N_4  and  C_5 
REMARK    4  A    between atoms: C_9  and  C_10 
REMARK    5  A    between atoms: C_18  and  C_19 
REMARK    6  A    between atoms: C_22  and  O_23 
ROOT
HETATM    1  C   UNL     1      40.634 -14.771  -1.182  1.00  0.00     0.227 C 
HETATM    2  N   UNL     1      41.468 -15.870  -1.031  1.00  0.00    -0.312 N 
HETATM    3  O   UNL     1      40.024 -14.236  -0.258  1.00  0.00    -0.273 OA
HETATM    4  H   UNL     1      41.947 -16.256  -1.837  1.00  0.00     0.170 HD
ENDROOT
BRANCH   2   5
HETATM    5  C   UNL     1      41.603 -16.522   0.176  1.00  0.00     0.126 A 
HETATM    6  N   UNL     1      40.599 -16.684   1.090  1.00  0.00    -0.262 N 
HETATM    7  H   UNL     1      39.645 -16.339   1.009  1.00  0.00     0.191 HD
HETATM    8  N   UNL     1      40.962 -17.398   2.168  1.00  0.00    -0.172 NA
HETATM    9  C   UNL     1      42.255 -17.702   1.957  1.00  0.00     0.092 A 
HETATM   10  C   UNL     1      42.696 -17.151   0.718  1.00  0.00     0.084 A 
BRANCH   9  11
HETATM   11  C   UNL     1      43.014 -18.512   2.910  1.00  0.00     0.012 A 
HETATM   12  C   UNL     1      42.874 -18.356   4.287  1.00  0.00     0.130 A 
HETATM   13  N   UNL     1      43.566 -19.061   5.219  1.00  0.00    -0.272 NA
HETATM   14  C   UNL     1      44.446 -19.973   4.756  1.00  0.00     0.116 A 
HETATM   15  C   UNL     1      44.662 -20.215   3.410  1.00  0.00     0.020 A 
HETATM   16  C   UNL     1      43.934 -19.473   2.479  1.00  0.00     0.017 A 
ENDBRANCH   9  11
ENDBRANCH   2   5
BRANCH   1  17
HETATM   17  C   UNL     1      40.556 -14.284  -2.626  1.00  0.00     0.078 C 
HETATM   18  C   UNL     1      39.891 -15.358  -3.491  1.00  0.00     0.020 C 
BRANCH  17  19
HETATM   19  C   UNL     1      41.956 -13.910  -3.144  1.00  0.00     0.052 C 
BRANCH  19  20
HETATM   20  C   UNL     1      42.307 -12.469  -2.855  1.00  0.00    -0.057 A 
HETATM   21  C   UNL     1      42.092 -11.487  -3.831  1.00  0.00     0.010 A 
HETATM   22  C   UNL     1      42.442 -10.158  -3.583  1.00  0.00     0.037 A 
HETATM   23  C   UNL     1      43.010  -9.786  -2.362  1.00  0.00     0.068 A 
HETATM   24  C   UNL     1      43.219 -10.760  -1.386  1.00  0.00     0.037 A 
HETATM   25  C   UNL     1      42.869 -12.093  -1.631  1.00  0.00     0.010 A 
BRANCH  23  26
HETATM   26  O   UNL     1      43.310  -8.457  -2.256  1.00  0.00    -0.356 OA
HETATM   27  C   UNL     1      44.108  -8.065  -1.146  1.00  0.00     0.210 C 
ENDBRANCH  23  26
ENDBRANCH  19  20
ENDBRANCH  17  19
ENDBRANCH   1  17
TORSDOF 6
ENDMDL
MODEL 5
REMARK VINA RESULT:      -7.8      2.594      3.580
REMARK  6 active torsions:
REMARK  status: ('A' for Active; 'I' for Inactive)
REMARK    1  A    between atoms: C_2  and  C_3 
REMARK    2  A    between atoms: C_2  and  C_18 
REMARK       I    between atoms: C_3  and  N_4 
REMARK    3  A    between atoms: N_4  and  C_5 
REMARK    4  A    between atoms: C_9  and  C_10 
REMARK    5  A    between atoms: C_18  and  C_19 
REMARK    6  A    between atoms: C_22  and  O_23 
ROOT
HETATM    1  C   UNL     1      41.206 -16.052   4.209  1.00  0.00     0.227 C 
HETATM    2  N   UNL     1      40.531 -16.559   3.108  1.00  0.00    -0.312 N 
HETATM    3  O   UNL     1      41.500 -14.866   4.352  1.00  0.00    -0.273 OA
HETATM    4  H   UNL     1      40.314 -17.548   3.061  1.00  0.00     0.170 HD
ENDROOT
BRANCH   2   5
HETATM    5  C   UNL     1      40.218 -15.774   2.019  1.00  0.00     0.126 A 
HETATM    6  N   UNL     1      39.179 -14.887   1.972  1.00  0.00    -0.262 N 
HETATM    7  H   UNL     1      38.503 -14.704   2.711  1.00  0.00     0.191 HD
HETATM    8  N   UNL     1      39.108 -14.202   0.818  1.00  0.00    -0.172 NA
HETATM    9  C   UNL     1      40.131 -14.668   0.081  1.00  0.00     0.092 A 
HETATM   10  C   UNL     1      40.843 -15.672   0.801  1.00  0.00     0.084 A 
BRANCH   9  11
HETATM   11  C   UNL     1      40.413 -14.140  -1.254  1.00  0.00     0.012 A 
HETATM   12  C   UNL     1      40.974 -14.927  -2.256  1.00  0.00     0.130 A 
HETATM   13  N   UNL     1      41.278 -14.488  -3.505  1.00  0.00    -0.272 NA
HETATM   14  C   UNL     1      41.006 -13.194  -3.774  1.00  0.00     0.116 A 
HETATM   15  C   UNL     1      40.444 -12.324  -2.856  1.00  0.00     0.020 A 
HETATM   16  C   UNL     1      40.144 -12.807  -1.583  1.00  0.00     0.017 A 
ENDBRANCH   9  11
ENDBRANCH   2   5
BRANCH   1  17
HETATM   17  C   UNL     1      41.543 -17.124   5.240  1.00  0.00     0.078 C 
HETATM   18  C   UNL     1      40.866 -16.785   6.570  1.00  0.00     0.020 C 
BRANCH  17  19
HETATM   19  C   UNL     1      43.068 -17.266   5.389  1.00  0.00     0.052 C 
BRANCH  19  20
HETATM   20  C   UNL     1      43.606 -18.472   4.655  1.00  0.00    -0.057 A 
HETATM   21  C   UNL     1      43.212 -18.722   3.334  1.00  0.00     0.010 A 
HETATM   22  C   UNL     1      43.681 -19.852   2.661  1.00  0.00     0.037 A 
HETATM   23  C   UNL     1      44.547 -20.749   3.289  1.00  0.00     0.068 A 
HETATM   24  C   UNL     1      44.947 -20.500   4.602  1.00  0.00     0.037 A 
HETATM   25  C   UNL     1      44.480 -19.369   5.280  1.00  0.00     0.010 A 
BRANCH  23  26
HETATM   26  O   UNL     1      44.921 -21.814   2.517  1.00  0.00    -0.356 OA
HETATM   27  C   UNL     1      44.159 -22.055   1.341  1.00  0.00     0.210 C 
ENDBRANCH  23  26
ENDBRANCH  19  20
ENDBRANCH  17  19
ENDBRANCH   1  17
TORSDOF 6
ENDMDL
MODEL 6
REMARK VINA RESULT:      -7.7      2.754      9.897
REMARK  6 active torsions:
REMARK  status: ('A' for Active; 'I' for Inactive)
REMARK    1  A    between atoms: C_2  and  C_3 
REMARK    2  A    between atoms: C_2  and  C_18 
REMARK       I    between atoms: C_3  and  N_4 
REMARK    3  A    between atoms: N_4  and  C_5 
REMARK    4  A    between atoms: C_9  and  C_10 
REMARK    5  A    between atoms: C_18  and  C_19 
REMARK    6  A    between atoms: C_22  and  O_23 
ROOT
HETATM    1  C   UNL     1      41.581 -14.472  -0.456  1.00  0.00     0.227 C 
HETATM    2  N   UNL     1      41.779 -15.844  -0.510  1.00  0.00    -0.312 N 
HETATM    3  O   UNL     1      41.699 -13.797   0.567  1.00  0.00    -0.273 OA
HETATM    4  H   UNL     1      41.672 -16.335  -1.390  1.00  0.00     0.170 HD
ENDROOT
BRANCH   2   5
HETATM    5  C   UNL     1      42.030 -16.590   0.622  1.00  0.00     0.126 A 
HETATM    6  N   UNL     1      41.271 -16.559   1.759  1.00  0.00    -0.262 N 
HETATM    7  H   UNL     1      40.448 -15.984   1.923  1.00  0.00     0.191 HD
HETATM    8  N   UNL     1      41.690 -17.412   2.709  1.00  0.00    -0.172 NA
HETATM    9  C   UNL     1      42.769 -18.012   2.177  1.00  0.00     0.092 A 
HETATM   10  C   UNL     1      43.023 -17.506   0.869  1.00  0.00     0.084 A 
BRANCH   9  11
HETATM   11  C   UNL     1      43.503 -19.047   2.906  1.00  0.00     0.012 A 
HETATM   12  C   UNL     1      43.899 -18.878   4.230  1.00  0.00     0.130 A 
HETATM   13  N   UNL     1      44.601 -19.791   4.951  1.00  0.00    -0.272 NA
HETATM   14  C   UNL     1      44.924 -20.939   4.319  1.00  0.00     0.116 A 
HETATM   15  C   UNL     1      44.577 -21.215   3.007  1.00  0.00     0.020 A 
HETATM   16  C   UNL     1      43.857 -20.256   2.296  1.00  0.00     0.017 A 
ENDBRANCH   9  11
ENDBRANCH   2   5
BRANCH   1  17
HETATM   17  C   UNL     1      41.207 -13.876  -1.809  1.00  0.00     0.078 C 
HETATM   18  C   UNL     1      42.384 -13.063  -2.352  1.00  0.00     0.020 C 
BRANCH  17  19
HETATM   19  C   UNL     1      39.928 -13.028  -1.687  1.00  0.00     0.052 C 
BRANCH  19  20
HETATM   20  C   UNL     1      38.839 -13.497  -2.624  1.00  0.00    -0.057 A 
HETATM   21  C   UNL     1      37.822 -12.616  -3.013  1.00  0.00     0.010 A 
HETATM   22  C   UNL     1      36.795 -13.051  -3.854  1.00  0.00     0.037 A 
HETATM   23  C   UNL     1      36.766 -14.367  -4.320  1.00  0.00     0.068 A 
HETATM   24  C   UNL     1      37.780 -15.246  -3.942  1.00  0.00     0.037 A 
HETATM   25  C   UNL     1      38.811 -14.813  -3.099  1.00  0.00     0.010 A 
BRANCH  23  26
HETATM   26  O   UNL     1      35.702 -14.660  -5.129  1.00  0.00    -0.356 OA
HETATM   27  C   UNL     1      35.394 -13.720  -6.150  1.00  0.00     0.210 C 
ENDBRANCH  23  26
ENDBRANCH  19  20
ENDBRANCH  17  19
ENDBRANCH   1  17
TORSDOF 6
ENDMDL
MODEL 7
REMARK VINA RESULT:      -7.7      7.999     11.220
REMARK  6 active torsions:
REMARK  status: ('A' for Active; 'I' for Inactive)
REMARK    1  A    between atoms: C_2  and  C_3 
REMARK    2  A    between atoms: C_2  and  C_18 
REMARK       I    between atoms: C_3  and  N_4 
REMARK    3  A    between atoms: N_4  and  C_5 
REMARK    4  A    between atoms: C_9  and  C_10 
REMARK    5  A    between atoms: C_18  and  C_19 
REMARK    6  A    between atoms: C_22  and  O_23 
ROOT
HETATM    1  C   UNL     1      44.011 -12.989   7.837  1.00  0.00     0.227 C 
HETATM    2  N   UNL     1      44.369 -14.323   7.975  1.00  0.00    -0.312 N 
HETATM    3  O   UNL     1      43.222 -12.570   6.992  1.00  0.00    -0.273 OA
HETATM    4  H   UNL     1      45.021 -14.599   8.700  1.00  0.00     0.170 HD
ENDROOT
BRANCH   2   5
HETATM    5  C   UNL     1      43.934 -15.289   7.093  1.00  0.00     0.126 A 
HETATM    6  N   UNL     1      42.672 -15.355   6.570  1.00  0.00    -0.262 N 
HETATM    7  H   UNL     1      41.900 -14.723   6.770  1.00  0.00     0.191 HD
HETATM    8  N   UNL     1      42.504 -16.360   5.695  1.00  0.00    -0.172 NA
HETATM    9  C   UNL     1      43.696 -16.980   5.654  1.00  0.00     0.092 A 
HETATM   10  C   UNL     1      44.616 -16.343   6.536  1.00  0.00     0.084 A 
BRANCH   9  11
HETATM   11  C   UNL     1      43.929 -18.129   4.778  1.00  0.00     0.012 A 
HETATM   12  C   UNL     1      44.652 -19.243   5.197  1.00  0.00     0.130 A 
HETATM   13  N   UNL     1      44.920 -20.327   4.424  1.00  0.00    -0.272 NA
HETATM   14  C   UNL     1      44.439 -20.303   3.163  1.00  0.00     0.116 A 
HETATM   15  C   UNL     1      43.704 -19.251   2.644  1.00  0.00     0.020 A 
HETATM   16  C   UNL     1      43.447 -18.154   3.465  1.00  0.00     0.017 A 
ENDBRANCH   9  11
ENDBRANCH   2   5
BRANCH   1  17
HETATM   17  C   UNL     1      44.699 -12.086   8.856  1.00  0.00     0.078 C 
HETATM   18  C   UNL     1      46.197 -12.021   8.552  1.00  0.00     0.020 C 
BRANCH  17  19
HETATM   19  C   UNL     1      44.421 -12.580  10.286  1.00  0.00     0.052 C 
BRANCH  19  20
HETATM   20  C   UNL     1      43.845 -11.495  11.166  1.00  0.00    -0.057 A 
HETATM   21  C   UNL     1      43.283 -11.822  12.407  1.00  0.00     0.010 A 
HETATM   22  C   UNL     1      42.722 -10.828  13.211  1.00  0.00     0.037 A 
HETATM   23  C   UNL     1      42.712  -9.496  12.795  1.00  0.00     0.068 A 
HETATM   24  C   UNL     1      43.277  -9.164  11.564  1.00  0.00     0.037 A 
HETATM   25  C   UNL     1      43.840 -10.158  10.754  1.00  0.00     0.010 A 
BRANCH  23  26
HETATM   26  O   UNL     1      42.126  -8.629  13.675  1.00  0.00    -0.356 OA
HETATM   27  C   UNL     1      41.122  -9.162  14.529  1.00  0.00     0.210 C 
ENDBRANCH  23  26
ENDBRANCH  19  20
ENDBRANCH  17  19
ENDBRANCH   1  17
TORSDOF 6
ENDMDL
MODEL 8
REMARK VINA RESULT:      -7.7      2.170      2.664
REMARK  6 active torsions:
REMARK  status: ('A' for Active; 'I' for Inactive)
REMARK    1  A    between atoms: C_2  and  C_3 
REMARK    2  A    between atoms: C_2  and  C_18 
REMARK       I    between atoms: C_3  and  N_4 
REMARK    3  A    between atoms: N_4  and  C_5 
REMARK    4  A    between atoms: C_9  and  C_10 
REMARK    5  A    between atoms: C_18  and  C_19 
REMARK    6  A    between atoms: C_22  and  O_23 
ROOT
HETATM    1  C   UNL     1      40.801 -16.017   1.877  1.00  0.00     0.227 C 
HETATM    2  N   UNL     1      41.742 -15.818   0.876  1.00  0.00    -0.312 N 
HETATM    3  O   UNL     1      39.600 -15.782   1.752  1.00  0.00    -0.273 OA
HETATM    4  H   UNL     1      42.715 -16.043   1.047  1.00  0.00     0.170 HD
ENDROOT
BRANCH   2   5
HETATM    5  C   UNL     1      41.412 -15.235  -0.329  1.00  0.00     0.126 A 
HETATM    6  N   UNL     1      40.589 -15.796  -1.266  1.00  0.00    -0.262 N 
HETATM    7  H   UNL     1      40.134 -16.705  -1.207  1.00  0.00     0.191 HD
HETATM    8  N   UNL     1      40.381 -15.013  -2.337  1.00  0.00    -0.172 NA
HETATM    9  C   UNL     1      41.104 -13.905  -2.096  1.00  0.00     0.092 A 
HETATM   10  C   UNL     1      41.781 -14.018  -0.846  1.00  0.00     0.084 A 
BRANCH   9  11
HETATM   11  C   UNL     1      41.114 -12.781  -3.033  1.00  0.00     0.012 A 
HETATM   12  C   UNL     1      39.939 -12.215  -3.520  1.00  0.00     0.130 A 
HETATM   13  N   UNL     1      39.884 -11.187  -4.406  1.00  0.00    -0.272 NA
HETATM   14  C   UNL     1      41.067 -10.693  -4.830  1.00  0.00     0.116 A 
HETATM   15  C   UNL     1      42.294 -11.175  -4.409  1.00  0.00     0.020 A 
HETATM   16  C   UNL     1      42.313 -12.231  -3.499  1.00  0.00     0.017 A 
ENDBRANCH   9  11
ENDBRANCH   2   5
BRANCH   1  17
HETATM   17  C   UNL     1      41.412 -16.571   3.160  1.00  0.00     0.078 C 
HETATM   18  C   UNL     1      41.018 -15.679   4.339  1.00  0.00     0.020 C 
BRANCH  17  19
HETATM   19  C   UNL     1      42.939 -16.698   3.016  1.00  0.00     0.052 C 
BRANCH  19  20
HETATM   20  C   UNL     1      43.410 -18.128   3.144  1.00  0.00    -0.057 A 
HETATM   21  C   UNL     1      43.934 -18.588   4.359  1.00  0.00     0.010 A 
HETATM   22  C   UNL     1      44.399 -19.899   4.476  1.00  0.00     0.037 A 
HETATM   23  C   UNL     1      44.348 -20.773   3.388  1.00  0.00     0.068 A 
HETATM   24  C   UNL     1      43.820 -20.323   2.179  1.00  0.00     0.037 A 
HETATM   25  C   UNL     1      43.353 -19.008   2.058  1.00  0.00     0.010 A 
BRANCH  23  26
HETATM   26  O   UNL     1      44.843 -22.023   3.639  1.00  0.00    -0.356 OA
HETATM   27  C   UNL     1      45.012 -22.385   5.004  1.00  0.00     0.210 C 
ENDBRANCH  23  26
ENDBRANCH  19  20
ENDBRANCH  17  19
ENDBRANCH   1  17
TORSDOF 6
ENDMDL
MODEL 9
REMARK VINA RESULT:      -7.7      7.928     11.310
REMARK  6 active torsions:
REMARK  status: ('A' for Active; 'I' for Inactive)
REMARK    1  A    between atoms: C_2  and  C_3 
REMARK    2  A    between atoms: C_2  and  C_18 
REMARK       I    between atoms: C_3  and  N_4 
REMARK    3  A    between atoms: N_4  and  C_5 
REMARK    4  A    between atoms: C_9  and  C_10 
REMARK    5  A    between atoms: C_18  and  C_19 
REMARK    6  A    between atoms: C_22  and  O_23 
ROOT
HETATM    1  C   UNL     1      44.112 -13.612   7.200  1.00  0.00     0.227 C 
HETATM    2  N   UNL     1      43.302 -12.548   7.570  1.00  0.00    -0.312 N 
HETATM    3  O   UNL     1      45.089 -13.992   7.843  1.00  0.00    -0.273 OA
HETATM    4  H   UNL     1      42.507 -12.294   6.995  1.00  0.00     0.170 HD
ENDROOT
BRANCH   2   5
HETATM    5  C   UNL     1      43.595 -11.753   8.658  1.00  0.00     0.126 A 
HETATM    6  N   UNL     1      44.849 -11.322   8.993  1.00  0.00    -0.262 N 
HETATM    7  H   UNL     1      45.714 -11.539   8.504  1.00  0.00     0.191 HD
HETATM    8  N   UNL     1      44.872 -10.518  10.069  1.00  0.00    -0.172 NA
HETATM    9  C   UNL     1      43.588 -10.431  10.458  1.00  0.00     0.092 A 
HETATM   10  C   UNL     1      42.757 -11.211   9.601  1.00  0.00     0.084 A 
BRANCH   9  11
HETATM   11  C   UNL     1      43.190  -9.606  11.599  1.00  0.00     0.012 A 
HETATM   12  C   UNL     1      42.429  -8.450  11.445  1.00  0.00     0.130 A 
HETATM   13  N   UNL     1      42.049  -7.633  12.462  1.00  0.00    -0.272 NA
HETATM   14  C   UNL     1      42.445  -7.989  13.702  1.00  0.00     0.116 A 
HETATM   15  C   UNL     1      43.198  -9.119  13.971  1.00  0.00     0.020 A 
HETATM   16  C   UNL     1      43.572  -9.935  12.904  1.00  0.00     0.017 A 
ENDBRANCH   9  11
ENDBRANCH   2   5
BRANCH   1  17
HETATM   17  C   UNL     1      43.658 -14.276   5.904  1.00  0.00     0.078 C 
HETATM   18  C   UNL     1      42.944 -13.246   5.026  1.00  0.00     0.020 C 
BRANCH  17  19
HETATM   19  C   UNL     1      42.767 -15.494   6.208  1.00  0.00     0.052 C 
BRANCH  19  20
HETATM   20  C   UNL     1      43.350 -16.779   5.668  1.00  0.00    -0.057 A 
HETATM   21  C   UNL     1      44.411 -17.403   6.337  1.00  0.00     0.010 A 
HETATM   22  C   UNL     1      44.975 -18.574   5.827  1.00  0.00     0.037 A 
HETATM   23  C   UNL     1      44.493 -19.142   4.646  1.00  0.00     0.068 A 
HETATM   24  C   UNL     1      43.432 -18.528   3.980  1.00  0.00     0.037 A 
HETATM   25  C   UNL     1      42.864 -17.354   4.488  1.00  0.00     0.010 A 
BRANCH  23  26
HETATM   26  O   UNL     1      45.140 -20.282   4.257  1.00  0.00    -0.356 OA
HETATM   27  C   UNL     1      44.674 -20.913   3.071  1.00  0.00     0.210 C 
ENDBRANCH  23  26
ENDBRANCH  19  20
ENDBRANCH  17  19
ENDBRANCH   1  17
TORSDOF 6
ENDMDL
MODEL 10
REMARK VINA RESULT:      -7.7      8.735     11.646
REMARK  6 active torsions:
REMARK  status: ('A' for Active; 'I' for Inactive)
REMARK    1  A    between atoms: C_2  and  C_3 
REMARK    2  A    between atoms: C_2  and  C_18 
REMARK       I    between atoms: C_3  and  N_4 
REMARK    3  A    between atoms: N_4  and  C_5 
REMARK    4  A    between atoms: C_9  and  C_10 
REMARK    5  A    between atoms: C_18  and  C_19 
REMARK    6  A    between atoms: C_22  and  O_23 
ROOT
HETATM    1  C   UNL     1      43.808 -11.693   8.860  1.00  0.00     0.227 C 
HETATM    2  N   UNL     1      44.402 -12.892   8.494  1.00  0.00    -0.312 N 
HETATM    3  O   UNL     1      42.784 -11.245   8.346  1.00  0.00    -0.273 OA
HETATM    4  H   UNL     1      45.242 -13.205   8.967  1.00  0.00     0.170 HD
ENDROOT
BRANCH   2   5
HETATM    5  C   UNL     1      43.938 -13.642   7.434  1.00  0.00     0.126 A 
HETATM    6  N   UNL     1      43.047 -13.197   6.496  1.00  0.00    -0.262 N 
HETATM    7  H   UNL     1      42.607 -12.280   6.466  1.00  0.00     0.191 HD
HETATM    8  N   UNL     1      42.785 -14.096   5.534  1.00  0.00    -0.172 NA
HETATM    9  C   UNL     1      43.522 -15.172   5.861  1.00  0.00     0.092 A 
HETATM   10  C   UNL     1      44.248 -14.927   7.063  1.00  0.00     0.084 A 
BRANCH   9  11
HETATM   11  C   UNL     1      43.532 -16.374   5.026  1.00  0.00     0.012 A 
HETATM   12  C   UNL     1      43.158 -16.344   3.685  1.00  0.00     0.130 A 
HETATM   13  N   UNL     1      43.126 -17.427   2.866  1.00  0.00    -0.272 NA
HETATM   14  C   UNL     1      43.489 -18.607   3.413  1.00  0.00     0.116 A 
HETATM   15  C   UNL     1      43.882 -18.752   4.732  1.00  0.00     0.020 A 
HETATM   16  C   UNL     1      43.904 -17.619   5.544  1.00  0.00     0.017 A 
ENDBRANCH   9  11
ENDBRANCH   2   5
BRANCH   1  17
HETATM   17  C   UNL     1      44.556 -10.983   9.984  1.00  0.00     0.078 C 
HETATM   18  C   UNL     1      46.045 -10.910   9.638  1.00  0.00     0.020 C 
BRANCH  17  19
HETATM   19  C   UNL     1      44.309 -11.692  11.327  1.00  0.00     0.052 C 
BRANCH  19  20
HETATM   20  C   UNL     1      43.326 -10.944  12.197  1.00  0.00    -0.057 A 
HETATM   21  C   UNL     1      43.720  -9.767  12.846  1.00  0.00     0.010 A 
HETATM   22  C   UNL     1      42.826  -9.087  13.676  1.00  0.00     0.037 A 
HETATM   23  C   UNL     1      41.529  -9.566  13.872  1.00  0.00     0.068 A 
HETATM   24  C   UNL     1      41.131 -10.733  13.222  1.00  0.00     0.037 A 
HETATM   25  C   UNL     1      42.024 -11.418  12.389  1.00  0.00     0.010 A 
BRANCH  23  26
HETATM   26  O   UNL     1      40.764  -8.807  14.714  1.00  0.00    -0.356 OA
HETATM   27  C   UNL     1      39.946  -7.810  14.115  1.00  0.00     0.210 C 
ENDBRANCH  23  26
ENDBRANCH  19  20
ENDBRANCH  17  19
ENDBRANCH   1  17
TORSDOF 6
ENDMDL
