MODEL 1
REMARK VINA RESULT:      -8.7      0.000      0.000
REMARK  9 active torsions:
REMARK  status: ('A' for Active; 'I' for Inactive)
REMARK    1  A    between atoms: C_2  and  N_3 
REMARK    2  A    between atoms: C_2  and  C_23 
REMARK       I    between atoms: N_3  and  C_4 
REMARK       I    between atoms: C_4  and  N_5 
REMARK    3  A    between atoms: N_5  and  C_6 
REMARK    4  A    between atoms: C_6  and  C_7 
REMARK    5  A    between atoms: C_7  and  N_8 
REMARK    6  A    between atoms: C_7  and  C_14 
REMARK    7  A    between atoms: C_15  and  O_16 
REMARK    8  A    between atoms: C_23  and  C_24 
REMARK    9  A    between atoms: C_27  and  O_28 
ROOT
HETATM    1  N   UNL     1      39.578 -15.004   0.618  1.00  0.00    -0.339 N 
HETATM    2  C   UNL     1      40.790 -15.002   1.244  1.00  0.00     0.316 C 
HETATM    3  N   UNL     1      41.242 -16.277   1.501  1.00  0.00    -0.341 N 
HETATM    4  O   UNL     1      41.462 -14.013   1.492  1.00  0.00    -0.248 OA
HETATM    5  H   UNL     1      39.036 -15.854   0.685  1.00  0.00     0.164 HD
HETATM    6  H   UNL     1      40.491 -16.926   1.705  1.00  0.00     0.164 HD
ENDROOT
BRANCH   3   7
HETATM    7  C   UNL     1      42.452 -16.441   2.316  1.00  0.00     0.162 C 
BRANCH   7   8
HETATM    8  C   UNL     1      42.319 -17.538   3.427  1.00  0.00     0.241 C 
BRANCH   8   9
HETATM    9  N   UNL     1      42.536 -16.857   4.790  1.00  0.00    -0.061 N 
HETATM   10  H   UNL     1      43.421 -17.287   5.100  1.00  0.00     0.280 HD
HETATM   11  C   UNL     1      41.515 -17.064   5.860  1.00  0.00     0.236 C 
HETATM   12  C   UNL     1      40.625 -15.839   5.806  1.00  0.00     0.029 C 
HETATM   13  C   UNL     1      41.430 -14.753   5.106  1.00  0.00     0.029 C 
HETATM   14  C   UNL     1      42.764 -15.374   4.733  1.00  0.00     0.236 C 
ENDBRANCH   8   9
BRANCH   8  15
HETATM   15  C   UNL     1      43.135 -18.794   3.163  1.00  0.00     0.007 A 
HETATM   16  C   UNL     1      44.177 -19.160   4.046  1.00  0.00     0.076 A 
HETATM   17  C   UNL     1      44.934 -20.312   3.808  1.00  0.00     0.037 A 
HETATM   18  C   UNL     1      44.652 -21.127   2.713  1.00  0.00     0.003 A 
HETATM   19  C   UNL     1      43.619 -20.792   1.846  1.00  0.00     0.001 A 
HETATM   20  C   UNL     1      42.868 -19.636   2.066  1.00  0.00     0.012 A 
BRANCH  16  21
HETATM   21  O   UNL     1      44.415 -18.310   5.094  1.00  0.00    -0.355 OA
HETATM   22  C   UNL     1      44.728 -18.917   6.348  1.00  0.00     0.210 C 
ENDBRANCH  16  21
ENDBRANCH   8  15
ENDBRANCH   7   8
ENDBRANCH   3   7
BRANCH   1  23
HETATM   23  C   UNL     1      38.757 -13.795   0.465  1.00  0.00     0.086 C 
HETATM   24  C   UNL     1      37.270 -14.042   0.717  1.00  0.00     0.032 C 
BRANCH  23  25
HETATM   25  C   UNL     1      38.988 -13.106  -0.898  1.00  0.00     0.063 C 
BRANCH  25  26
HETATM   26  C   UNL     1      38.983 -14.092  -2.048  1.00  0.00    -0.056 A 
HETATM   27  C   UNL     1      40.175 -14.702  -2.469  1.00  0.00     0.010 A 
HETATM   28  C   UNL     1      40.178 -15.578  -3.557  1.00  0.00     0.037 A 
HETATM   29  C   UNL     1      38.988 -15.843  -4.225  1.00  0.00     0.065 A 
HETATM   30  C   UNL     1      37.798 -15.253  -3.820  1.00  0.00     0.037 A 
HETATM   31  C   UNL     1      37.793 -14.384  -2.729  1.00  0.00     0.010 A 
BRANCH  29  32
HETATM   32  O   UNL     1      38.945 -16.685  -5.296  1.00  0.00    -0.361 OA
HETATM   33  H   UNL     1      38.343 -17.420  -5.097  1.00  0.00     0.217 HD
ENDBRANCH  29  32
ENDBRANCH  25  26
ENDBRANCH  23  25
ENDBRANCH   1  23
TORSDOF 9
ENDMDL
MODEL 2
REMARK VINA RESULT:      -8.7      2.810      8.047
REMARK  9 active torsions:
REMARK  status: ('A' for Active; 'I' for Inactive)
REMARK    1  A    between atoms: C_2  and  N_3 
REMARK    2  A    between atoms: C_2  and  C_23 
REMARK       I    between atoms: N_3  and  C_4 
REMARK       I    between atoms: C_4  and  N_5 
REMARK    3  A    between atoms: N_5  and  C_6 
REMARK    4  A    between atoms: C_6  and  C_7 
REMARK    5  A    between atoms: C_7  and  N_8 
REMARK    6  A    between atoms: C_7  and  C_14 
REMARK    7  A    between atoms: C_15  and  O_16 
REMARK    8  A    between atoms: C_23  and  C_24 
REMARK    9  A    between atoms: C_27  and  O_28 
ROOT
HETATM    1  N   UNL     1      43.210 -19.090   3.246  1.00  0.00    -0.339 N 
HETATM    2  C   UNL     1      42.816 -18.046   2.461  1.00  0.00     0.316 C 
HETATM    3  N   UNL     1      41.596 -17.539   2.848  1.00  0.00    -0.341 N 
HETATM    4  O   UNL     1      43.474 -17.543   1.563  1.00  0.00    -0.248 OA
HETATM    5  H   UNL     1      42.489 -19.549   3.783  1.00  0.00     0.164 HD
HETATM    6  H   UNL     1      40.974 -18.250   3.214  1.00  0.00     0.164 HD
ENDROOT
BRANCH   3   7
HETATM    7  C   UNL     1      40.959 -16.522   2.002  1.00  0.00     0.162 C 
BRANCH   7   8
HETATM    8  C   UNL     1      40.770 -15.140   2.714  1.00  0.00     0.241 C 
BRANCH   8   9
HETATM    9  N   UNL     1      40.453 -14.092   1.630  1.00  0.00    -0.061 N 
HETATM   10  H   UNL     1      41.382 -13.941   1.208  1.00  0.00     0.280 HD
HETATM   11  C   UNL     1      39.914 -12.766   2.059  1.00  0.00     0.236 C 
HETATM   12  C   UNL     1      38.413 -12.868   1.876  1.00  0.00     0.029 C 
HETATM   13  C   UNL     1      38.176 -14.000   0.886  1.00  0.00     0.029 C 
HETATM   14  C   UNL     1      39.541 -14.562   0.535  1.00  0.00     0.236 C 
ENDBRANCH   8   9
BRANCH   8  15
HETATM   15  C   UNL     1      41.880 -14.784   3.690  1.00  0.00     0.007 A 
HETATM   16  C   UNL     1      41.753 -15.117   5.058  1.00  0.00     0.076 A 
HETATM   17  C   UNL     1      42.769 -14.792   5.963  1.00  0.00     0.037 A 
HETATM   18  C   UNL     1      43.930 -14.159   5.521  1.00  0.00     0.003 A 
HETATM   19  C   UNL     1      44.079 -13.841   4.177  1.00  0.00     0.001 A 
HETATM   20  C   UNL     1      43.063 -14.149   3.269  1.00  0.00     0.012 A 
BRANCH  16  21
HETATM   21  O   UNL     1      40.583 -15.724   5.433  1.00  0.00    -0.355 OA
HETATM   22  C   UNL     1      40.693 -16.809   6.353  1.00  0.00     0.210 C 
ENDBRANCH  16  21
ENDBRANCH   8  15
ENDBRANCH   7   8
ENDBRANCH   3   7
BRANCH   1  23
HETATM   23  C   UNL     1      44.332 -19.972   2.896  1.00  0.00     0.086 C 
HETATM   24  C   UNL     1      43.928 -21.123   1.975  1.00  0.00     0.032 C 
BRANCH  23  25
HETATM   25  C   UNL     1      45.073 -20.492   4.149  1.00  0.00     0.063 C 
BRANCH  25  26
HETATM   26  C   UNL     1      44.662 -19.754   5.407  1.00  0.00    -0.056 A 
HETATM   27  C   UNL     1      45.050 -18.421   5.610  1.00  0.00     0.010 A 
HETATM   28  C   UNL     1      44.708 -17.754   6.789  1.00  0.00     0.037 A 
HETATM   29  C   UNL     1      43.980 -18.423   7.766  1.00  0.00     0.065 A 
HETATM   30  C   UNL     1      43.583 -19.742   7.581  1.00  0.00     0.037 A 
HETATM   31  C   UNL     1      43.918 -20.405   6.401  1.00  0.00     0.010 A 
BRANCH  29  32
HETATM   32  O   UNL     1      43.631 -17.816   8.935  1.00  0.00    -0.361 OA
HETATM   33  H   UNL     1      44.392 -17.314   9.271  1.00  0.00     0.217 HD
ENDBRANCH  29  32
ENDBRANCH  25  26
ENDBRANCH  23  25
ENDBRANCH   1  23
TORSDOF 9
ENDMDL
MODEL 3
REMARK VINA RESULT:      -8.6      6.137     10.743
REMARK  9 active torsions:
REMARK  status: ('A' for Active; 'I' for Inactive)
REMARK    1  A    between atoms: C_2  and  N_3 
REMARK    2  A    between atoms: C_2  and  C_23 
REMARK       I    between atoms: N_3  and  C_4 
REMARK       I    between atoms: C_4  and  N_5 
REMARK    3  A    between atoms: N_5  and  C_6 
REMARK    4  A    between atoms: C_6  and  C_7 
REMARK    5  A    between atoms: C_7  and  N_8 
REMARK    6  A    between atoms: C_7  and  C_14 
REMARK    7  A    between atoms: C_15  and  O_16 
REMARK    8  A    between atoms: C_23  and  C_24 
REMARK    9  A    between atoms: C_27  and  O_28 
ROOT
HETATM    1  N   UNL     1      43.795 -12.101   9.167  1.00  0.00    -0.339 N 
HETATM    2  C   UNL     1      44.632 -12.896   8.441  1.00  0.00     0.316 C 
HETATM    3  N   UNL     1      43.958 -13.620   7.483  1.00  0.00    -0.341 N 
HETATM    4  O   UNL     1      45.848 -12.932   8.545  1.00  0.00    -0.248 OA
HETATM    5  H   UNL     1      42.813 -12.337   9.144  1.00  0.00     0.164 HD
HETATM    6  H   UNL     1      43.024 -13.884   7.776  1.00  0.00     0.164 HD
ENDROOT
BRANCH   3   7
HETATM    7  C   UNL     1      44.693 -14.644   6.732  1.00  0.00     0.162 C 
BRANCH   7   8
HETATM    8  C   UNL     1      43.789 -15.495   5.777  1.00  0.00     0.241 C 
BRANCH   8   9
HETATM    9  N   UNL     1      42.410 -14.813   5.703  1.00  0.00    -0.061 N 
HETATM   10  H   UNL     1      42.438 -14.196   6.529  1.00  0.00     0.280 HD
HETATM   11  C   UNL     1      41.188 -15.667   5.799  1.00  0.00     0.236 C 
HETATM   12  C   UNL     1      40.743 -15.890   4.367  1.00  0.00     0.029 C 
HETATM   13  C   UNL     1      41.368 -14.772   3.544  1.00  0.00     0.029 C 
HETATM   14  C   UNL     1      42.195 -13.936   4.504  1.00  0.00     0.236 C 
ENDBRANCH   8   9
BRANCH   8  15
HETATM   15  C   UNL     1      43.788 -16.984   6.083  1.00  0.00     0.007 A 
HETATM   16  C   UNL     1      43.861 -17.924   5.029  1.00  0.00     0.076 A 
HETATM   17  C   UNL     1      43.858 -19.296   5.303  1.00  0.00     0.037 A 
HETATM   18  C   UNL     1      43.811 -19.752   6.619  1.00  0.00     0.003 A 
HETATM   19  C   UNL     1      43.757 -18.841   7.668  1.00  0.00     0.001 A 
HETATM   20  C   UNL     1      43.745 -17.470   7.404  1.00  0.00     0.012 A 
BRANCH  16  21
HETATM   21  O   UNL     1      43.890 -17.414   3.758  1.00  0.00    -0.355 OA
HETATM   22  C   UNL     1      43.164 -18.138   2.764  1.00  0.00     0.210 C 
ENDBRANCH  16  21
ENDBRANCH   8  15
ENDBRANCH   7   8
ENDBRANCH   3   7
BRANCH   1  23
HETATM   23  C   UNL     1      44.207 -11.431  10.408  1.00  0.00     0.086 C 
HETATM   24  C   UNL     1      44.245 -12.369  11.614  1.00  0.00     0.032 C 
BRANCH  23  25
HETATM   25  C   UNL     1      43.353 -10.177  10.701  1.00  0.00     0.063 C 
BRANCH  25  26
HETATM   26  C   UNL     1      42.845 -10.148  12.128  1.00  0.00    -0.056 A 
HETATM   27  C   UNL     1      41.647 -10.794  12.471  1.00  0.00     0.010 A 
HETATM   28  C   UNL     1      41.156 -10.732  13.777  1.00  0.00     0.037 A 
HETATM   29  C   UNL     1      41.863 -10.020  14.740  1.00  0.00     0.065 A 
HETATM   30  C   UNL     1      43.053  -9.379  14.420  1.00  0.00     0.037 A 
HETATM   31  C   UNL     1      43.548  -9.447  13.118  1.00  0.00     0.010 A 
BRANCH  29  32
HETATM   32  O   UNL     1      41.418  -9.925  16.024  1.00  0.00    -0.361 OA
HETATM   33  H   UNL     1      40.752  -9.221  16.078  1.00  0.00     0.217 HD
ENDBRANCH  29  32
ENDBRANCH  25  26
ENDBRANCH  23  25
ENDBRANCH   1  23
TORSDOF 9
ENDMDL
MODEL 4
REMARK VINA RESULT:      -8.5      2.342      8.664
REMARK  9 active torsions:
REMARK  status: ('A' for Active; 'I' for Inactive)
REMARK    1  A    between atoms: C_2  and  N_3 
REMARK    2  A    between atoms: C_2  and  C_23 
REMARK       I    between atoms: N_3  and  C_4 
REMARK       I    between atoms: C_4  and  N_5 
REMARK    3  A    between atoms: N_5  and  C_6 
REMARK    4  A    between atoms: C_6  and  C_7 
REMARK    5  A    between atoms: C_7  and  N_8 
REMARK    6  A    between atoms: C_7  and  C_14 
REMARK    7  A    between atoms: C_15  and  O_16 
REMARK    8  A    between atoms: C_23  and  C_24 
REMARK    9  A    between atoms: C_27  and  O_28 
ROOT
HETATM    1  N   UNL     1      42.344 -16.033   2.329  1.00  0.00    -0.339 N 
HETATM    2  C   UNL     1      41.408 -15.715   1.389  1.00  0.00     0.316 C 
HETATM    3  N   UNL     1      41.298 -14.354   1.209  1.00  0.00    -0.341 N 
HETATM    4  O   UNL     1      40.780 -16.512   0.711  1.00  0.00    -0.248 OA
HETATM    5  H   UNL     1      42.612 -15.298   2.968  1.00  0.00     0.164 HD
HETATM    6  H   UNL     1      41.457 -13.831   2.062  1.00  0.00     0.164 HD
ENDROOT
BRANCH   3   7
HETATM    7  C   UNL     1      40.220 -13.845   0.352  1.00  0.00     0.162 C 
BRANCH   7   8
HETATM    8  C   UNL     1      40.657 -13.601  -1.132  1.00  0.00     0.241 C 
BRANCH   8   9
HETATM    9  N   UNL     1      40.689 -12.079  -1.369  1.00  0.00    -0.061 N 
HETATM   10  H   UNL     1      39.686 -11.840  -1.321  1.00  0.00     0.280 HD
HETATM   11  C   UNL     1      41.229 -11.573  -2.666  1.00  0.00     0.236 C 
HETATM   12  C   UNL     1      42.665 -11.185  -2.376  1.00  0.00     0.029 C 
HETATM   13  C   UNL     1      42.760 -10.978  -0.871  1.00  0.00     0.029 C 
HETATM   14  C   UNL     1      41.385 -11.282  -0.305  1.00  0.00     0.236 C 
ENDBRANCH   8   9
BRANCH   8  15
HETATM   15  C   UNL     1      39.887 -14.425  -2.152  1.00  0.00     0.007 A 
HETATM   16  C   UNL     1      38.568 -14.061  -2.508  1.00  0.00     0.076 A 
HETATM   17  C   UNL     1      37.853 -14.816  -3.443  1.00  0.00     0.037 A 
HETATM   18  C   UNL     1      38.443 -15.922  -4.055  1.00  0.00     0.003 A 
HETATM   19  C   UNL     1      39.745 -16.282  -3.731  1.00  0.00     0.001 A 
HETATM   20  C   UNL     1      40.461 -15.543  -2.787  1.00  0.00     0.012 A 
BRANCH  16  21
HETATM   21  O   UNL     1      38.040 -12.975  -1.860  1.00  0.00    -0.355 OA
HETATM   22  C   UNL     1      37.221 -12.104  -2.640  1.00  0.00     0.210 C 
ENDBRANCH  16  21
ENDBRANCH   8  15
ENDBRANCH   7   8
ENDBRANCH   3   7
BRANCH   1  23
HETATM   23  C   UNL     1      42.476 -17.381   2.898  1.00  0.00     0.086 C 
HETATM   24  C   UNL     1      41.641 -17.585   4.161  1.00  0.00     0.032 C 
BRANCH  23  25
HETATM   25  C   UNL     1      43.953 -17.768   3.135  1.00  0.00     0.063 C 
BRANCH  25  26
HETATM   26  C   UNL     1      44.142 -19.266   3.259  1.00  0.00    -0.056 A 
HETATM   27  C   UNL     1      44.641 -19.826   4.446  1.00  0.00     0.010 A 
HETATM   28  C   UNL     1      44.855 -21.202   4.545  1.00  0.00     0.037 A 
HETATM   29  C   UNL     1      44.573 -22.019   3.456  1.00  0.00     0.065 A 
HETATM   30  C   UNL     1      44.075 -21.483   2.275  1.00  0.00     0.037 A 
HETATM   31  C   UNL     1      43.853 -20.110   2.177  1.00  0.00     0.010 A 
BRANCH  29  32
HETATM   32  O   UNL     1      44.775 -23.366   3.504  1.00  0.00    -0.361 OA
HETATM   33  H   UNL     1      44.596 -23.681   4.405  1.00  0.00     0.217 HD
ENDBRANCH  29  32
ENDBRANCH  25  26
ENDBRANCH  23  25
ENDBRANCH   1  23
TORSDOF 9
ENDMDL
MODEL 5
REMARK VINA RESULT:      -8.5      2.357      8.791
REMARK  9 active torsions:
REMARK  status: ('A' for Active; 'I' for Inactive)
REMARK    1  A    between atoms: C_2  and  N_3 
REMARK    2  A    between atoms: C_2  and  C_23 
REMARK       I    between atoms: N_3  and  C_4 
REMARK       I    between atoms: C_4  and  N_5 
REMARK    3  A    between atoms: N_5  and  C_6 
REMARK    4  A    between atoms: C_6  and  C_7 
REMARK    5  A    between atoms: C_7  and  N_8 
REMARK    6  A    between atoms: C_7  and  C_14 
REMARK    7  A    between atoms: C_15  and  O_16 
REMARK    8  A    between atoms: C_23  and  C_24 
REMARK    9  A    between atoms: C_27  and  O_28 
ROOT
HETATM    1  N   UNL     1      42.746 -16.809   2.015  1.00  0.00    -0.339 N 
HETATM    2  C   UNL     1      41.862 -16.890   0.980  1.00  0.00     0.316 C 
HETATM    3  N   UNL     1      42.135 -15.970  -0.008  1.00  0.00    -0.341 N 
HETATM    4  O   UNL     1      40.969 -17.716   0.868  1.00  0.00    -0.248 OA
HETATM    5  H   UNL     1      43.273 -15.951   2.094  1.00  0.00     0.164 HD
HETATM    6  H   UNL     1      42.517 -15.105   0.356  1.00  0.00     0.164 HD
ENDROOT
BRANCH   3   7
HETATM    7  C   UNL     1      41.178 -15.819  -1.111  1.00  0.00     0.162 C 
BRANCH   7   8
HETATM    8  C   UNL     1      40.831 -14.329  -1.444  1.00  0.00     0.241 C 
BRANCH   8   9
HETATM    9  N   UNL     1      42.118 -13.498  -1.282  1.00  0.00    -0.061 N 
HETATM   10  H   UNL     1      42.753 -14.182  -0.842  1.00  0.00     0.280 HD
HETATM   11  C   UNL     1      42.074 -12.279  -0.421  1.00  0.00     0.236 C 
HETATM   12  C   UNL     1      41.887 -11.119  -1.379  1.00  0.00     0.029 C 
HETATM   13  C   UNL     1      42.347 -11.612  -2.745  1.00  0.00     0.029 C 
HETATM   14  C   UNL     1      42.761 -13.061  -2.566  1.00  0.00     0.236 C 
ENDBRANCH   8   9
BRANCH   8  15
HETATM   15  C   UNL     1      39.596 -13.802  -0.730  1.00  0.00     0.007 A 
HETATM   16  C   UNL     1      38.677 -12.978  -1.419  1.00  0.00     0.076 A 
HETATM   17  C   UNL     1      37.540 -12.489  -0.769  1.00  0.00     0.037 A 
HETATM   18  C   UNL     1      37.285 -12.829   0.559  1.00  0.00     0.003 A 
HETATM   19  C   UNL     1      38.169 -13.654   1.245  1.00  0.00     0.001 A 
HETATM   20  C   UNL     1      39.314 -14.135   0.609  1.00  0.00     0.012 A 
BRANCH  16  21
HETATM   21  O   UNL     1      38.991 -12.667  -2.716  1.00  0.00    -0.355 OA
HETATM   22  C   UNL     1      37.896 -12.531  -3.622  1.00  0.00     0.210 C 
ENDBRANCH  16  21
ENDBRANCH   8  15
ENDBRANCH   7   8
ENDBRANCH   3   7
BRANCH   1  23
HETATM   23  C   UNL     1      42.532 -17.486   3.301  1.00  0.00     0.086 C 
HETATM   24  C   UNL     1      41.625 -16.703   4.250  1.00  0.00     0.032 C 
BRANCH  23  25
HETATM   25  C   UNL     1      43.865 -17.864   3.986  1.00  0.00     0.063 C 
BRANCH  25  26
HETATM   26  C   UNL     1      44.173 -19.343   3.866  1.00  0.00    -0.056 A 
HETATM   27  C   UNL     1      44.062 -19.996   2.630  1.00  0.00     0.010 A 
HETATM   28  C   UNL     1      44.305 -21.368   2.528  1.00  0.00     0.037 A 
HETATM   29  C   UNL     1      44.657 -22.087   3.664  1.00  0.00     0.065 A 
HETATM   30  C   UNL     1      44.776 -21.456   4.897  1.00  0.00     0.037 A 
HETATM   31  C   UNL     1      44.541 -20.085   4.998  1.00  0.00     0.010 A 
BRANCH  29  32
HETATM   32  O   UNL     1      44.895 -23.427   3.614  1.00  0.00    -0.361 OA
HETATM   33  H   UNL     1      44.920 -23.710   2.686  1.00  0.00     0.217 HD
ENDBRANCH  29  32
ENDBRANCH  25  26
ENDBRANCH  23  25
ENDBRANCH   1  23
TORSDOF 9
ENDMDL
MODEL 6
REMARK VINA RESULT:      -8.5      2.349      8.531
REMARK  9 active torsions:
REMARK  status: ('A' for Active; 'I' for Inactive)
REMARK    1  A    between atoms: C_2  and  N_3 
REMARK    2  A    between atoms: C_2  and  C_23 
REMARK       I    between atoms: N_3  and  C_4 
REMARK       I    between atoms: C_4  and  N_5 
REMARK    3  A    between atoms: N_5  and  C_6 
REMARK    4  A    between atoms: C_6  and  C_7 
REMARK    5  A    between atoms: C_7  and  N_8 
REMARK    6  A    between atoms: C_7  and  C_14 
REMARK    7  A    between atoms: C_15  and  O_16 
REMARK    8  A    between atoms: C_23  and  C_24 
REMARK    9  A    between atoms: C_27  and  O_28 
ROOT
HETATM    1  N   UNL     1      41.261 -17.385   1.338  1.00  0.00    -0.339 N 
HETATM    2  C   UNL     1      41.590 -16.385   0.471  1.00  0.00     0.316 C 
HETATM    3  N   UNL     1      40.863 -16.453  -0.697  1.00  0.00    -0.341 N 
HETATM    4  O   UNL     1      42.372 -15.475   0.696  1.00  0.00    -0.248 OA
HETATM    5  H   UNL     1      40.789 -18.187   0.946  1.00  0.00     0.164 HD
HETATM    6  H   UNL     1      40.649 -17.405  -0.971  1.00  0.00     0.164 HD
ENDROOT
BRANCH   3   7
HETATM    7  C   UNL     1      41.217 -15.548  -1.797  1.00  0.00     0.162 C 
BRANCH   7   8
HETATM    8  C   UNL     1      40.388 -14.219  -1.810  1.00  0.00     0.241 C 
BRANCH   8   9
HETATM    9  N   UNL     1      39.768 -14.064  -3.211  1.00  0.00    -0.061 N 
HETATM   10  H   UNL     1      40.602 -13.872  -3.788  1.00  0.00     0.280 HD
HETATM   11  C   UNL     1      38.782 -12.965  -3.435  1.00  0.00     0.236 C 
HETATM   12  C   UNL     1      37.420 -13.619  -3.310  1.00  0.00     0.029 C 
HETATM   13  C   UNL     1      37.635 -15.108  -3.542  1.00  0.00     0.029 C 
HETATM   14  C   UNL     1      39.124 -15.302  -3.764  1.00  0.00     0.236 C 
ENDBRANCH   8   9
BRANCH   8  15
HETATM   15  C   UNL     1      41.138 -13.012  -1.268  1.00  0.00     0.007 A 
HETATM   16  C   UNL     1      40.672 -12.350  -0.109  1.00  0.00     0.076 A 
HETATM   17  C   UNL     1      41.355 -11.237   0.393  1.00  0.00     0.037 A 
HETATM   18  C   UNL     1      42.518 -10.785  -0.227  1.00  0.00     0.003 A 
HETATM   19  C   UNL     1      43.001 -11.436  -1.356  1.00  0.00     0.001 A 
HETATM   20  C   UNL     1      42.317 -12.538  -1.874  1.00  0.00     0.012 A 
BRANCH  16  21
HETATM   21  O   UNL     1      39.515 -12.832   0.445  1.00  0.00    -0.355 OA
HETATM   22  C   UNL     1      39.627 -13.426   1.738  1.00  0.00     0.210 C 
ENDBRANCH  16  21
ENDBRANCH   8  15
ENDBRANCH   7   8
ENDBRANCH   3   7
BRANCH   1  23
HETATM   23  C   UNL     1      42.058 -17.699   2.532  1.00  0.00     0.086 C 
HETATM   24  C   UNL     1      42.021 -16.594   3.587  1.00  0.00     0.032 C 
BRANCH  23  25
HETATM   25  C   UNL     1      43.511 -18.084   2.175  1.00  0.00     0.063 C 
BRANCH  25  26
HETATM   26  C   UNL     1      43.850 -19.500   2.593  1.00  0.00    -0.056 A 
HETATM   27  C   UNL     1      44.472 -19.750   3.826  1.00  0.00     0.010 A 
HETATM   28  C   UNL     1      44.823 -21.051   4.193  1.00  0.00     0.037 A 
HETATM   29  C   UNL     1      44.553 -22.103   3.325  1.00  0.00     0.065 A 
HETATM   30  C   UNL     1      43.934 -21.876   2.102  1.00  0.00     0.037 A 
HETATM   31  C   UNL     1      43.576 -20.578   1.738  1.00  0.00     0.010 A 
BRANCH  29  32
HETATM   32  O   UNL     1      44.885 -23.387   3.637  1.00  0.00    -0.361 OA
HETATM   33  H   UNL     1      45.108 -23.437   4.580  1.00  0.00     0.217 HD
ENDBRANCH  29  32
ENDBRANCH  25  26
ENDBRANCH  23  25
ENDBRANCH   1  23
TORSDOF 9
ENDMDL
MODEL 7
REMARK VINA RESULT:      -8.4      2.160      8.556
REMARK  9 active torsions:
REMARK  status: ('A' for Active; 'I' for Inactive)
REMARK    1  A    between atoms: C_2  and  N_3 
REMARK    2  A    between atoms: C_2  and  C_23 
REMARK       I    between atoms: N_3  and  C_4 
REMARK       I    between atoms: C_4  and  N_5 
REMARK    3  A    between atoms: N_5  and  C_6 
REMARK    4  A    between atoms: C_6  and  C_7 
REMARK    5  A    between atoms: C_7  and  N_8 
REMARK    6  A    between atoms: C_7  and  C_14 
REMARK    7  A    between atoms: C_15  and  O_16 
REMARK    8  A    between atoms: C_23  and  C_24 
REMARK    9  A    between atoms: C_27  and  O_28 
ROOT
HETATM    1  N   UNL     1      42.516 -16.358   2.054  1.00  0.00    -0.339 N 
HETATM    2  C   UNL     1      41.826 -16.507   0.887  1.00  0.00     0.316 C 
HETATM    3  N   UNL     1      41.934 -15.398   0.077  1.00  0.00    -0.341 N 
HETATM    4  O   UNL     1      41.236 -17.515   0.532  1.00  0.00    -0.248 OA
HETATM    5  H   UNL     1      42.755 -15.414   2.321  1.00  0.00     0.164 HD
HETATM    6  H   UNL     1      41.998 -14.534   0.601  1.00  0.00     0.164 HD
ENDROOT
BRANCH   3   7
HETATM    7  C   UNL     1      41.115 -15.336  -1.139  1.00  0.00     0.162 C 
BRANCH   7   8
HETATM    8  C   UNL     1      39.828 -14.456  -0.987  1.00  0.00     0.241 C 
BRANCH   8   9
HETATM    9  N   UNL     1      39.421 -13.970  -2.391  1.00  0.00    -0.061 N 
HETATM   10  H   UNL     1      39.847 -13.030  -2.418  1.00  0.00     0.280 HD
HETATM   11  C   UNL     1      37.967 -13.834  -2.702  1.00  0.00     0.236 C 
HETATM   12  C   UNL     1      37.595 -15.105  -3.439  1.00  0.00     0.029 C 
HETATM   13  C   UNL     1      38.894 -15.680  -3.987  1.00  0.00     0.029 C 
HETATM   14  C   UNL     1      40.005 -14.753  -3.531  1.00  0.00     0.236 C 
ENDBRANCH   8   9
BRANCH   8  15
HETATM   15  C   UNL     1      39.927 -13.389   0.092  1.00  0.00     0.007 A 
HETATM   16  C   UNL     1      40.636 -12.192  -0.157  1.00  0.00     0.076 A 
HETATM   17  C   UNL     1      40.733 -11.207   0.831  1.00  0.00     0.037 A 
HETATM   18  C   UNL     1      40.110 -11.384   2.066  1.00  0.00     0.003 A 
HETATM   19  C   UNL     1      39.393 -12.547   2.321  1.00  0.00     0.001 A 
HETATM   20  C   UNL     1      39.303 -13.541   1.345  1.00  0.00     0.012 A 
BRANCH  16  21
HETATM   21  O   UNL     1      41.239 -12.085  -1.383  1.00  0.00    -0.355 OA
HETATM   22  C   UNL     1      42.651 -11.872  -1.382  1.00  0.00     0.210 C 
ENDBRANCH  16  21
ENDBRANCH   8  15
ENDBRANCH   7   8
ENDBRANCH   3   7
BRANCH   1  23
HETATM   23  C   UNL     1      42.358 -17.270   3.196  1.00  0.00     0.086 C 
HETATM   24  C   UNL     1      41.392 -16.742   4.256  1.00  0.00     0.032 C 
BRANCH  23  25
HETATM   25  C   UNL     1      43.717 -17.658   3.820  1.00  0.00     0.063 C 
BRANCH  25  26
HETATM   26  C   UNL     1      44.037 -19.127   3.632  1.00  0.00    -0.056 A 
HETATM   27  C   UNL     1      43.737 -19.773   2.423  1.00  0.00     0.010 A 
HETATM   28  C   UNL     1      43.992 -21.137   2.265  1.00  0.00     0.037 A 
HETATM   29  C   UNL     1      44.546 -21.856   3.319  1.00  0.00     0.065 A 
HETATM   30  C   UNL     1      44.854 -21.232   4.522  1.00  0.00     0.037 A 
HETATM   31  C   UNL     1      44.607 -19.869   4.677  1.00  0.00     0.010 A 
BRANCH  29  32
HETATM   32  O   UNL     1      44.804 -23.189   3.213  1.00  0.00    -0.361 OA
HETATM   33  H   UNL     1      45.765 -23.323   3.157  1.00  0.00     0.217 HD
ENDBRANCH  29  32
ENDBRANCH  25  26
ENDBRANCH  23  25
ENDBRANCH   1  23
TORSDOF 9
ENDMDL
MODEL 8
REMARK VINA RESULT:      -8.3      4.930      9.346
REMARK  9 active torsions:
REMARK  status: ('A' for Active; 'I' for Inactive)
REMARK    1  A    between atoms: C_2  and  N_3 
REMARK    2  A    between atoms: C_2  and  C_23 
REMARK       I    between atoms: N_3  and  C_4 
REMARK       I    between atoms: C_4  and  N_5 
REMARK    3  A    between atoms: N_5  and  C_6 
REMARK    4  A    between atoms: C_6  and  C_7 
REMARK    5  A    between atoms: C_7  and  N_8 
REMARK    6  A    between atoms: C_7  and  C_14 
REMARK    7  A    between atoms: C_15  and  O_16 
REMARK    8  A    between atoms: C_23  and  C_24 
REMARK    9  A    between atoms: C_27  and  O_28 
ROOT
HETATM    1  N   UNL     1      39.438 -11.790   9.136  1.00  0.00    -0.339 N 
HETATM    2  C   UNL     1      39.358 -11.817   7.774  1.00  0.00     0.316 C 
HETATM    3  N   UNL     1      39.378 -13.102   7.280  1.00  0.00    -0.341 N 
HETATM    4  O   UNL     1      39.207 -10.845   7.051  1.00  0.00    -0.248 OA
HETATM    5  H   UNL     1      39.791 -12.623   9.585  1.00  0.00     0.164 HD
HETATM    6  H   UNL     1      39.950 -13.727   7.835  1.00  0.00     0.164 HD
ENDROOT
BRANCH   3   7
HETATM    7  C   UNL     1      39.465 -13.293   5.827  1.00  0.00     0.162 C 
BRANCH   7   8
HETATM    8  C   UNL     1      40.729 -14.100   5.373  1.00  0.00     0.241 C 
BRANCH   8   9
HETATM    9  N   UNL     1      41.913 -13.118   5.299  1.00  0.00    -0.061 N 
HETATM   10  H   UNL     1      41.466 -12.230   5.577  1.00  0.00     0.280 HD
HETATM   11  C   UNL     1      42.585 -12.912   3.981  1.00  0.00     0.236 C 
HETATM   12  C   UNL     1      43.808 -13.806   4.012  1.00  0.00     0.029 C 
HETATM   13  C   UNL     1      44.099 -14.087   5.479  1.00  0.00     0.029 C 
HETATM   14  C   UNL     1      43.020 -13.379   6.279  1.00  0.00     0.236 C 
ENDBRANCH   8   9
BRANCH   8  15
HETATM   15  C   UNL     1      40.503 -14.976   4.151  1.00  0.00     0.007 A 
HETATM   16  C   UNL     1      41.074 -16.268   4.090  1.00  0.00     0.076 A 
HETATM   17  C   UNL     1      40.872 -17.078   2.968  1.00  0.00     0.037 A 
HETATM   18  C   UNL     1      40.084 -16.631   1.908  1.00  0.00     0.003 A 
HETATM   19  C   UNL     1      39.501 -15.372   1.960  1.00  0.00     0.001 A 
HETATM   20  C   UNL     1      39.708 -14.550   3.070  1.00  0.00     0.012 A 
BRANCH  16  21
HETATM   21  O   UNL     1      41.851 -16.642   5.155  1.00  0.00    -0.355 OA
HETATM   22  C   UNL     1      42.961 -17.492   4.867  1.00  0.00     0.210 C 
ENDBRANCH  16  21
ENDBRANCH   8  15
ENDBRANCH   7   8
ENDBRANCH   3   7
BRANCH   1  23
HETATM   23  C   UNL     1      39.698 -10.559   9.895  1.00  0.00     0.086 C 
HETATM   24  C   UNL     1      38.549  -9.554   9.824  1.00  0.00     0.032 C 
BRANCH  23  25
HETATM   25  C   UNL     1      41.040  -9.905   9.497  1.00  0.00     0.063 C 
BRANCH  25  26
HETATM   26  C   UNL     1      42.234 -10.693   9.994  1.00  0.00    -0.056 A 
HETATM   27  C   UNL     1      43.245 -11.091   9.106  1.00  0.00     0.010 A 
HETATM   28  C   UNL     1      44.325 -11.855   9.556  1.00  0.00     0.037 A 
HETATM   29  C   UNL     1      44.391 -12.223  10.895  1.00  0.00     0.065 A 
HETATM   30  C   UNL     1      43.402 -11.834  11.790  1.00  0.00     0.037 A 
HETATM   31  C   UNL     1      42.328 -11.065  11.343  1.00  0.00     0.010 A 
BRANCH  29  32
HETATM   32  O   UNL     1      45.421 -12.974  11.377  1.00  0.00    -0.361 OA
HETATM   33  H   UNL     1      45.847 -13.438  10.639  1.00  0.00     0.217 HD
ENDBRANCH  29  32
ENDBRANCH  25  26
ENDBRANCH  23  25
ENDBRANCH   1  23
TORSDOF 9
ENDMDL
MODEL 9
REMARK VINA RESULT:      -8.3      3.312      7.514
REMARK  9 active torsions:
REMARK  status: ('A' for Active; 'I' for Inactive)
REMARK    1  A    between atoms: C_2  and  N_3 
REMARK    2  A    between atoms: C_2  and  C_23 
REMARK       I    between atoms: N_3  and  C_4 
REMARK       I    between atoms: C_4  and  N_5 
REMARK    3  A    between atoms: N_5  and  C_6 
REMARK    4  A    between atoms: C_6  and  C_7 
REMARK    5  A    between atoms: C_7  and  N_8 
REMARK    6  A    between atoms: C_7  and  C_14 
REMARK    7  A    between atoms: C_15  and  O_16 
REMARK    8  A    between atoms: C_23  and  C_24 
REMARK    9  A    between atoms: C_27  and  O_28 
ROOT
HETATM    1  N   UNL     1      43.578 -17.141   5.778  1.00  0.00    -0.339 N 
HETATM    2  C   UNL     1      42.324 -16.650   5.563  1.00  0.00     0.316 C 
HETATM    3  N   UNL     1      42.324 -15.283   5.397  1.00  0.00    -0.341 N 
HETATM    4  O   UNL     1      41.308 -17.318   5.447  1.00  0.00    -0.248 OA
HETATM    5  H   UNL     1      44.278 -16.479   6.081  1.00  0.00     0.164 HD
HETATM    6  H   UNL     1      43.036 -14.821   5.951  1.00  0.00     0.164 HD
ENDROOT
BRANCH   3   7
HETATM    7  C   UNL     1      41.035 -14.585   5.322  1.00  0.00     0.162 C 
BRANCH   7   8
HETATM    8  C   UNL     1      40.806 -13.829   3.970  1.00  0.00     0.241 C 
BRANCH   8   9
HETATM    9  N   UNL     1      39.474 -13.063   4.078  1.00  0.00    -0.061 N 
HETATM   10  H   UNL     1      38.787 -13.822   3.952  1.00  0.00     0.280 HD
HETATM   11  C   UNL     1      39.184 -11.996   3.075  1.00  0.00     0.236 C 
HETATM   12  C   UNL     1      39.561 -10.695   3.754  1.00  0.00     0.029 C 
HETATM   13  C   UNL     1      39.552 -10.973   5.251  1.00  0.00     0.029 C 
HETATM   14  C   UNL     1      39.204 -12.441   5.417  1.00  0.00     0.236 C 
ENDBRANCH   8   9
BRANCH   8  15
HETATM   15  C   UNL     1      40.986 -14.695   2.733  1.00  0.00     0.007 A 
HETATM   16  C   UNL     1      41.837 -14.269   1.687  1.00  0.00     0.076 A 
HETATM   17  C   UNL     1      42.005 -15.060   0.546  1.00  0.00     0.037 A 
HETATM   18  C   UNL     1      41.357 -16.289   0.438  1.00  0.00     0.003 A 
HETATM   19  C   UNL     1      40.532 -16.732   1.465  1.00  0.00     0.001 A 
HETATM   20  C   UNL     1      40.347 -15.943   2.602  1.00  0.00     0.012 A 
BRANCH  16  21
HETATM   21  O   UNL     1      42.432 -13.045   1.846  1.00  0.00    -0.355 OA
HETATM   22  C   UNL     1      42.110 -12.050   0.875  1.00  0.00     0.210 C 
ENDBRANCH  16  21
ENDBRANCH   8  15
ENDBRANCH   7   8
ENDBRANCH   3   7
BRANCH   1  23
HETATM   23  C   UNL     1      43.830 -18.513   6.241  1.00  0.00     0.086 C 
HETATM   24  C   UNL     1      43.927 -18.626   7.762  1.00  0.00     0.032 C 
BRANCH  23  25
HETATM   25  C   UNL     1      45.063 -19.140   5.553  1.00  0.00     0.063 C 
BRANCH  25  26
HETATM   26  C   UNL     1      44.682 -20.023   4.383  1.00  0.00    -0.056 A 
HETATM   27  C   UNL     1      44.888 -21.411   4.441  1.00  0.00     0.010 A 
HETATM   28  C   UNL     1      44.576 -22.220   3.346  1.00  0.00     0.037 A 
HETATM   29  C   UNL     1      44.060 -21.641   2.192  1.00  0.00     0.065 A 
HETATM   30  C   UNL     1      43.846 -20.270   2.118  1.00  0.00     0.037 A 
HETATM   31  C   UNL     1      44.150 -19.462   3.214  1.00  0.00     0.010 A 
BRANCH  29  32
HETATM   32  O   UNL     1      43.750 -22.390   1.097  1.00  0.00    -0.361 OA
HETATM   33  H   UNL     1      42.903 -22.840   1.250  1.00  0.00     0.217 HD
ENDBRANCH  29  32
ENDBRANCH  25  26
ENDBRANCH  23  25
ENDBRANCH   1  23
TORSDOF 9
ENDMDL
MODEL 10
REMARK VINA RESULT:      -8.2      2.046      8.326
REMARK  9 active torsions:
REMARK  status: ('A' for Active; 'I' for Inactive)
REMARK    1  A    between atoms: C_2  and  N_3 
REMARK    2  A    between atoms: C_2  and  C_23 
REMARK       I    between atoms: N_3  and  C_4 
REMARK       I    between atoms: C_4  and  N_5 
REMARK    3  A    between atoms: N_5  and  C_6 
REMARK    4  A    between atoms: C_6  and  C_7 
REMARK    5  A    between atoms: C_7  and  N_8 
REMARK    6  A    between atoms: C_7  and  C_14 
REMARK    7  A    between atoms: C_15  and  O_16 
REMARK    8  A    between atoms: C_23  and  C_24 
REMARK    9  A    between atoms: C_27  and  O_28 
ROOT
HETATM    1  N   UNL     1      41.955 -16.347   2.079  1.00  0.00    -0.339 N 
HETATM    2  C   UNL     1      40.672 -16.001   1.772  1.00  0.00     0.316 C 
HETATM    3  N   UNL     1      40.588 -14.722   1.267  1.00  0.00    -0.341 N 
HETATM    4  O   UNL     1      39.699 -16.734   1.848  1.00  0.00    -0.248 OA
HETATM    5  H   UNL     1      42.614 -15.589   2.192  1.00  0.00     0.164 HD
HETATM    6  H   UNL     1      41.272 -14.094   1.673  1.00  0.00     0.164 HD
ENDROOT
BRANCH   3   7
HETATM    7  C   UNL     1      39.258 -14.142   1.044  1.00  0.00     0.162 C 
BRANCH   7   8
HETATM    8  C   UNL     1      39.183 -13.199  -0.204  1.00  0.00     0.241 C 
BRANCH   8   9
HETATM    9  N   UNL     1      38.020 -12.215   0.018  1.00  0.00    -0.061 N 
HETATM   10  H   UNL     1      37.211 -12.775  -0.293  1.00  0.00     0.280 HD
HETATM   11  C   UNL     1      38.020 -10.930  -0.743  1.00  0.00     0.236 C 
HETATM   12  C   UNL     1      38.586  -9.899   0.212  1.00  0.00     0.029 C 
HETATM   13  C   UNL     1      38.407 -10.467   1.613  1.00  0.00     0.029 C 
HETATM   14  C   UNL     1      37.770 -11.835   1.449  1.00  0.00     0.236 C 
ENDBRANCH   8   9
BRANCH   8  15
HETATM   15  C   UNL     1      39.203 -13.929  -1.538  1.00  0.00     0.007 A 
HETATM   16  C   UNL     1      40.434 -14.217  -2.171  1.00  0.00     0.076 A 
HETATM   17  C   UNL     1      40.459 -14.885  -3.399  1.00  0.00     0.037 A 
HETATM   18  C   UNL     1      39.272 -15.299  -4.001  1.00  0.00     0.003 A 
HETATM   19  C   UNL     1      38.054 -15.041  -3.384  1.00  0.00     0.001 A 
HETATM   20  C   UNL     1      38.018 -14.361  -2.165  1.00  0.00     0.012 A 
BRANCH  16  21
HETATM   21  O   UNL     1      41.564 -13.770  -1.537  1.00  0.00    -0.355 OA
HETATM   22  C   UNL     1      42.549 -13.144  -2.358  1.00  0.00     0.210 C 
ENDBRANCH  16  21
ENDBRANCH   8  15
ENDBRANCH   7   8
ENDBRANCH   3   7
BRANCH   1  23
HETATM   23  C   UNL     1      42.293 -17.540   2.867  1.00  0.00     0.086 C 
HETATM   24  C   UNL     1      41.860 -17.437   4.329  1.00  0.00     0.032 C 
BRANCH  23  25
HETATM   25  C   UNL     1      43.789 -17.908   2.751  1.00  0.00     0.063 C 
BRANCH  25  26
HETATM   26  C   UNL     1      44.037 -19.385   2.976  1.00  0.00    -0.056 A 
HETATM   27  C   UNL     1      44.674 -19.831   4.144  1.00  0.00     0.010 A 
HETATM   28  C   UNL     1      44.940 -21.190   4.333  1.00  0.00     0.037 A 
HETATM   29  C   UNL     1      44.572 -22.102   3.350  1.00  0.00     0.065 A 
HETATM   30  C   UNL     1      43.936 -21.679   2.189  1.00  0.00     0.037 A 
HETATM   31  C   UNL     1      43.662 -20.324   2.004  1.00  0.00     0.010 A 
BRANCH  29  32
HETATM   32  O   UNL     1      44.819 -23.434   3.487  1.00  0.00    -0.361 OA
HETATM   33  H   UNL     1      44.296 -23.923   2.831  1.00  0.00     0.217 HD
ENDBRANCH  29  32
ENDBRANCH  25  26
ENDBRANCH  23  25
ENDBRANCH   1  23
TORSDOF 9
ENDMDL
