MODEL 1
REMARK VINA RESULT:      -8.7      0.000      0.000
REMARK  4 active torsions:
REMARK  status: ('A' for Active; 'I' for Inactive)
REMARK    1  A    between atoms: C_2  and  C_3 
REMARK    2  A    between atoms: C_4  and  C_5 
REMARK       I    between atoms: C_5  and  N_6 
REMARK    3  A    between atoms: N_6  and  C_7 
REMARK    4  A    between atoms: C_14  and  C_15 
REMARK       I    between atoms: C_15  and  N_16 
ROOT
HETATM    1  C   UNL     1      44.814 -13.692   7.434  1.00  0.00     0.035 A 
HETATM    2  C   UNL     1      43.976 -13.111   8.396  1.00  0.00     0.046 A 
HETATM    3  C   UNL     1      44.461 -12.055   9.199  1.00  0.00     0.030 A 
HETATM    4  C   UNL     1      45.765 -11.613   9.009  1.00  0.00     0.063 A 
HETATM    5  N   UNL     1      45.942 -10.607   9.917  1.00  0.00    -0.277 N 
HETATM    6  H   UNL     1      46.779 -10.054  10.064  1.00  0.00     0.189 HD
HETATM    7  N   UNL     1      44.870 -10.353  10.685  1.00  0.00    -0.168 NA
HETATM    8  C   UNL     1      43.944 -11.241  10.253  1.00  0.00     0.156 A 
HETATM    9  C   UNL     1      46.624 -12.161   8.057  1.00  0.00     0.034 A 
HETATM   10  C   UNL     1      46.120 -13.209   7.277  1.00  0.00     0.032 A 
ENDROOT
BRANCH   1  11
HETATM   11  N   UNL     1      44.431 -14.768   6.602  1.00  0.00    -0.324 N 
HETATM   12  C   UNL     1      43.966 -16.007   6.995  1.00  0.00     0.245 C 
HETATM   13  O   UNL     1      43.751 -16.391   8.135  1.00  0.00    -0.268 OA
HETATM   14  H   UNL     1      44.535 -14.607   5.610  1.00  0.00     0.169 HD
BRANCH  12  15
HETATM   15  C   UNL     1      43.749 -16.913   5.829  1.00  0.00     0.075 C 
HETATM   16  C   UNL     1      44.421 -18.072   5.756  1.00  0.00     0.017 C 
BRANCH  16  17
HETATM   17  C   UNL     1      44.304 -19.031   4.649  1.00  0.00    -0.036 A 
HETATM   18  C   UNL     1      43.792 -18.670   3.395  1.00  0.00     0.013 A 
HETATM   19  C   UNL     1      43.739 -19.602   2.353  1.00  0.00     0.024 A 
HETATM   20  C   UNL     1      44.208 -20.898   2.558  1.00  0.00     0.034 A 
HETATM   21  C   UNL     1      44.732 -21.268   3.793  1.00  0.00     0.024 A 
HETATM   22 CL   UNL     1      44.148 -22.041   1.274  1.00  0.00    -0.084 Cl
HETATM   23  C   UNL     1      44.786 -20.335   4.833  1.00  0.00     0.013 A 
ENDBRANCH  16  17
ENDBRANCH  12  15
ENDBRANCH   1  11
BRANCH   8  24
HETATM   24  C   UNL     1      42.604 -11.291  10.853  1.00  0.00     0.270 C 
HETATM   25  N   UNL     1      42.566 -11.885  12.085  1.00  0.00    -0.365 N 
HETATM   26  H   UNL     1      43.430 -12.236  12.481  1.00  0.00     0.159 HD
HETATM   27  H   UNL     1      41.688 -11.967  12.572  1.00  0.00     0.159 HD
HETATM   28  O   UNL     1      41.586 -10.853  10.330  1.00  0.00    -0.266 OA
ENDBRANCH   8  24
TORSDOF 4
ENDMDL
MODEL 2
REMARK VINA RESULT:      -8.3      4.722      9.532
REMARK  4 active torsions:
REMARK  status: ('A' for Active; 'I' for Inactive)
REMARK    1  A    between atoms: C_2  and  C_3 
REMARK    2  A    between atoms: C_4  and  C_5 
REMARK       I    between atoms: C_5  and  N_6 
REMARK    3  A    between atoms: N_6  and  C_7 
REMARK    4  A    between atoms: C_14  and  C_15 
REMARK       I    between atoms: C_15  and  N_16 
ROOT
HETATM    1  C   UNL     1      43.965 -15.898   6.472  1.00  0.00     0.035 A 
HETATM    2  C   UNL     1      43.160 -15.894   5.324  1.00  0.00     0.046 A 
HETATM    3  C   UNL     1      43.164 -17.015   4.464  1.00  0.00     0.030 A 
HETATM    4  C   UNL     1      43.968 -18.102   4.784  1.00  0.00     0.063 A 
HETATM    5  N   UNL     1      43.765 -19.010   3.783  1.00  0.00    -0.277 N 
HETATM    6  H   UNL     1      44.193 -19.924   3.688  1.00  0.00     0.189 HD
HETATM    7  N   UNL     1      42.900 -18.612   2.836  1.00  0.00    -0.168 NA
HETATM    8  C   UNL     1      42.519 -17.379   3.243  1.00  0.00     0.156 A 
HETATM    9  C   UNL     1      44.776 -18.145   5.921  1.00  0.00     0.034 A 
HETATM   10  C   UNL     1      44.757 -17.019   6.754  1.00  0.00     0.032 A 
ENDROOT
BRANCH   1  11
HETATM   11  N   UNL     1      44.051 -14.816   7.378  1.00  0.00    -0.324 N 
HETATM   12  C   UNL     1      44.932 -13.755   7.335  1.00  0.00     0.245 C 
HETATM   13  O   UNL     1      45.772 -13.522   6.478  1.00  0.00    -0.268 OA
HETATM   14  H   UNL     1      43.403 -14.848   8.152  1.00  0.00     0.169 HD
BRANCH  12  15
HETATM   15  C   UNL     1      44.776 -12.857   8.516  1.00  0.00     0.075 C 
HETATM   16  C   UNL     1      43.734 -12.013   8.575  1.00  0.00     0.017 C 
BRANCH  16  17
HETATM   17  C   UNL     1      43.490 -11.071   9.675  1.00  0.00    -0.036 A 
HETATM   18  C   UNL     1      42.404 -10.184   9.678  1.00  0.00     0.013 A 
HETATM   19  C   UNL     1      42.181  -9.335  10.767  1.00  0.00     0.024 A 
HETATM   20  C   UNL     1      43.038  -9.376  11.864  1.00  0.00     0.034 A 
HETATM   21  C   UNL     1      44.112 -10.261  11.884  1.00  0.00     0.024 A 
HETATM   22 CL   UNL     1      42.758  -8.335  13.205  1.00  0.00    -0.084 Cl
HETATM   23  C   UNL     1      44.333 -11.110  10.795  1.00  0.00     0.013 A 
ENDBRANCH  16  17
ENDBRANCH  12  15
ENDBRANCH   1  11
BRANCH   8  24
HETATM   24  C   UNL     1      41.561 -16.585   2.462  1.00  0.00     0.270 C 
HETATM   25  N   UNL     1      40.308 -16.525   3.009  1.00  0.00    -0.365 N 
HETATM   26  H   UNL     1      40.135 -17.016   3.879  1.00  0.00     0.159 HD
HETATM   27  H   UNL     1      39.584 -16.005   2.540  1.00  0.00     0.159 HD
HETATM   28  O   UNL     1      41.820 -16.012   1.410  1.00  0.00    -0.266 OA
ENDBRANCH   8  24
TORSDOF 4
ENDMDL
MODEL 3
REMARK VINA RESULT:      -8.2      6.651      9.344
REMARK  4 active torsions:
REMARK  status: ('A' for Active; 'I' for Inactive)
REMARK    1  A    between atoms: C_2  and  C_3 
REMARK    2  A    between atoms: C_4  and  C_5 
REMARK       I    between atoms: C_5  and  N_6 
REMARK    3  A    between atoms: N_6  and  C_7 
REMARK    4  A    between atoms: C_14  and  C_15 
REMARK       I    between atoms: C_15  and  N_16 
ROOT
HETATM    1  C   UNL     1      40.157 -15.198   1.030  1.00  0.00     0.035 A 
HETATM    2  C   UNL     1      40.618 -14.928  -0.266  1.00  0.00     0.046 A 
HETATM    3  C   UNL     1      39.843 -14.120  -1.129  1.00  0.00     0.030 A 
HETATM    4  C   UNL     1      38.639 -13.607  -0.665  1.00  0.00     0.063 A 
HETATM    5  N   UNL     1      38.127 -12.885  -1.706  1.00  0.00    -0.277 N 
HETATM    6  H   UNL     1      37.253 -12.371  -1.725  1.00  0.00     0.189 HD
HETATM    7  N   UNL     1      38.890 -12.882  -2.811  1.00  0.00    -0.168 NA
HETATM    8  C   UNL     1      39.956 -13.642  -2.470  1.00  0.00     0.156 A 
HETATM    9  C   UNL     1      38.152 -13.848   0.621  1.00  0.00     0.034 A 
HETATM   10  C   UNL     1      38.937 -14.654   1.454  1.00  0.00     0.032 A 
ENDROOT
BRANCH   1  11
HETATM   11  N   UNL     1      40.845 -16.014   1.956  1.00  0.00    -0.324 N 
HETATM   12  C   UNL     1      41.651 -15.603   2.999  1.00  0.00     0.245 C 
HETATM   13  O   UNL     1      41.881 -14.454   3.350  1.00  0.00    -0.268 OA
HETATM   14  H   UNL     1      40.746 -17.009   1.814  1.00  0.00     0.169 HD
BRANCH  12  15
HETATM   15  C   UNL     1      42.277 -16.758   3.705  1.00  0.00     0.075 C 
HETATM   16  C   UNL     1      42.987 -17.657   3.005  1.00  0.00     0.017 C 
BRANCH  16  17
HETATM   17  C   UNL     1      43.629 -18.842   3.588  1.00  0.00    -0.036 A 
HETATM   18  C   UNL     1      43.806 -18.997   4.971  1.00  0.00     0.013 A 
HETATM   19  C   UNL     1      44.382 -20.161   5.488  1.00  0.00     0.024 A 
HETATM   20  C   UNL     1      44.775 -21.183   4.627  1.00  0.00     0.034 A 
HETATM   21  C   UNL     1      44.594 -21.051   3.253  1.00  0.00     0.024 A 
HETATM   22 CL   UNL     1      45.478 -22.617   5.266  1.00  0.00    -0.084 Cl
HETATM   23  C   UNL     1      44.016 -19.887   2.736  1.00  0.00     0.013 A 
ENDBRANCH  16  17
ENDBRANCH  12  15
ENDBRANCH   1  11
BRANCH   8  24
HETATM   24  C   UNL     1      41.045 -13.893  -3.425  1.00  0.00     0.270 C 
HETATM   25  N   UNL     1      41.681 -12.761  -3.857  1.00  0.00    -0.365 N 
HETATM   26  H   UNL     1      41.368 -11.864  -3.505  1.00  0.00     0.159 HD
HETATM   27  H   UNL     1      42.439 -12.836  -4.516  1.00  0.00     0.159 HD
HETATM   28  O   UNL     1      41.384 -15.001  -3.824  1.00  0.00    -0.266 OA
ENDBRANCH   8  24
TORSDOF 4
ENDMDL
MODEL 4
REMARK VINA RESULT:      -8.2      7.308      9.343
REMARK  4 active torsions:
REMARK  status: ('A' for Active; 'I' for Inactive)
REMARK    1  A    between atoms: C_2  and  C_3 
REMARK    2  A    between atoms: C_4  and  C_5 
REMARK       I    between atoms: C_5  and  N_6 
REMARK    3  A    between atoms: N_6  and  C_7 
REMARK    4  A    between atoms: C_14  and  C_15 
REMARK       I    between atoms: C_15  and  N_16 
ROOT
HETATM    1  C   UNL     1      41.442 -15.207  -1.249  1.00  0.00     0.035 A 
HETATM    2  C   UNL     1      41.870 -13.884  -1.068  1.00  0.00     0.046 A 
HETATM    3  C   UNL     1      41.656 -12.934  -2.091  1.00  0.00     0.030 A 
HETATM    4  C   UNL     1      41.017 -13.337  -3.257  1.00  0.00     0.063 A 
HETATM    5  N   UNL     1      40.960 -12.221  -4.043  1.00  0.00    -0.277 N 
HETATM    6  H   UNL     1      40.560 -12.144  -4.972  1.00  0.00     0.189 HD
HETATM    7  N   UNL     1      41.507 -11.123  -3.495  1.00  0.00    -0.168 NA
HETATM    8  C   UNL     1      41.942 -11.548  -2.286  1.00  0.00     0.156 A 
HETATM    9  C   UNL     1      40.570 -14.641  -3.470  1.00  0.00     0.034 A 
HETATM   10  C   UNL     1      40.798 -15.565  -2.442  1.00  0.00     0.032 A 
ENDROOT
BRANCH   1  11
HETATM   11  N   UNL     1      41.633 -16.234  -0.298  1.00  0.00    -0.324 N 
HETATM   12  C   UNL     1      41.024 -16.360   0.934  1.00  0.00     0.245 C 
HETATM   13  O   UNL     1      40.166 -15.634   1.415  1.00  0.00    -0.268 OA
HETATM   14  H   UNL     1      42.312 -16.938  -0.552  1.00  0.00     0.169 HD
BRANCH  12  15
HETATM   15  C   UNL     1      41.548 -17.532   1.695  1.00  0.00     0.075 C 
HETATM   16  C   UNL     1      42.872 -17.674   1.863  1.00  0.00     0.017 C 
BRANCH  16  17
HETATM   17  C   UNL     1      43.502 -18.794   2.575  1.00  0.00    -0.036 A 
HETATM   18  C   UNL     1      43.936 -18.690   3.904  1.00  0.00     0.013 A 
HETATM   19  C   UNL     1      44.490 -19.795   4.559  1.00  0.00     0.024 A 
HETATM   20  C   UNL     1      44.603 -21.012   3.893  1.00  0.00     0.034 A 
HETATM   21  C   UNL     1      44.164 -21.136   2.578  1.00  0.00     0.024 A 
HETATM   22 CL   UNL     1      45.279 -22.371   4.703  1.00  0.00    -0.084 Cl
HETATM   23  C   UNL     1      43.609 -20.031   1.923  1.00  0.00     0.013 A 
ENDBRANCH  16  17
ENDBRANCH  12  15
ENDBRANCH   1  11
BRANCH   8  24
HETATM   24  C   UNL     1      42.617 -10.630  -1.358  1.00  0.00     0.270 C 
HETATM   25  N   UNL     1      41.962  -9.443  -1.172  1.00  0.00    -0.365 N 
HETATM   26  H   UNL     1      41.094  -9.285  -1.669  1.00  0.00     0.159 HD
HETATM   27  H   UNL     1      42.353  -8.750  -0.554  1.00  0.00     0.159 HD
HETATM   28  O   UNL     1      43.672 -10.869  -0.781  1.00  0.00    -0.266 OA
ENDBRANCH   8  24
TORSDOF 4
ENDMDL
MODEL 5
REMARK VINA RESULT:      -8.1      4.673      9.678
REMARK  4 active torsions:
REMARK  status: ('A' for Active; 'I' for Inactive)
REMARK    1  A    between atoms: C_2  and  C_3 
REMARK    2  A    between atoms: C_4  and  C_5 
REMARK       I    between atoms: C_5  and  N_6 
REMARK    3  A    between atoms: N_6  and  C_7 
REMARK    4  A    between atoms: C_14  and  C_15 
REMARK       I    between atoms: C_15  and  N_16 
ROOT
HETATM    1  C   UNL     1      43.692 -15.012   6.219  1.00  0.00     0.035 A 
HETATM    2  C   UNL     1      43.846 -16.398   6.366  1.00  0.00     0.046 A 
HETATM    3  C   UNL     1      43.654 -17.244   5.251  1.00  0.00     0.030 A 
HETATM    4  C   UNL     1      43.320 -16.676   4.028  1.00  0.00     0.063 A 
HETATM    5  N   UNL     1      43.199 -17.726   3.162  1.00  0.00    -0.277 N 
HETATM    6  H   UNL     1      42.962 -17.685   2.177  1.00  0.00     0.189 HD
HETATM    7  N   UNL     1      43.423 -18.932   3.712  1.00  0.00    -0.168 NA
HETATM    8  C   UNL     1      43.707 -18.650   5.005  1.00  0.00     0.156 A 
HETATM    9  C   UNL     1      43.166 -15.302   3.842  1.00  0.00     0.034 A 
HETATM   10  C   UNL     1      43.358 -14.485   4.963  1.00  0.00     0.032 A 
ENDROOT
BRANCH   1  11
HETATM   11  N   UNL     1      43.836 -14.086   7.277  1.00  0.00    -0.324 N 
HETATM   12  C   UNL     1      44.966 -13.370   7.616  1.00  0.00     0.245 C 
HETATM   13  O   UNL     1      46.042 -13.362   7.035  1.00  0.00    -0.268 OA
HETATM   14  H   UNL     1      43.019 -13.961   7.857  1.00  0.00     0.169 HD
BRANCH  12  15
HETATM   15  C   UNL     1      44.759 -12.559   8.851  1.00  0.00     0.075 C 
HETATM   16  C   UNL     1      43.708 -11.726   8.928  1.00  0.00     0.017 C 
BRANCH  16  17
HETATM   17  C   UNL     1      43.415 -10.866  10.082  1.00  0.00    -0.036 A 
HETATM   18  C   UNL     1      44.180 -10.899  11.257  1.00  0.00     0.013 A 
HETATM   19  C   UNL     1      43.895 -10.031  12.316  1.00  0.00     0.024 A 
HETATM   20  C   UNL     1      42.851  -9.117  12.201  1.00  0.00     0.034 A 
HETATM   21  C   UNL     1      42.091  -9.061  11.037  1.00  0.00     0.024 A 
HETATM   22 CL   UNL     1      42.506  -8.046  13.503  1.00  0.00    -0.084 Cl
HETATM   23  C   UNL     1      42.377  -9.929   9.978  1.00  0.00     0.013 A 
ENDBRANCH  16  17
ENDBRANCH  12  15
ENDBRANCH   1  11
BRANCH   8  24
HETATM   24  C   UNL     1      44.014 -19.720   5.964  1.00  0.00     0.270 C 
HETATM   25  N   UNL     1      44.686 -20.781   5.421  1.00  0.00    -0.365 N 
HETATM   26  H   UNL     1      44.914 -20.757   4.434  1.00  0.00     0.159 HD
HETATM   27  H   UNL     1      44.936 -21.563   6.004  1.00  0.00     0.159 HD
HETATM   28  O   UNL     1      43.712 -19.703   7.152  1.00  0.00    -0.266 OA
ENDBRANCH   8  24
TORSDOF 4
ENDMDL
MODEL 6
REMARK VINA RESULT:      -8.0      5.888      8.600
REMARK  4 active torsions:
REMARK  status: ('A' for Active; 'I' for Inactive)
REMARK    1  A    between atoms: C_2  and  C_3 
REMARK    2  A    between atoms: C_4  and  C_5 
REMARK       I    between atoms: C_5  and  N_6 
REMARK    3  A    between atoms: N_6  and  C_7 
REMARK    4  A    between atoms: C_14  and  C_15 
REMARK       I    between atoms: C_15  and  N_16 
ROOT
HETATM    1  C   UNL     1      43.217 -17.898   2.571  1.00  0.00     0.035 A 
HETATM    2  C   UNL     1      42.976 -17.615   3.922  1.00  0.00     0.046 A 
HETATM    3  C   UNL     1      43.425 -18.515   4.915  1.00  0.00     0.030 A 
HETATM    4  C   UNL     1      44.103 -19.662   4.523  1.00  0.00     0.063 A 
HETATM    5  N   UNL     1      44.400 -20.322   5.682  1.00  0.00    -0.277 N 
HETATM    6  H   UNL     1      44.892 -21.203   5.778  1.00  0.00     0.189 HD
HETATM    7  N   UNL     1      43.974 -19.707   6.798  1.00  0.00    -0.168 NA
HETATM    8  C   UNL     1      43.369 -18.587   6.341  1.00  0.00     0.156 A 
HETATM    9  C   UNL     1      44.368 -19.973   3.189  1.00  0.00     0.034 A 
HETATM   10  C   UNL     1      43.909 -19.067   2.224  1.00  0.00     0.032 A 
ENDROOT
BRANCH   1  11
HETATM   11  N   UNL     1      42.786 -17.077   1.504  1.00  0.00    -0.324 N 
HETATM   12  C   UNL     1      41.490 -16.870   1.076  1.00  0.00     0.245 C 
HETATM   13  O   UNL     1      40.466 -17.319   1.570  1.00  0.00    -0.268 OA
HETATM   14  H   UNL     1      43.522 -16.612   0.992  1.00  0.00     0.169 HD
BRANCH  12  15
HETATM   15  C   UNL     1      41.439 -16.004  -0.138  1.00  0.00     0.075 C 
HETATM   16  C   UNL     1      41.819 -14.720  -0.053  1.00  0.00     0.017 C 
BRANCH  16  17
HETATM   17  C   UNL     1      41.792 -13.771  -1.174  1.00  0.00    -0.036 A 
HETATM   18  C   UNL     1      42.257 -12.453  -1.053  1.00  0.00     0.013 A 
HETATM   19  C   UNL     1      42.255 -11.595  -2.157  1.00  0.00     0.024 A 
HETATM   20  C   UNL     1      41.800 -12.053  -3.391  1.00  0.00     0.034 A 
HETATM   21  C   UNL     1      41.348 -13.362  -3.531  1.00  0.00     0.024 A 
HETATM   22 CL   UNL     1      41.805 -10.998  -4.750  1.00  0.00    -0.084 Cl
HETATM   23  C   UNL     1      41.351 -14.220  -2.427  1.00  0.00     0.013 A 
ENDBRANCH  16  17
ENDBRANCH  12  15
ENDBRANCH   1  11
BRANCH   8  24
HETATM   24  C   UNL     1      42.755 -17.625   7.266  1.00  0.00     0.270 C 
HETATM   25  N   UNL     1      43.375 -17.547   8.483  1.00  0.00    -0.365 N 
HETATM   26  H   UNL     1      44.181 -18.137   8.656  1.00  0.00     0.159 HD
HETATM   27  H   UNL     1      43.021 -16.915   9.183  1.00  0.00     0.159 HD
HETATM   28  O   UNL     1      41.775 -16.935   7.009  1.00  0.00    -0.266 OA
ENDBRANCH   8  24
TORSDOF 4
ENDMDL
MODEL 7
REMARK VINA RESULT:      -7.9      2.553      3.738
REMARK  4 active torsions:
REMARK  status: ('A' for Active; 'I' for Inactive)
REMARK    1  A    between atoms: C_2  and  C_3 
REMARK    2  A    between atoms: C_4  and  C_5 
REMARK       I    between atoms: C_5  and  N_6 
REMARK    3  A    between atoms: N_6  and  C_7 
REMARK    4  A    between atoms: C_14  and  C_15 
REMARK       I    between atoms: C_15  and  N_16 
ROOT
HETATM    1  C   UNL     1      43.704 -11.642   9.571  1.00  0.00     0.035 A 
HETATM    2  C   UNL     1      42.720 -10.663   9.374  1.00  0.00     0.046 A 
HETATM    3  C   UNL     1      42.465  -9.714  10.389  1.00  0.00     0.030 A 
HETATM    4  C   UNL     1      43.205  -9.774  11.564  1.00  0.00     0.063 A 
HETATM    5  N   UNL     1      42.737  -8.751  12.339  1.00  0.00    -0.277 N 
HETATM    6  H   UNL     1      43.048  -8.495  13.270  1.00  0.00     0.189 HD
HETATM    7  N   UNL     1      41.755  -8.028  11.776  1.00  0.00    -0.168 NA
HETATM    8  C   UNL     1      41.575  -8.611  10.569  1.00  0.00     0.156 A 
HETATM    9  C   UNL     1      44.197 -10.729  11.792  1.00  0.00     0.034 A 
HETATM   10  C   UNL     1      44.427 -11.660  10.772  1.00  0.00     0.032 A 
ENDROOT
BRANCH   1  11
HETATM   11  N   UNL     1      44.014 -12.648   8.629  1.00  0.00    -0.324 N 
HETATM   12  C   UNL     1      45.235 -12.891   8.032  1.00  0.00     0.245 C 
HETATM   13  O   UNL     1      46.292 -12.313   8.244  1.00  0.00    -0.268 OA
HETATM   14  H   UNL     1      43.240 -13.235   8.352  1.00  0.00     0.169 HD
BRANCH  12  15
HETATM   15  C   UNL     1      45.151 -13.985   7.022  1.00  0.00     0.075 C 
HETATM   16  C   UNL     1      44.324 -15.021   7.233  1.00  0.00     0.017 C 
BRANCH  16  17
HETATM   17  C   UNL     1      44.173 -16.162   6.321  1.00  0.00    -0.036 A 
HETATM   18  C   UNL     1      43.426 -16.083   5.137  1.00  0.00     0.013 A 
HETATM   19  C   UNL     1      43.344 -17.179   4.272  1.00  0.00     0.024 A 
HETATM   20  C   UNL     1      44.019 -18.357   4.581  1.00  0.00     0.034 A 
HETATM   21  C   UNL     1      44.777 -18.448   5.745  1.00  0.00     0.024 A 
HETATM   22 CL   UNL     1      43.923 -19.702   3.513  1.00  0.00    -0.084 Cl
HETATM   23  C   UNL     1      44.859 -17.351   6.609  1.00  0.00     0.013 A 
ENDBRANCH  16  17
ENDBRANCH  12  15
ENDBRANCH   1  11
BRANCH   8  24
HETATM   24  C   UNL     1      40.566  -8.108   9.626  1.00  0.00     0.270 C 
HETATM   25  N   UNL     1      39.277  -8.237  10.068  1.00  0.00    -0.365 N 
HETATM   26  H   UNL     1      39.115  -8.655  10.976  1.00  0.00     0.159 HD
HETATM   27  H   UNL     1      38.518  -7.922   9.486  1.00  0.00     0.159 HD
HETATM   28  O   UNL     1      40.815  -7.612   8.534  1.00  0.00    -0.266 OA
ENDBRANCH   8  24
TORSDOF 4
ENDMDL
MODEL 8
REMARK VINA RESULT:      -7.8      3.768      4.378
REMARK  4 active torsions:
REMARK  status: ('A' for Active; 'I' for Inactive)
REMARK    1  A    between atoms: C_2  and  C_3 
REMARK    2  A    between atoms: C_4  and  C_5 
REMARK       I    between atoms: C_5  and  N_6 
REMARK    3  A    between atoms: N_6  and  C_7 
REMARK    4  A    between atoms: C_14  and  C_15 
REMARK       I    between atoms: C_15  and  N_16 
ROOT
HETATM    1  C   UNL     1      41.197 -13.343   4.835  1.00  0.00     0.035 A 
HETATM    2  C   UNL     1      41.584 -12.685   6.011  1.00  0.00     0.046 A 
HETATM    3  C   UNL     1      40.807 -11.611   6.499  1.00  0.00     0.030 A 
HETATM    4  C   UNL     1      39.668 -11.235   5.799  1.00  0.00     0.063 A 
HETATM    5  N   UNL     1      39.140 -10.188   6.499  1.00  0.00    -0.277 N 
HETATM    6  H   UNL     1      38.304  -9.660   6.277  1.00  0.00     0.189 HD
HETATM    7  N   UNL     1      39.835  -9.844   7.597  1.00  0.00    -0.168 NA
HETATM    8  C   UNL     1      40.870 -10.716   7.611  1.00  0.00     0.156 A 
HETATM    9  C   UNL     1      39.247 -11.871   4.630  1.00  0.00     0.034 A 
HETATM   10  C   UNL     1      40.037 -12.929   4.164  1.00  0.00     0.032 A 
ENDROOT
BRANCH   1  11
HETATM   11  N   UNL     1      41.921 -14.408   4.253  1.00  0.00    -0.324 N 
HETATM   12  C   UNL     1      42.830 -14.336   3.217  1.00  0.00     0.245 C 
HETATM   13  O   UNL     1      43.219 -13.331   2.640  1.00  0.00    -0.268 OA
HETATM   14  H   UNL     1      41.724 -15.323   4.632  1.00  0.00     0.169 HD
BRANCH  12  15
HETATM   15  C   UNL     1      43.323 -15.686   2.817  1.00  0.00     0.075 C 
HETATM   16  C   UNL     1      43.017 -16.754   3.571  1.00  0.00     0.017 C 
BRANCH  16  17
HETATM   17  C   UNL     1      43.462 -18.125   3.288  1.00  0.00    -0.036 A 
HETATM   18  C   UNL     1      44.259 -18.855   4.180  1.00  0.00     0.013 A 
HETATM   19  C   UNL     1      44.624 -20.174   3.893  1.00  0.00     0.024 A 
HETATM   20  C   UNL     1      44.184 -20.774   2.716  1.00  0.00     0.034 A 
HETATM   21  C   UNL     1      43.379 -20.068   1.826  1.00  0.00     0.024 A 
HETATM   22 CL   UNL     1      44.628 -22.399   2.367  1.00  0.00    -0.084 Cl
HETATM   23  C   UNL     1      43.015 -18.749   2.114  1.00  0.00     0.013 A 
ENDBRANCH  16  17
ENDBRANCH  12  15
ENDBRANCH   1  11
BRANCH   8  24
HETATM   24  C   UNL     1      41.885 -10.671   8.672  1.00  0.00     0.270 C 
HETATM   25  N   UNL     1      41.434 -11.092   9.894  1.00  0.00    -0.365 N 
HETATM   26  H   UNL     1      40.469 -11.391   9.979  1.00  0.00     0.159 HD
HETATM   27  H   UNL     1      42.060 -11.093  10.683  1.00  0.00     0.159 HD
HETATM   28  O   UNL     1      43.042 -10.298   8.519  1.00  0.00    -0.266 OA
ENDBRANCH   8  24
TORSDOF 4
ENDMDL
MODEL 9
REMARK VINA RESULT:      -7.8      7.410      9.598
REMARK  4 active torsions:
REMARK  status: ('A' for Active; 'I' for Inactive)
REMARK    1  A    between atoms: C_2  and  C_3 
REMARK    2  A    between atoms: C_4  and  C_5 
REMARK       I    between atoms: C_5  and  N_6 
REMARK    3  A    between atoms: N_6  and  C_7 
REMARK    4  A    between atoms: C_14  and  C_15 
REMARK       I    between atoms: C_15  and  N_16 
ROOT
HETATM    1  C   UNL     1      40.644 -15.319  -1.255  1.00  0.00     0.035 A 
HETATM    2  C   UNL     1      39.804 -14.235  -0.965  1.00  0.00     0.046 A 
HETATM    3  C   UNL     1      39.479 -13.310  -1.983  1.00  0.00     0.030 A 
HETATM    4  C   UNL     1      40.002 -13.504  -3.255  1.00  0.00     0.063 A 
HETATM    5  N   UNL     1      39.523 -12.467  -4.005  1.00  0.00    -0.277 N 
HETATM    6  H   UNL     1      39.702 -12.286  -4.987  1.00  0.00     0.189 HD
HETATM    7  N   UNL     1      38.735 -11.611  -3.335  1.00  0.00    -0.168 NA
HETATM    8  C   UNL     1      38.698 -12.119  -2.081  1.00  0.00     0.156 A 
HETATM    9  C   UNL     1      40.834 -14.575  -3.583  1.00  0.00     0.034 A 
HETATM   10  C   UNL     1      41.143 -15.475  -2.555  1.00  0.00     0.032 A 
ENDROOT
BRANCH   1  11
HETATM   11  N   UNL     1      41.047 -16.281  -0.301  1.00  0.00    -0.324 N 
HETATM   12  C   UNL     1      41.842 -16.079   0.809  1.00  0.00     0.245 C 
HETATM   13  O   UNL     1      42.306 -15.019   1.205  1.00  0.00    -0.268 OA
HETATM   14  H   UNL     1      40.729 -17.224  -0.476  1.00  0.00     0.169 HD
BRANCH  12  15
HETATM   15  C   UNL     1      42.123 -17.354   1.529  1.00  0.00     0.075 C 
HETATM   16  C   UNL     1      43.371 -17.618   1.948  1.00  0.00     0.017 C 
BRANCH  16  17
HETATM   17  C   UNL     1      43.768 -18.847   2.648  1.00  0.00    -0.036 A 
HETATM   18  C   UNL     1      43.945 -20.067   1.980  1.00  0.00     0.013 A 
HETATM   19  C   UNL     1      44.368 -21.204   2.677  1.00  0.00     0.024 A 
HETATM   20  C   UNL     1      44.628 -21.124   4.043  1.00  0.00     0.034 A 
HETATM   21  C   UNL     1      44.472 -19.917   4.718  1.00  0.00     0.024 A 
HETATM   22 CL   UNL     1      45.155 -22.521   4.896  1.00  0.00    -0.084 Cl
HETATM   23  C   UNL     1      44.049 -18.780   4.020  1.00  0.00     0.013 A 
ENDBRANCH  16  17
ENDBRANCH  12  15
ENDBRANCH   1  11
BRANCH   8  24
HETATM   24  C   UNL     1      37.927 -11.459  -1.018  1.00  0.00     0.270 C 
HETATM   25  N   UNL     1      38.284 -10.157  -0.796  1.00  0.00    -0.365 N 
HETATM   26  H   UNL     1      39.027  -9.755  -1.355  1.00  0.00     0.159 HD
HETATM   27  H   UNL     1      37.811  -9.626  -0.082  1.00  0.00     0.159 HD
HETATM   28  O   UNL     1      37.036 -11.992  -0.365  1.00  0.00    -0.266 OA
ENDBRANCH   8  24
TORSDOF 4
ENDMDL
MODEL 10
REMARK VINA RESULT:      -7.8      6.773      9.943
REMARK  4 active torsions:
REMARK  status: ('A' for Active; 'I' for Inactive)
REMARK    1  A    between atoms: C_2  and  C_3 
REMARK    2  A    between atoms: C_4  and  C_5 
REMARK       I    between atoms: C_5  and  N_6 
REMARK    3  A    between atoms: N_6  and  C_7 
REMARK    4  A    between atoms: C_14  and  C_15 
REMARK       I    between atoms: C_15  and  N_16 
ROOT
HETATM    1  C   UNL     1      43.119 -17.488   2.393  1.00  0.00     0.035 A 
HETATM    2  C   UNL     1      43.446 -18.846   2.273  1.00  0.00     0.046 A 
HETATM    3  C   UNL     1      43.971 -19.538   3.388  1.00  0.00     0.030 A 
HETATM    4  C   UNL     1      44.145 -18.851   4.582  1.00  0.00     0.063 A 
HETATM    5  N   UNL     1      44.662 -19.767   5.455  1.00  0.00    -0.277 N 
HETATM    6  H   UNL     1      44.916 -19.615   6.425  1.00  0.00     0.189 HD
HETATM    7  N   UNL     1      44.842 -20.992   4.936  1.00  0.00    -0.168 NA
HETATM    8  C   UNL     1      44.419 -20.868   3.657  1.00  0.00     0.156 A 
HETATM    9  C   UNL     1      43.823 -17.503   4.741  1.00  0.00     0.034 A 
HETATM   10  C   UNL     1      43.309 -16.838   3.620  1.00  0.00     0.032 A 
ENDROOT
BRANCH   1  11
HETATM   11  N   UNL     1      42.614 -16.703   1.331  1.00  0.00    -0.324 N 
HETATM   12  C   UNL     1      41.291 -16.448   1.032  1.00  0.00     0.245 C 
HETATM   13  O   UNL     1      40.306 -16.811   1.659  1.00  0.00    -0.268 OA
HETATM   14  H   UNL     1      43.311 -16.309   0.715  1.00  0.00     0.169 HD
BRANCH  12  15
HETATM   15  C   UNL     1      41.149 -15.648  -0.219  1.00  0.00     0.075 C 
HETATM   16  C   UNL     1      41.829 -14.498  -0.352  1.00  0.00     0.017 C 
BRANCH  16  17
HETATM   17  C   UNL     1      41.753 -13.621  -1.527  1.00  0.00    -0.036 A 
HETATM   18  C   UNL     1      40.916 -13.898  -2.618  1.00  0.00     0.013 A 
HETATM   19  C   UNL     1      40.839 -13.012  -3.698  1.00  0.00     0.024 A 
HETATM   20  C   UNL     1      41.590 -11.839  -3.688  1.00  0.00     0.034 A 
HETATM   21  C   UNL     1      42.414 -11.542  -2.606  1.00  0.00     0.024 A 
HETATM   22 CL   UNL     1      41.489 -10.749  -5.014  1.00  0.00    -0.084 Cl
HETATM   23  C   UNL     1      42.490 -12.428  -1.526  1.00  0.00     0.013 A 
ENDBRANCH  16  17
ENDBRANCH  12  15
ENDBRANCH   1  11
BRANCH   8  24
HETATM   24  C   UNL     1      44.457 -22.008   2.731  1.00  0.00     0.270 C 
HETATM   25  N   UNL     1      44.042 -21.710   1.461  1.00  0.00    -0.365 N 
HETATM   26  H   UNL     1      43.747 -20.763   1.257  1.00  0.00     0.159 HD
HETATM   27  H   UNL     1      44.031 -22.432   0.759  1.00  0.00     0.159 HD
HETATM   28  O   UNL     1      44.820 -23.140   3.029  1.00  0.00    -0.266 OA
ENDBRANCH   8  24
TORSDOF 4
ENDMDL
