MODEL 1
REMARK VINA RESULT:      -8.0      0.000      0.000
REMARK  5 active torsions:
REMARK  status: ('A' for Active; 'I' for Inactive)
REMARK    1  A    between atoms: C_2  and  N_3 
REMARK    2  A    between atoms: C_7  and  N_8 
REMARK       I    between atoms: N_8  and  C_9 
REMARK       I    between atoms: C_9  and  N_10 
REMARK    3  A    between atoms: N_10  and  C_11 
REMARK    4  A    between atoms: C_11  and  C_12 
REMARK    5  A    between atoms: C_17  and  C_18 
ROOT
HETATM    1  N   UNL     1      39.756 -16.595   1.999  1.00  0.00    -0.293 N 
HETATM    2  C   UNL     1      40.822 -17.251   1.350  1.00  0.00     0.322 C 
HETATM    3  N   UNL     1      42.070 -16.770   1.624  1.00  0.00    -0.339 N 
HETATM    4  O   UNL     1      40.540 -18.246   0.708  1.00  0.00    -0.247 OA
HETATM    5  H   UNL     1      38.927 -17.170   2.105  1.00  0.00     0.172 HD
HETATM    6  H   UNL     1      42.155 -16.204   2.453  1.00  0.00     0.164 HD
ENDROOT
BRANCH   3   7
HETATM    7  C   UNL     1      43.178 -17.629   1.261  1.00  0.00     0.163 C 
BRANCH   7   8
HETATM    8  C   UNL     1      43.756 -18.489   2.356  1.00  0.00    -0.037 A 
HETATM    9  C   UNL     1      44.013 -19.839   2.059  1.00  0.00     0.051 A 
HETATM   10  C   UNL     1      44.447 -20.717   3.047  1.00  0.00     0.117 A 
HETATM   11  F   UNL     1      44.667 -22.000   2.735  1.00  0.00    -0.206 F 
HETATM   12  C   UNL     1      44.637 -20.287   4.351  1.00  0.00     0.058 A 
HETATM   13  C   UNL     1      44.388 -18.949   4.683  1.00  0.00     0.051 A 
HETATM   14  C   UNL     1      43.936 -18.061   3.682  1.00  0.00     0.025 A 
BRANCH  13  15
HETATM   15  C   UNL     1      44.563 -18.468   6.104  1.00  0.00     0.417 C 
HETATM   16  F   UNL     1      44.301 -19.417   7.042  1.00  0.00    -0.166 F 
HETATM   17  F   UNL     1      45.831 -18.035   6.346  1.00  0.00    -0.166 F 
HETATM   18  F   UNL     1      43.748 -17.415   6.390  1.00  0.00    -0.166 F 
ENDBRANCH  13  15
ENDBRANCH   7   8
ENDBRANCH   3   7
BRANCH   1  19
HETATM   19  C   UNL     1      39.701 -15.303   2.481  1.00  0.00     0.129 C 
HETATM   20  N   UNL     1      40.174 -14.734   3.644  1.00  0.00    -0.250 N 
HETATM   21  N   UNL     1      39.852 -13.425   3.738  1.00  0.00    -0.183 NA
HETATM   22  C   UNL     1      39.296 -13.135   2.562  1.00  0.00     0.142 C 
HETATM   23  C   UNL     1      39.201 -14.262   1.730  1.00  0.00     0.071 C 
BRANCH  20  24
HETATM   24  C   UNL     1      41.128 -15.284   4.604  1.00  0.00     0.104 C 
HETATM   25  C   UNL     1      40.560 -15.287   6.024  1.00  0.00     0.034 C 
HETATM   26  C   UNL     1      42.462 -14.537   4.543  1.00  0.00     0.034 C 
ENDBRANCH  20  24
ENDBRANCH   1  19
TORSDOF 5
ENDMDL
MODEL 2
REMARK VINA RESULT:      -8.0      1.609      3.346
REMARK  5 active torsions:
REMARK  status: ('A' for Active; 'I' for Inactive)
REMARK    1  A    between atoms: C_2  and  N_3 
REMARK    2  A    between atoms: C_7  and  N_8 
REMARK       I    between atoms: N_8  and  C_9 
REMARK       I    between atoms: C_9  and  N_10 
REMARK    3  A    between atoms: N_10  and  C_11 
REMARK    4  A    between atoms: C_11  and  C_12 
REMARK    5  A    between atoms: C_17  and  C_18 
ROOT
HETATM    1  N   UNL     1      40.174 -15.203   3.816  1.00  0.00    -0.293 N 
HETATM    2  C   UNL     1      40.710 -15.984   2.772  1.00  0.00     0.322 C 
HETATM    3  N   UNL     1      42.073 -16.026   2.701  1.00  0.00    -0.339 N 
HETATM    4  O   UNL     1      39.918 -16.633   2.115  1.00  0.00    -0.247 OA
HETATM    5  H   UNL     1      39.239 -15.480   4.094  1.00  0.00     0.172 HD
HETATM    6  H   UNL     1      42.569 -15.750   3.534  1.00  0.00     0.164 HD
ENDROOT
BRANCH   3   7
HETATM    7  C   UNL     1      42.637 -17.078   1.882  1.00  0.00     0.163 C 
BRANCH   7   8
HETATM    8  C   UNL     1      43.276 -18.234   2.609  1.00  0.00    -0.037 A 
HETATM    9  C   UNL     1      43.895 -17.966   3.843  1.00  0.00     0.051 A 
HETATM   10  C   UNL     1      44.596 -18.959   4.520  1.00  0.00     0.117 A 
HETATM   11  F   UNL     1      45.188 -18.667   5.685  1.00  0.00    -0.206 F 
HETATM   12  C   UNL     1      44.704 -20.239   3.999  1.00  0.00     0.058 A 
HETATM   13  C   UNL     1      44.102 -20.540   2.770  1.00  0.00     0.051 A 
HETATM   14  C   UNL     1      43.401 -19.528   2.077  1.00  0.00     0.025 A 
BRANCH  13  15
HETATM   15  C   UNL     1      44.233 -21.921   2.171  1.00  0.00     0.417 C 
HETATM   16  F   UNL     1      45.303 -22.062   1.345  1.00  0.00    -0.166 F 
HETATM   17  F   UNL     1      44.361 -22.883   3.127  1.00  0.00    -0.166 F 
HETATM   18  F   UNL     1      43.138 -22.265   1.439  1.00  0.00    -0.166 F 
ENDBRANCH  13  15
ENDBRANCH   7   8
ENDBRANCH   3   7
BRANCH   1  19
HETATM   19  C   UNL     1      40.743 -14.132   4.475  1.00  0.00     0.129 C 
HETATM   20  N   UNL     1      41.744 -14.060   5.420  1.00  0.00    -0.250 N 
HETATM   21  N   UNL     1      41.958 -12.793   5.841  1.00  0.00    -0.183 NA
HETATM   22  C   UNL     1      41.184 -12.048   5.051  1.00  0.00     0.142 C 
HETATM   23  C   UNL     1      40.426 -12.828   4.163  1.00  0.00     0.071 C 
BRANCH  20  24
HETATM   24  C   UNL     1      42.701 -15.091   5.813  1.00  0.00     0.104 C 
HETATM   25  C   UNL     1      42.023 -16.227   6.581  1.00  0.00     0.034 C 
HETATM   26  C   UNL     1      43.856 -14.491   6.619  1.00  0.00     0.034 C 
ENDBRANCH  20  24
ENDBRANCH   1  19
TORSDOF 5
ENDMDL
MODEL 3
REMARK VINA RESULT:      -7.9      1.273      3.556
REMARK  5 active torsions:
REMARK  status: ('A' for Active; 'I' for Inactive)
REMARK    1  A    between atoms: C_2  and  N_3 
REMARK    2  A    between atoms: C_7  and  N_8 
REMARK       I    between atoms: N_8  and  C_9 
REMARK       I    between atoms: C_9  and  N_10 
REMARK    3  A    between atoms: N_10  and  C_11 
REMARK    4  A    between atoms: C_11  and  C_12 
REMARK    5  A    between atoms: C_17  and  C_18 
ROOT
HETATM    1  N   UNL     1      39.795 -15.944   2.566  1.00  0.00    -0.293 N 
HETATM    2  C   UNL     1      40.815 -16.586   1.833  1.00  0.00     0.322 C 
HETATM    3  N   UNL     1      42.056 -16.025   1.927  1.00  0.00    -0.339 N 
HETATM    4  O   UNL     1      40.519 -17.633   1.290  1.00  0.00    -0.247 OA
HETATM    5  H   UNL     1      39.020 -16.552   2.804  1.00  0.00     0.172 HD
HETATM    6  H   UNL     1      42.204 -15.402   2.705  1.00  0.00     0.164 HD
ENDROOT
BRANCH   3   7
HETATM    7  C   UNL     1      43.162 -16.847   1.485  1.00  0.00     0.163 C 
BRANCH   7   8
HETATM    8  C   UNL     1      43.525 -18.022   2.359  1.00  0.00    -0.037 A 
HETATM    9  C   UNL     1      43.944 -17.751   3.673  1.00  0.00     0.051 A 
HETATM   10  C   UNL     1      44.394 -18.773   4.503  1.00  0.00     0.117 A 
HETATM   11  F   UNL     1      44.802 -18.480   5.744  1.00  0.00    -0.206 F 
HETATM   12  C   UNL     1      44.444 -20.085   4.058  1.00  0.00     0.058 A 
HETATM   13  C   UNL     1      44.037 -20.390   2.753  1.00  0.00     0.051 A 
HETATM   14  C   UNL     1      43.591 -19.350   1.906  1.00  0.00     0.025 A 
BRANCH  13  15
HETATM   15  C   UNL     1      44.110 -21.809   2.239  1.00  0.00     0.417 C 
HETATM   16  F   UNL     1      44.226 -22.742   3.220  1.00  0.00    -0.166 F 
HETATM   17  F   UNL     1      43.006 -22.150   1.519  1.00  0.00    -0.166 F 
HETATM   18  F   UNL     1      45.171 -21.996   1.407  1.00  0.00    -0.166 F 
ENDBRANCH  13  15
ENDBRANCH   7   8
ENDBRANCH   3   7
BRANCH   1  19
HETATM   19  C   UNL     1      39.721 -14.628   2.975  1.00  0.00     0.129 C 
HETATM   20  N   UNL     1      39.385 -13.473   2.301  1.00  0.00    -0.250 N 
HETATM   21  N   UNL     1      39.494 -12.376   3.083  1.00  0.00    -0.183 NA
HETATM   22  C   UNL     1      39.763 -12.860   4.295  1.00  0.00     0.142 C 
HETATM   23  C   UNL     1      39.889 -14.259   4.291  1.00  0.00     0.071 C 
BRANCH  20  24
HETATM   24  C   UNL     1      38.734 -13.335   1.000  1.00  0.00     0.104 C 
HETATM   25  C   UNL     1      37.472 -14.194   0.906  1.00  0.00     0.034 C 
HETATM   26  C   UNL     1      39.707 -13.655  -0.138  1.00  0.00     0.034 C 
ENDBRANCH  20  24
ENDBRANCH   1  19
TORSDOF 5
ENDMDL
MODEL 4
REMARK VINA RESULT:      -7.8      1.756      2.228
REMARK  5 active torsions:
REMARK  status: ('A' for Active; 'I' for Inactive)
REMARK    1  A    between atoms: C_2  and  N_3 
REMARK    2  A    between atoms: C_7  and  N_8 
REMARK       I    between atoms: N_8  and  C_9 
REMARK       I    between atoms: C_9  and  N_10 
REMARK    3  A    between atoms: N_10  and  C_11 
REMARK    4  A    between atoms: C_11  and  C_12 
REMARK    5  A    between atoms: C_17  and  C_18 
ROOT
HETATM    1  N   UNL     1      40.529 -15.656   3.875  1.00  0.00    -0.293 N 
HETATM    2  C   UNL     1      40.899 -16.423   2.751  1.00  0.00     0.322 C 
HETATM    3  N   UNL     1      42.240 -16.580   2.555  1.00  0.00    -0.339 N 
HETATM    4  O   UNL     1      39.997 -16.964   2.139  1.00  0.00    -0.247 OA
HETATM    5  H   UNL     1      39.600 -15.867   4.224  1.00  0.00     0.172 HD
HETATM    6  H   UNL     1      42.830 -16.394   3.350  1.00  0.00     0.164 HD
ENDROOT
BRANCH   3   7
HETATM    7  C   UNL     1      42.633 -17.630   1.639  1.00  0.00     0.163 C 
BRANCH   7   8
HETATM    8  C   UNL     1      43.298 -18.842   2.243  1.00  0.00    -0.037 A 
HETATM    9  C   UNL     1      43.496 -19.959   1.412  1.00  0.00     0.051 A 
HETATM   10  C   UNL     1      44.007 -21.147   1.925  1.00  0.00     0.117 A 
HETATM   11  F   UNL     1      44.168 -22.198   1.111  1.00  0.00    -0.206 F 
HETATM   12  C   UNL     1      44.334 -21.264   3.266  1.00  0.00     0.058 A 
HETATM   13  C   UNL     1      44.147 -20.172   4.123  1.00  0.00     0.051 A 
HETATM   14  C   UNL     1      43.617 -18.969   3.605  1.00  0.00     0.025 A 
BRANCH  13  15
HETATM   15  C   UNL     1      44.471 -20.288   5.594  1.00  0.00     0.417 C 
HETATM   16  F   UNL     1      43.378 -20.256   6.401  1.00  0.00    -0.166 F 
HETATM   17  F   UNL     1      45.124 -21.447   5.884  1.00  0.00    -0.166 F 
HETATM   18  F   UNL     1      45.287 -19.284   6.018  1.00  0.00    -0.166 F 
ENDBRANCH  13  15
ENDBRANCH   7   8
ENDBRANCH   3   7
BRANCH   1  19
HETATM   19  C   UNL     1      41.248 -14.677   4.528  1.00  0.00     0.129 C 
HETATM   20  N   UNL     1      42.221 -14.745   5.503  1.00  0.00    -0.250 N 
HETATM   21  N   UNL     1      42.629 -13.520   5.903  1.00  0.00    -0.183 NA
HETATM   22  C   UNL     1      42.011 -12.679   5.074  1.00  0.00     0.142 C 
HETATM   23  C   UNL     1      41.160 -13.347   4.179  1.00  0.00     0.071 C 
BRANCH  20  24
HETATM   24  C   UNL     1      42.984 -15.909   5.948  1.00  0.00     0.104 C 
HETATM   25  C   UNL     1      42.105 -16.902   6.709  1.00  0.00     0.034 C 
HETATM   26  C   UNL     1      44.193 -15.486   6.785  1.00  0.00     0.034 C 
ENDBRANCH  20  24
ENDBRANCH   1  19
TORSDOF 5
ENDMDL
MODEL 5
REMARK VINA RESULT:      -7.6      1.007      2.124
REMARK  5 active torsions:
REMARK  status: ('A' for Active; 'I' for Inactive)
REMARK    1  A    between atoms: C_2  and  N_3 
REMARK    2  A    between atoms: C_7  and  N_8 
REMARK       I    between atoms: N_8  and  C_9 
REMARK       I    between atoms: C_9  and  N_10 
REMARK    3  A    between atoms: N_10  and  C_11 
REMARK    4  A    between atoms: C_11  and  C_12 
REMARK    5  A    between atoms: C_17  and  C_18 
ROOT
HETATM    1  N   UNL     1      39.836 -16.188   2.340  1.00  0.00    -0.293 N 
HETATM    2  C   UNL     1      40.850 -16.854   1.621  1.00  0.00     0.322 C 
HETATM    3  N   UNL     1      42.110 -16.349   1.767  1.00  0.00    -0.339 N 
HETATM    4  O   UNL     1      40.528 -17.874   1.041  1.00  0.00    -0.247 OA
HETATM    5  H   UNL     1      39.028 -16.768   2.538  1.00  0.00     0.172 HD
HETATM    6  H   UNL     1      42.260 -15.753   2.565  1.00  0.00     0.164 HD
ENDROOT
BRANCH   3   7
HETATM    7  C   UNL     1      43.194 -17.207   1.336  1.00  0.00     0.163 C 
BRANCH   7   8
HETATM    8  C   UNL     1      43.744 -18.169   2.359  1.00  0.00    -0.037 A 
HETATM    9  C   UNL     1      43.960 -19.498   1.954  1.00  0.00     0.051 A 
HETATM   10  C   UNL     1      44.365 -20.465   2.868  1.00  0.00     0.117 A 
HETATM   11  F   UNL     1      44.546 -21.726   2.455  1.00  0.00    -0.206 F 
HETATM   12  C   UNL     1      44.566 -20.148   4.202  1.00  0.00     0.058 A 
HETATM   13  C   UNL     1      44.358 -18.834   4.641  1.00  0.00     0.051 A 
HETATM   14  C   UNL     1      43.935 -17.854   3.715  1.00  0.00     0.025 A 
BRANCH  13  15
HETATM   15  C   UNL     1      44.545 -18.473   6.096  1.00  0.00     0.417 C 
HETATM   16  F   UNL     1      44.301 -19.500   6.952  1.00  0.00    -0.166 F 
HETATM   17  F   UNL     1      45.812 -18.051   6.360  1.00  0.00    -0.166 F 
HETATM   18  F   UNL     1      43.725 -17.456   6.479  1.00  0.00    -0.166 F 
ENDBRANCH  13  15
ENDBRANCH   7   8
ENDBRANCH   3   7
BRANCH   1  19
HETATM   19  C   UNL     1      39.805 -14.880   2.780  1.00  0.00     0.129 C 
HETATM   20  N   UNL     1      39.484 -13.701   2.141  1.00  0.00    -0.250 N 
HETATM   21  N   UNL     1      39.638 -12.627   2.947  1.00  0.00    -0.183 NA
HETATM   22  C   UNL     1      39.920 -13.147   4.141  1.00  0.00     0.142 C 
HETATM   23  C   UNL     1      40.009 -14.548   4.101  1.00  0.00     0.071 C 
BRANCH  20  24
HETATM   24  C   UNL     1      38.810 -13.516   0.858  1.00  0.00     0.104 C 
HETATM   25  C   UNL     1      37.440 -14.194   0.837  1.00  0.00     0.034 C 
HETATM   26  C   UNL     1      39.686 -14.002  -0.299  1.00  0.00     0.034 C 
ENDBRANCH  20  24
ENDBRANCH   1  19
TORSDOF 5
ENDMDL
MODEL 6
REMARK VINA RESULT:      -7.6      1.769      2.122
REMARK  5 active torsions:
REMARK  status: ('A' for Active; 'I' for Inactive)
REMARK    1  A    between atoms: C_2  and  N_3 
REMARK    2  A    between atoms: C_7  and  N_8 
REMARK       I    between atoms: N_8  and  C_9 
REMARK       I    between atoms: C_9  and  N_10 
REMARK    3  A    between atoms: N_10  and  C_11 
REMARK    4  A    between atoms: C_11  and  C_12 
REMARK    5  A    between atoms: C_17  and  C_18 
ROOT
HETATM    1  N   UNL     1      40.946 -15.562   1.169  1.00  0.00    -0.293 N 
HETATM    2  C   UNL     1      41.595 -16.783   0.887  1.00  0.00     0.322 C 
HETATM    3  N   UNL     1      42.959 -16.754   0.931  1.00  0.00    -0.339 N 
HETATM    4  O   UNL     1      40.883 -17.759   0.752  1.00  0.00    -0.247 OA
HETATM    5  H   UNL     1      39.998 -15.674   1.511  1.00  0.00     0.172 HD
HETATM    6  H   UNL     1      43.371 -15.977   1.423  1.00  0.00     0.164 HD
ENDROOT
BRANCH   3   7
HETATM    7  C   UNL     1      43.622 -18.039   0.996  1.00  0.00     0.163 C 
BRANCH   7   8
HETATM    8  C   UNL     1      43.994 -18.540   2.369  1.00  0.00    -0.037 A 
HETATM    9  C   UNL     1      44.334 -19.899   2.497  1.00  0.00     0.051 A 
HETATM   10  C   UNL     1      44.586 -20.456   3.746  1.00  0.00     0.117 A 
HETATM   11  F   UNL     1      44.890 -21.757   3.836  1.00  0.00    -0.206 F 
HETATM   12  C   UNL     1      44.509 -19.691   4.899  1.00  0.00     0.058 A 
HETATM   13  C   UNL     1      44.171 -18.334   4.808  1.00  0.00     0.051 A 
HETATM   14  C   UNL     1      43.903 -17.771   3.540  1.00  0.00     0.025 A 
BRANCH  13  15
HETATM   15  C   UNL     1      44.055 -17.489   6.055  1.00  0.00     0.417 C 
HETATM   16  F   UNL     1      43.978 -16.154   5.808  1.00  0.00    -0.166 F 
HETATM   17  F   UNL     1      42.950 -17.804   6.785  1.00  0.00    -0.166 F 
HETATM   18  F   UNL     1      45.116 -17.662   6.890  1.00  0.00    -0.166 F 
ENDBRANCH  13  15
ENDBRANCH   7   8
ENDBRANCH   3   7
BRANCH   1  19
HETATM   19  C   UNL     1      41.425 -14.276   1.027  1.00  0.00     0.129 C 
HETATM   20  N   UNL     1      41.905 -13.366   1.945  1.00  0.00    -0.250 N 
HETATM   21  N   UNL     1      42.227 -12.185   1.372  1.00  0.00    -0.183 NA
HETATM   22  C   UNL     1      42.083 -12.402   0.065  1.00  0.00     0.142 C 
HETATM   23  C   UNL     1      41.612 -13.696  -0.209  1.00  0.00     0.071 C 
BRANCH  20  24
HETATM   24  C   UNL     1      42.307 -13.597   3.330  1.00  0.00     0.104 C 
HETATM   25  C   UNL     1      42.010 -12.384   4.213  1.00  0.00     0.034 C 
HETATM   26  C   UNL     1      43.783 -13.995   3.415  1.00  0.00     0.034 C 
ENDBRANCH  20  24
ENDBRANCH   1  19
TORSDOF 5
ENDMDL
MODEL 7
REMARK VINA RESULT:      -7.5      2.143      4.053
REMARK  5 active torsions:
REMARK  status: ('A' for Active; 'I' for Inactive)
REMARK    1  A    between atoms: C_2  and  N_3 
REMARK    2  A    between atoms: C_7  and  N_8 
REMARK       I    between atoms: N_8  and  C_9 
REMARK       I    between atoms: C_9  and  N_10 
REMARK    3  A    between atoms: N_10  and  C_11 
REMARK    4  A    between atoms: C_11  and  C_12 
REMARK    5  A    between atoms: C_17  and  C_18 
ROOT
HETATM    1  N   UNL     1      41.223 -13.867   3.324  1.00  0.00    -0.293 N 
HETATM    2  C   UNL     1      41.301 -14.632   4.506  1.00  0.00     0.322 C 
HETATM    3  N   UNL     1      40.690 -15.852   4.465  1.00  0.00    -0.339 N 
HETATM    4  O   UNL     1      41.998 -14.187   5.399  1.00  0.00    -0.247 OA
HETATM    5  H   UNL     1      41.969 -13.187   3.229  1.00  0.00     0.172 HD
HETATM    6  H   UNL     1      40.494 -16.220   3.547  1.00  0.00     0.164 HD
ENDROOT
BRANCH   3   7
HETATM    7  C   UNL     1      41.050 -16.781   5.515  1.00  0.00     0.163 C 
BRANCH   7   8
HETATM    8  C   UNL     1      42.266 -17.640   5.271  1.00  0.00    -0.037 A 
HETATM    9  C   UNL     1      43.244 -17.686   6.280  1.00  0.00     0.051 A 
HETATM   10  C   UNL     1      44.439 -18.372   6.085  1.00  0.00     0.117 A 
HETATM   11  F   UNL     1      45.358 -18.383   7.059  1.00  0.00    -0.206 F 
HETATM   12  C   UNL     1      44.700 -19.027   4.891  1.00  0.00     0.058 A 
HETATM   13  C   UNL     1      43.748 -18.999   3.863  1.00  0.00     0.051 A 
HETATM   14  C   UNL     1      42.540 -18.293   4.058  1.00  0.00     0.025 A 
BRANCH  13  15
HETATM   15  C   UNL     1      44.025 -19.683   2.545  1.00  0.00     0.417 C 
HETATM   16  F   UNL     1      43.027 -20.509   2.135  1.00  0.00    -0.166 F 
HETATM   17  F   UNL     1      44.216 -18.789   1.536  1.00  0.00    -0.166 F 
HETATM   18  F   UNL     1      45.154 -20.442   2.591  1.00  0.00    -0.166 F 
ENDBRANCH  13  15
ENDBRANCH   7   8
ENDBRANCH   3   7
BRANCH   1  19
HETATM   19  C   UNL     1      40.278 -13.921   2.320  1.00  0.00     0.129 C 
HETATM   20  N   UNL     1      40.299 -14.495   1.066  1.00  0.00    -0.250 N 
HETATM   21  N   UNL     1      39.158 -14.261   0.380  1.00  0.00    -0.183 NA
HETATM   22  C   UNL     1      38.359 -13.658   1.261  1.00  0.00     0.142 C 
HETATM   23  C   UNL     1      38.996 -13.446   2.494  1.00  0.00     0.071 C 
BRANCH  20  24
HETATM   24  C   UNL     1      41.247 -15.465   0.525  1.00  0.00     0.104 C 
HETATM   25  C   UNL     1      41.207 -15.501  -1.003  1.00  0.00     0.034 C 
HETATM   26  C   UNL     1      41.009 -16.856   1.117  1.00  0.00     0.034 C 
ENDBRANCH  20  24
ENDBRANCH   1  19
TORSDOF 5
ENDMDL
MODEL 8
REMARK VINA RESULT:      -7.5      1.832      3.045
REMARK  5 active torsions:
REMARK  status: ('A' for Active; 'I' for Inactive)
REMARK    1  A    between atoms: C_2  and  N_3 
REMARK    2  A    between atoms: C_7  and  N_8 
REMARK       I    between atoms: N_8  and  C_9 
REMARK       I    between atoms: C_9  and  N_10 
REMARK    3  A    between atoms: N_10  and  C_11 
REMARK    4  A    between atoms: C_11  and  C_12 
REMARK    5  A    between atoms: C_17  and  C_18 
ROOT
HETATM    1  N   UNL     1      40.968 -15.784   1.434  1.00  0.00    -0.293 N 
HETATM    2  C   UNL     1      41.597 -17.013   1.148  1.00  0.00     0.322 C 
HETATM    3  N   UNL     1      42.962 -16.992   1.136  1.00  0.00    -0.339 N 
HETATM    4  O   UNL     1      40.875 -17.987   1.059  1.00  0.00    -0.247 OA
HETATM    5  H   UNL     1      40.034 -15.883   1.817  1.00  0.00     0.172 HD
HETATM    6  H   UNL     1      43.399 -16.210   1.597  1.00  0.00     0.164 HD
ENDROOT
BRANCH   3   7
HETATM    7  C   UNL     1      43.620 -18.280   1.197  1.00  0.00     0.163 C 
BRANCH   7   8
HETATM    8  C   UNL     1      43.872 -18.848   2.571  1.00  0.00    -0.037 A 
HETATM    9  C   UNL     1      43.976 -17.942   3.641  1.00  0.00     0.051 A 
HETATM   10  C   UNL     1      44.311 -18.382   4.918  1.00  0.00     0.117 A 
HETATM   11  F   UNL     1      44.419 -17.492   5.913  1.00  0.00    -0.206 F 
HETATM   12  C   UNL     1      44.553 -19.723   5.171  1.00  0.00     0.058 A 
HETATM   13  C   UNL     1      44.461 -20.653   4.127  1.00  0.00     0.051 A 
HETATM   14  C   UNL     1      44.132 -20.204   2.828  1.00  0.00     0.025 A 
BRANCH  13  15
HETATM   15  C   UNL     1      44.748 -22.115   4.375  1.00  0.00     0.417 C 
HETATM   16  F   UNL     1      43.762 -22.762   5.050  1.00  0.00    -0.166 F 
HETATM   17  F   UNL     1      44.930 -22.805   3.216  1.00  0.00    -0.166 F 
HETATM   18  F   UNL     1      45.887 -22.296   5.099  1.00  0.00    -0.166 F 
ENDBRANCH  13  15
ENDBRANCH   7   8
ENDBRANCH   3   7
BRANCH   1  19
HETATM   19  C   UNL     1      41.449 -14.503   1.250  1.00  0.00     0.129 C 
HETATM   20  N   UNL     1      41.958 -13.575   2.134  1.00  0.00    -0.250 N 
HETATM   21  N   UNL     1      42.268 -12.409   1.525  1.00  0.00    -0.183 NA
HETATM   22  C   UNL     1      42.087 -12.654   0.228  1.00  0.00     0.142 C 
HETATM   23  C   UNL     1      41.603 -13.952  -0.003  1.00  0.00     0.071 C 
BRANCH  20  24
HETATM   24  C   UNL     1      42.398 -13.777   3.512  1.00  0.00     0.104 C 
HETATM   25  C   UNL     1      42.105 -12.555   4.383  1.00  0.00     0.034 C 
HETATM   26  C   UNL     1      43.881 -14.152   3.566  1.00  0.00     0.034 C 
ENDBRANCH  20  24
ENDBRANCH   1  19
TORSDOF 5
ENDMDL
MODEL 9
REMARK VINA RESULT:      -7.5      2.599      4.010
REMARK  5 active torsions:
REMARK  status: ('A' for Active; 'I' for Inactive)
REMARK    1  A    between atoms: C_2  and  N_3 
REMARK    2  A    between atoms: C_7  and  N_8 
REMARK       I    between atoms: N_8  and  C_9 
REMARK       I    between atoms: C_9  and  N_10 
REMARK    3  A    between atoms: N_10  and  C_11 
REMARK    4  A    between atoms: C_11  and  C_12 
REMARK    5  A    between atoms: C_17  and  C_18 
ROOT
HETATM    1  N   UNL     1      40.373 -14.816   6.189  1.00  0.00    -0.293 N 
HETATM    2  C   UNL     1      40.968 -16.088   6.309  1.00  0.00     0.322 C 
HETATM    3  N   UNL     1      42.333 -16.111   6.272  1.00  0.00    -0.339 N 
HETATM    4  O   UNL     1      40.223 -17.019   6.550  1.00  0.00    -0.247 OA
HETATM    5  H   UNL     1      39.445 -14.760   6.595  1.00  0.00     0.172 HD
HETATM    6  H   UNL     1      42.796 -15.234   6.448  1.00  0.00     0.164 HD
ENDROOT
BRANCH   3   7
HETATM    7  C   UNL     1      42.963 -17.328   6.739  1.00  0.00     0.163 C 
BRANCH   7   8
HETATM    8  C   UNL     1      43.365 -18.330   5.685  1.00  0.00    -0.037 A 
HETATM    9  C   UNL     1      44.000 -19.508   6.115  1.00  0.00     0.051 A 
HETATM   10  C   UNL     1      44.493 -20.429   5.196  1.00  0.00     0.117 A 
HETATM   11  F   UNL     1      45.108 -21.533   5.638  1.00  0.00    -0.206 F 
HETATM   12  C   UNL     1      44.374 -20.211   3.833  1.00  0.00     0.058 A 
HETATM   13  C   UNL     1      43.749 -19.046   3.369  1.00  0.00     0.051 A 
HETATM   14  C   UNL     1      43.259 -18.105   4.303  1.00  0.00     0.025 A 
BRANCH  13  15
HETATM   15  C   UNL     1      43.633 -18.776   1.887  1.00  0.00     0.417 C 
HETATM   16  F   UNL     1      44.507 -17.841   1.429  1.00  0.00    -0.166 F 
HETATM   17  F   UNL     1      43.853 -19.896   1.145  1.00  0.00    -0.166 F 
HETATM   18  F   UNL     1      42.391 -18.338   1.543  1.00  0.00    -0.166 F 
ENDBRANCH  13  15
ENDBRANCH   7   8
ENDBRANCH   3   7
BRANCH   1  19
HETATM   19  C   UNL     1      40.877 -13.678   5.592  1.00  0.00     0.129 C 
HETATM   20  N   UNL     1      41.419 -13.456   4.345  1.00  0.00    -0.250 N 
HETATM   21  N   UNL     1      41.840 -12.181   4.191  1.00  0.00    -0.183 NA
HETATM   22  C   UNL     1      41.430 -11.562   5.298  1.00  0.00     0.142 C 
HETATM   23  C   UNL     1      40.800 -12.441   6.194  1.00  0.00     0.071 C 
BRANCH  20  24
HETATM   24  C   UNL     1      41.372 -14.318   3.165  1.00  0.00     0.104 C 
HETATM   25  C   UNL     1      42.769 -14.778   2.747  1.00  0.00     0.034 C 
HETATM   26  C   UNL     1      40.648 -13.625   2.008  1.00  0.00     0.034 C 
ENDBRANCH  20  24
ENDBRANCH   1  19
TORSDOF 5
ENDMDL
MODEL 10
REMARK VINA RESULT:      -7.4      2.229      3.837
REMARK  5 active torsions:
REMARK  status: ('A' for Active; 'I' for Inactive)
REMARK    1  A    between atoms: C_2  and  N_3 
REMARK    2  A    between atoms: C_7  and  N_8 
REMARK       I    between atoms: N_8  and  C_9 
REMARK       I    between atoms: C_9  and  N_10 
REMARK    3  A    between atoms: N_10  and  C_11 
REMARK    4  A    between atoms: C_11  and  C_12 
REMARK    5  A    between atoms: C_17  and  C_18 
ROOT
HETATM    1  N   UNL     1      40.983 -15.879   1.543  1.00  0.00    -0.293 N 
HETATM    2  C   UNL     1      41.645 -17.084   1.229  1.00  0.00     0.322 C 
HETATM    3  N   UNL     1      43.006 -17.056   1.324  1.00  0.00    -0.339 N 
HETATM    4  O   UNL     1      40.941 -18.055   1.022  1.00  0.00    -0.247 OA
HETATM    5  H   UNL     1      40.023 -16.008   1.845  1.00  0.00     0.172 HD
HETATM    6  H   UNL     1      43.398 -16.303   1.867  1.00  0.00     0.164 HD
ENDROOT
BRANCH   3   7
HETATM    7  C   UNL     1      43.670 -18.342   1.354  1.00  0.00     0.163 C 
BRANCH   7   8
HETATM    8  C   UNL     1      43.929 -18.939   2.714  1.00  0.00    -0.037 A 
HETATM    9  C   UNL     1      44.052 -18.056   3.801  1.00  0.00     0.051 A 
HETATM   10  C   UNL     1      44.394 -18.525   5.066  1.00  0.00     0.117 A 
HETATM   11  F   UNL     1      44.520 -17.656   6.077  1.00  0.00    -0.206 F 
HETATM   12  C   UNL     1      44.626 -19.873   5.290  1.00  0.00     0.058 A 
HETATM   13  C   UNL     1      44.515 -20.781   4.229  1.00  0.00     0.051 A 
HETATM   14  C   UNL     1      44.179 -20.303   2.942  1.00  0.00     0.025 A 
BRANCH  13  15
HETATM   15  C   UNL     1      44.790 -22.250   4.446  1.00  0.00     0.417 C 
HETATM   16  F   UNL     1      43.843 -22.882   5.188  1.00  0.00    -0.166 F 
HETATM   17  F   UNL     1      44.870 -22.934   3.271  1.00  0.00    -0.166 F 
HETATM   18  F   UNL     1      45.976 -22.459   5.081  1.00  0.00    -0.166 F 
ENDBRANCH  13  15
ENDBRANCH   7   8
ENDBRANCH   3   7
BRANCH   1  19
HETATM   19  C   UNL     1      41.463 -14.587   1.478  1.00  0.00     0.129 C 
HETATM   20  N   UNL     1      41.828 -13.793   0.412  1.00  0.00    -0.250 N 
HETATM   21  N   UNL     1      42.300 -12.591   0.810  1.00  0.00    -0.183 NA
HETATM   22  C   UNL     1      42.096 -12.575   2.127  1.00  0.00     0.142 C 
HETATM   23  C   UNL     1      41.552 -13.782   2.593  1.00  0.00     0.071 C 
BRANCH  20  24
HETATM   24  C   UNL     1      41.555 -13.995  -1.009  1.00  0.00     0.104 C 
HETATM   25  C   UNL     1      42.337 -13.012  -1.880  1.00  0.00     0.034 C 
HETATM   26  C   UNL     1      40.054 -13.916  -1.297  1.00  0.00     0.034 C 
ENDBRANCH  20  24
ENDBRANCH   1  19
TORSDOF 5
ENDMDL
