MODEL 1
REMARK VINA RESULT:      -8.2      0.000      0.000
REMARK  6 active torsions:
REMARK  status: ('A' for Active; 'I' for Inactive)
REMARK    1  A    between atoms: C_2  and  C_3 
REMARK    2  A    between atoms: C_7  and  C_8 
REMARK       I    between atoms: C_8  and  N_9 
REMARK    3  A    between atoms: N_9  and  C_10 
REMARK    4  A    between atoms: C_10  and  C_11 
REMARK    5  A    between atoms: C_10  and  C_19 
REMARK    6  A    between atoms: C_14  and  O_15 
ROOT
HETATM    1  C   UNL     1      42.311 -17.723   3.569  1.00  0.00     0.151 C 
ENDROOT
BRANCH   1   2
HETATM    2  N   UNL     1      42.254 -16.808   2.442  1.00  0.00    -0.343 N 
HETATM    3  C   UNL     1      41.111 -16.584   1.721  1.00  0.00     0.270 C 
HETATM    4  O   UNL     1      40.045 -17.140   1.966  1.00  0.00    -0.266 OA
HETATM    5  H   UNL     1      43.105 -16.330   2.195  1.00  0.00     0.163 HD
BRANCH   3   6
HETATM    6  C   UNL     1      41.249 -15.649   0.636  1.00  0.00     0.119 A 
HETATM    7  N   UNL     1      40.880 -15.980  -0.641  1.00  0.00    -0.273 N 
HETATM    8  N   UNL     1      41.070 -15.001  -1.540  1.00  0.00    -0.179 NA
HETATM    9  H   UNL     1      40.492 -16.866  -0.952  1.00  0.00     0.189 HD
HETATM   10  C   UNL     1      41.576 -13.994  -0.819  1.00  0.00     0.056 A 
HETATM   11  C   UNL     1      41.711 -14.350   0.545  1.00  0.00     0.065 A 
BRANCH  10  12
HETATM   12  C   UNL     1      41.918 -12.694  -1.464  1.00  0.00     0.056 C 
HETATM   13  C   UNL     1      42.845 -12.868  -2.658  1.00  0.00     0.011 C 
ENDBRANCH  10  12
ENDBRANCH   3   6
ENDBRANCH   1   2
BRANCH   1  14
HETATM   14  C   UNL     1      42.811 -16.935   4.778  1.00  0.00    -0.031 A 
HETATM   15  C   UNL     1      43.467 -15.702   4.631  1.00  0.00     0.012 A 
HETATM   16  C   UNL     1      43.922 -15.003   5.752  1.00  0.00     0.037 A 
HETATM   17  C   UNL     1      43.735 -15.516   7.036  1.00  0.00     0.068 A 
HETATM   18  C   UNL     1      43.063 -16.728   7.195  1.00  0.00     0.037 A 
HETATM   19  C   UNL     1      42.602 -17.430   6.075  1.00  0.00     0.012 A 
BRANCH  17  20
HETATM   20  O   UNL     1      44.241 -14.740   8.042  1.00  0.00    -0.356 OA
HETATM   21  C   UNL     1      44.816 -13.496   7.661  1.00  0.00     0.210 C 
ENDBRANCH  17  20
ENDBRANCH   1  14
BRANCH   1  22
HETATM   22  C   UNL     1      43.131 -18.982   3.265  1.00  0.00    -0.031 A 
HETATM   23  C   UNL     1      42.921 -19.691   2.066  1.00  0.00     0.009 A 
HETATM   24  C   UNL     1      43.678 -20.822   1.752  1.00  0.00     0.001 A 
HETATM   25  C   UNL     1      44.676 -21.256   2.619  1.00  0.00     0.000 A 
HETATM   26  C   UNL     1      44.923 -20.553   3.794  1.00  0.00     0.001 A 
HETATM   27  C   UNL     1      44.163 -19.424   4.112  1.00  0.00     0.009 A 
ENDBRANCH   1  22
TORSDOF 6
ENDMDL
MODEL 2
REMARK VINA RESULT:      -7.9      4.564      8.421
REMARK  6 active torsions:
REMARK  status: ('A' for Active; 'I' for Inactive)
REMARK    1  A    between atoms: C_2  and  C_3 
REMARK    2  A    between atoms: C_7  and  C_8 
REMARK       I    between atoms: C_8  and  N_9 
REMARK    3  A    between atoms: N_9  and  C_10 
REMARK    4  A    between atoms: C_10  and  C_11 
REMARK    5  A    between atoms: C_10  and  C_19 
REMARK    6  A    between atoms: C_14  and  O_15 
ROOT
HETATM    1  C   UNL     1      44.282 -14.390   6.624  1.00  0.00     0.151 C 
ENDROOT
BRANCH   1   2
HETATM    2  N   UNL     1      44.017 -13.631   7.834  1.00  0.00    -0.343 N 
HETATM    3  C   UNL     1      44.957 -12.841   8.439  1.00  0.00     0.270 C 
HETATM    4  O   UNL     1      46.100 -12.712   8.011  1.00  0.00    -0.266 OA
HETATM    5  H   UNL     1      43.094 -13.708   8.230  1.00  0.00     0.163 HD
BRANCH   3   6
HETATM    6  C   UNL     1      44.513 -12.172   9.633  1.00  0.00     0.119 A 
HETATM    7  N   UNL     1      44.046 -12.874  10.712  1.00  0.00    -0.273 N 
HETATM    8  N   UNL     1      43.670 -12.106  11.748  1.00  0.00    -0.179 NA
HETATM    9  H   UNL     1      43.960 -13.883  10.791  1.00  0.00     0.189 HD
HETATM   10  C   UNL     1      43.909 -10.859  11.329  1.00  0.00     0.056 A 
HETATM   11  C   UNL     1      44.432 -10.846  10.013  1.00  0.00     0.065 A 
BRANCH  10  12
HETATM   12  C   UNL     1      43.631  -9.693  12.215  1.00  0.00     0.056 C 
HETATM   13  C   UNL     1      42.975 -10.105  13.524  1.00  0.00     0.011 C 
ENDBRANCH  10  12
ENDBRANCH   3   6
ENDBRANCH   1   2
BRANCH   1  14
HETATM   14  C   UNL     1      43.433 -13.788   5.506  1.00  0.00    -0.031 A 
HETATM   15  C   UNL     1      43.719 -14.032   4.153  1.00  0.00     0.012 A 
HETATM   16  C   UNL     1      42.932 -13.464   3.148  1.00  0.00     0.037 A 
HETATM   17  C   UNL     1      41.851 -12.643   3.468  1.00  0.00     0.068 A 
HETATM   18  C   UNL     1      41.543 -12.412   4.809  1.00  0.00     0.037 A 
HETATM   19  C   UNL     1      42.327 -12.984   5.820  1.00  0.00     0.012 A 
BRANCH  17  20
HETATM   20  O   UNL     1      41.175 -12.140   2.391  1.00  0.00    -0.356 OA
HETATM   21  C   UNL     1      39.776 -12.390   2.341  1.00  0.00     0.210 C 
ENDBRANCH  17  20
ENDBRANCH   1  14
BRANCH   1  22
HETATM   22  C   UNL     1      44.078 -15.897   6.816  1.00  0.00    -0.031 A 
HETATM   23  C   UNL     1      42.808 -16.403   7.158  1.00  0.00     0.009 A 
HETATM   24  C   UNL     1      42.591 -17.774   7.307  1.00  0.00     0.001 A 
HETATM   25  C   UNL     1      43.633 -18.672   7.096  1.00  0.00     0.000 A 
HETATM   26  C   UNL     1      44.889 -18.198   6.728  1.00  0.00     0.001 A 
HETATM   27  C   UNL     1      45.109 -16.825   6.582  1.00  0.00     0.009 A 
ENDBRANCH   1  22
TORSDOF 6
ENDMDL
MODEL 3
REMARK VINA RESULT:      -7.5      2.601      5.180
REMARK  6 active torsions:
REMARK  status: ('A' for Active; 'I' for Inactive)
REMARK    1  A    between atoms: C_2  and  C_3 
REMARK    2  A    between atoms: C_7  and  C_8 
REMARK       I    between atoms: C_8  and  N_9 
REMARK    3  A    between atoms: N_9  and  C_10 
REMARK    4  A    between atoms: C_10  and  C_11 
REMARK    5  A    between atoms: C_10  and  C_19 
REMARK    6  A    between atoms: C_14  and  O_15 
ROOT
HETATM    1  C   UNL     1      42.917 -15.618   2.440  1.00  0.00     0.151 C 
ENDROOT
BRANCH   1   2
HETATM    2  N   UNL     1      42.147 -15.560   1.209  1.00  0.00    -0.343 N 
HETATM    3  C   UNL     1      41.929 -14.397   0.521  1.00  0.00     0.270 C 
HETATM    4  O   UNL     1      42.362 -13.309   0.889  1.00  0.00    -0.266 OA
HETATM    5  H   UNL     1      41.764 -16.426   0.868  1.00  0.00     0.163 HD
BRANCH   3   6
HETATM    6  C   UNL     1      41.137 -14.535  -0.673  1.00  0.00     0.119 A 
HETATM    7  N   UNL     1      41.358 -15.554  -1.561  1.00  0.00    -0.273 N 
HETATM    8  N   UNL     1      40.536 -15.545  -2.623  1.00  0.00    -0.179 NA
HETATM    9  H   UNL     1      42.062 -16.282  -1.488  1.00  0.00     0.189 HD
HETATM   10  C   UNL     1      39.748 -14.486  -2.413  1.00  0.00     0.056 A 
HETATM   11  C   UNL     1      40.086 -13.818  -1.211  1.00  0.00     0.065 A 
BRANCH  10  12
HETATM   12  C   UNL     1      38.671 -14.136  -3.383  1.00  0.00     0.056 C 
HETATM   13  C   UNL     1      37.644 -15.248  -3.533  1.00  0.00     0.011 C 
ENDBRANCH  10  12
ENDBRANCH   3   6
ENDBRANCH   1   2
BRANCH   1  14
HETATM   14  C   UNL     1      43.340 -17.071   2.653  1.00  0.00    -0.031 A 
HETATM   15  C   UNL     1      43.471 -17.962   1.576  1.00  0.00     0.012 A 
HETATM   16  C   UNL     1      43.852 -19.289   1.796  1.00  0.00     0.037 A 
HETATM   17  C   UNL     1      44.106 -19.752   3.087  1.00  0.00     0.068 A 
HETATM   18  C   UNL     1      44.002 -18.869   4.161  1.00  0.00     0.037 A 
HETATM   19  C   UNL     1      43.625 -17.538   3.945  1.00  0.00     0.012 A 
BRANCH  17  20
HETATM   20  O   UNL     1      44.454 -21.072   3.163  1.00  0.00    -0.356 OA
HETATM   21  C   UNL     1      44.154 -21.877   2.029  1.00  0.00     0.210 C 
ENDBRANCH  17  20
ENDBRANCH   1  14
BRANCH   1  22
HETATM   22  C   UNL     1      42.172 -15.006   3.631  1.00  0.00    -0.031 A 
HETATM   23  C   UNL     1      42.781 -14.002   4.409  1.00  0.00     0.009 A 
HETATM   24  C   UNL     1      42.110 -13.406   5.479  1.00  0.00     0.001 A 
HETATM   25  C   UNL     1      40.806 -13.787   5.781  1.00  0.00     0.000 A 
HETATM   26  C   UNL     1      40.172 -14.755   5.009  1.00  0.00     0.001 A 
HETATM   27  C   UNL     1      40.845 -15.355   3.940  1.00  0.00     0.009 A 
ENDBRANCH   1  22
TORSDOF 6
ENDMDL
MODEL 4
REMARK VINA RESULT:      -7.2      2.144      2.741
REMARK  6 active torsions:
REMARK  status: ('A' for Active; 'I' for Inactive)
REMARK    1  A    between atoms: C_2  and  C_3 
REMARK    2  A    between atoms: C_7  and  C_8 
REMARK       I    between atoms: C_8  and  N_9 
REMARK    3  A    between atoms: N_9  and  C_10 
REMARK    4  A    between atoms: C_10  and  C_11 
REMARK    5  A    between atoms: C_10  and  C_19 
REMARK    6  A    between atoms: C_14  and  O_15 
ROOT
HETATM    1  C   UNL     1      41.221 -16.336   2.929  1.00  0.00     0.151 C 
ENDROOT
BRANCH   1   2
HETATM    2  N   UNL     1      41.175 -15.764   1.593  1.00  0.00    -0.343 N 
HETATM    3  C   UNL     1      40.049 -15.191   1.066  1.00  0.00     0.270 C 
HETATM    4  O   UNL     1      38.986 -15.118   1.675  1.00  0.00    -0.266 OA
HETATM    5  H   UNL     1      42.021 -15.805   1.049  1.00  0.00     0.163 HD
BRANCH   3   6
HETATM    6  C   UNL     1      40.193 -14.685  -0.274  1.00  0.00     0.119 A 
HETATM    7  N   UNL     1      39.103 -14.438  -1.064  1.00  0.00    -0.273 N 
HETATM    8  N   UNL     1      39.403 -13.969  -2.286  1.00  0.00    -0.179 NA
HETATM    9  H   UNL     1      38.127 -14.575  -0.815  1.00  0.00     0.189 HD
HETATM   10  C   UNL     1      40.739 -13.903  -2.286  1.00  0.00     0.056 A 
HETATM   11  C   UNL     1      41.280 -14.343  -1.055  1.00  0.00     0.065 A 
BRANCH  10  12
HETATM   12  C   UNL     1      41.474 -13.407  -3.485  1.00  0.00     0.056 C 
HETATM   13  C   UNL     1      42.493 -12.334  -3.135  1.00  0.00     0.011 C 
ENDBRANCH  10  12
ENDBRANCH   3   6
ENDBRANCH   1   2
BRANCH   1  14
HETATM   14  C   UNL     1      41.418 -15.188   3.916  1.00  0.00    -0.031 A 
HETATM   15  C   UNL     1      40.517 -14.962   4.969  1.00  0.00     0.012 A 
HETATM   16  C   UNL     1      40.715 -13.900   5.856  1.00  0.00     0.037 A 
HETATM   17  C   UNL     1      41.808 -13.045   5.711  1.00  0.00     0.068 A 
HETATM   18  C   UNL     1      42.722 -13.274   4.683  1.00  0.00     0.037 A 
HETATM   19  C   UNL     1      42.530 -14.340   3.795  1.00  0.00     0.012 A 
BRANCH  17  20
HETATM   20  O   UNL     1      41.874 -12.039   6.635  1.00  0.00    -0.356 OA
HETATM   21  C   UNL     1      41.330 -10.783   6.251  1.00  0.00     0.210 C 
ENDBRANCH  17  20
ENDBRANCH   1  14
BRANCH   1  22
HETATM   22  C   UNL     1      42.262 -17.453   3.056  1.00  0.00    -0.031 A 
HETATM   23  C   UNL     1      42.658 -17.910   4.329  1.00  0.00     0.009 A 
HETATM   24  C   UNL     1      43.582 -18.949   4.470  1.00  0.00     0.001 A 
HETATM   25  C   UNL     1      44.112 -19.567   3.342  1.00  0.00     0.000 A 
HETATM   26  C   UNL     1      43.713 -19.153   2.075  1.00  0.00     0.001 A 
HETATM   27  C   UNL     1      42.793 -18.111   1.932  1.00  0.00     0.009 A 
ENDBRANCH   1  22
TORSDOF 6
ENDMDL
MODEL 5
REMARK VINA RESULT:      -7.2      2.708      7.504
REMARK  6 active torsions:
REMARK  status: ('A' for Active; 'I' for Inactive)
REMARK    1  A    between atoms: C_2  and  C_3 
REMARK    2  A    between atoms: C_7  and  C_8 
REMARK       I    between atoms: C_8  and  N_9 
REMARK    3  A    between atoms: N_9  and  C_10 
REMARK    4  A    between atoms: C_10  and  C_11 
REMARK    5  A    between atoms: C_10  and  C_19 
REMARK    6  A    between atoms: C_14  and  O_15 
ROOT
HETATM    1  C   UNL     1      40.391 -15.526   2.949  1.00  0.00     0.151 C 
ENDROOT
BRANCH   1   2
HETATM    2  N   UNL     1      41.405 -16.566   2.935  1.00  0.00    -0.343 N 
HETATM    3  C   UNL     1      41.598 -17.433   3.977  1.00  0.00     0.270 C 
HETATM    4  O   UNL     1      40.934 -17.399   5.008  1.00  0.00    -0.266 OA
HETATM    5  H   UNL     1      41.982 -16.632   2.112  1.00  0.00     0.163 HD
BRANCH   3   6
HETATM    6  C   UNL     1      42.655 -18.391   3.785  1.00  0.00     0.119 A 
HETATM    7  N   UNL     1      43.565 -18.657   4.772  1.00  0.00    -0.273 N 
HETATM    8  N   UNL     1      44.488 -19.573   4.439  1.00  0.00    -0.179 NA
HETATM    9  H   UNL     1      43.601 -18.235   5.696  1.00  0.00     0.189 HD
HETATM   10  C   UNL     1      44.160 -19.922   3.190  1.00  0.00     0.056 A 
HETATM   11  C   UNL     1      43.025 -19.208   2.734  1.00  0.00     0.065 A 
BRANCH  10  12
HETATM   12  C   UNL     1      44.952 -20.948   2.455  1.00  0.00     0.056 C 
HETATM   13  C   UNL     1      44.074 -21.869   1.621  1.00  0.00     0.011 C 
ENDBRANCH  10  12
ENDBRANCH   3   6
ENDBRANCH   1   2
BRANCH   1  14
HETATM   14  C   UNL     1      40.183 -15.064   1.508  1.00  0.00    -0.031 A 
HETATM   15  C   UNL     1      39.076 -14.282   1.139  1.00  0.00     0.012 A 
HETATM   16  C   UNL     1      38.904 -13.877  -0.187  1.00  0.00     0.037 A 
HETATM   17  C   UNL     1      39.825 -14.244  -1.169  1.00  0.00     0.068 A 
HETATM   18  C   UNL     1      40.940 -15.001  -0.810  1.00  0.00     0.037 A 
HETATM   19  C   UNL     1      41.119 -15.404   0.519  1.00  0.00     0.012 A 
BRANCH  17  20
HETATM   20  O   UNL     1      39.529 -13.796  -2.427  1.00  0.00    -0.356 OA
HETATM   21  C   UNL     1      40.278 -14.357  -3.497  1.00  0.00     0.210 C 
ENDBRANCH  17  20
ENDBRANCH   1  14
BRANCH   1  22
HETATM   22  C   UNL     1      40.723 -14.391   3.924  1.00  0.00    -0.031 A 
HETATM   23  C   UNL     1      41.844 -13.569   3.698  1.00  0.00     0.009 A 
HETATM   24  C   UNL     1      42.149 -12.508   4.555  1.00  0.00     0.001 A 
HETATM   25  C   UNL     1      41.327 -12.234   5.643  1.00  0.00     0.000 A 
HETATM   26  C   UNL     1      40.197 -13.014   5.869  1.00  0.00     0.001 A 
HETATM   27  C   UNL     1      39.893 -14.078   5.015  1.00  0.00     0.009 A 
ENDBRANCH   1  22
TORSDOF 6
ENDMDL
MODEL 6
REMARK VINA RESULT:      -6.7      3.298      6.987
REMARK  6 active torsions:
REMARK  status: ('A' for Active; 'I' for Inactive)
REMARK    1  A    between atoms: C_2  and  C_3 
REMARK    2  A    between atoms: C_7  and  C_8 
REMARK       I    between atoms: C_8  and  N_9 
REMARK    3  A    between atoms: N_9  and  C_10 
REMARK    4  A    between atoms: C_10  and  C_11 
REMARK    5  A    between atoms: C_10  and  C_19 
REMARK    6  A    between atoms: C_14  and  O_15 
ROOT
HETATM    1  C   UNL     1      42.633 -14.953   1.500  1.00  0.00     0.151 C 
ENDROOT
BRANCH   1   2
HETATM    2  N   UNL     1      42.134 -14.049   2.523  1.00  0.00    -0.343 N 
HETATM    3  C   UNL     1      42.945 -13.459   3.455  1.00  0.00     0.270 C 
HETATM    4  O   UNL     1      44.157 -13.648   3.505  1.00  0.00    -0.266 OA
HETATM    5  H   UNL     1      41.145 -13.865   2.529  1.00  0.00     0.163 HD
BRANCH   3   6
HETATM    6  C   UNL     1      42.271 -12.600   4.392  1.00  0.00     0.119 A 
HETATM    7  N   UNL     1      41.726 -11.406   4.001  1.00  0.00    -0.273 N 
HETATM    8  N   UNL     1      41.132 -10.721   4.991  1.00  0.00    -0.179 NA
HETATM    9  H   UNL     1      41.734 -11.011   3.064  1.00  0.00     0.189 HD
HETATM   10  C   UNL     1      41.291 -11.502   6.064  1.00  0.00     0.056 A 
HETATM   11  C   UNL     1      42.000 -12.685   5.744  1.00  0.00     0.065 A 
BRANCH  10  12
HETATM   12  C   UNL     1      40.747 -11.091   7.390  1.00  0.00     0.056 C 
HETATM   13  C   UNL     1      41.829 -10.568   8.322  1.00  0.00     0.011 C 
ENDBRANCH  10  12
ENDBRANCH   3   6
ENDBRANCH   1   2
BRANCH   1  14
HETATM   14  C   UNL     1      41.715 -14.827   0.286  1.00  0.00    -0.031 A 
HETATM   15  C   UNL     1      41.532 -15.893  -0.610  1.00  0.00     0.012 A 
HETATM   16  C   UNL     1      40.693 -15.751  -1.719  1.00  0.00     0.037 A 
HETATM   17  C   UNL     1      40.024 -14.550  -1.957  1.00  0.00     0.068 A 
HETATM   18  C   UNL     1      40.180 -13.493  -1.061  1.00  0.00     0.037 A 
HETATM   19  C   UNL     1      41.017 -13.633   0.054  1.00  0.00     0.012 A 
BRANCH  17  20
HETATM   20  O   UNL     1      39.248 -14.541  -3.083  1.00  0.00    -0.356 OA
HETATM   21  C   UNL     1      39.311 -15.696  -3.911  1.00  0.00     0.210 C 
ENDBRANCH  17  20
ENDBRANCH   1  14
BRANCH   1  22
HETATM   22  C   UNL     1      42.795 -16.389   2.011  1.00  0.00    -0.031 A 
HETATM   23  C   UNL     1      43.860 -17.188   1.551  1.00  0.00     0.009 A 
HETATM   24  C   UNL     1      44.048 -18.488   2.027  1.00  0.00     0.001 A 
HETATM   25  C   UNL     1      43.188 -19.009   2.988  1.00  0.00     0.000 A 
HETATM   26  C   UNL     1      42.147 -18.228   3.480  1.00  0.00     0.001 A 
HETATM   27  C   UNL     1      41.955 -16.928   3.002  1.00  0.00     0.009 A 
ENDBRANCH   1  22
TORSDOF 6
ENDMDL
MODEL 7
REMARK VINA RESULT:      -6.7      2.387      5.181
REMARK  6 active torsions:
REMARK  status: ('A' for Active; 'I' for Inactive)
REMARK    1  A    between atoms: C_2  and  C_3 
REMARK    2  A    between atoms: C_7  and  C_8 
REMARK       I    between atoms: C_8  and  N_9 
REMARK    3  A    between atoms: N_9  and  C_10 
REMARK    4  A    between atoms: C_10  and  C_11 
REMARK    5  A    between atoms: C_10  and  C_19 
REMARK    6  A    between atoms: C_14  and  O_15 
ROOT
HETATM    1  C   UNL     1      43.522 -16.821   4.011  1.00  0.00     0.151 C 
ENDROOT
BRANCH   1   2
HETATM    2  N   UNL     1      42.297 -16.380   3.365  1.00  0.00    -0.343 N 
HETATM    3  C   UNL     1      42.145 -15.128   2.831  1.00  0.00     0.270 C 
HETATM    4  O   UNL     1      43.028 -14.276   2.858  1.00  0.00    -0.266 OA
HETATM    5  H   UNL     1      41.538 -17.040   3.323  1.00  0.00     0.163 HD
BRANCH   3   6
HETATM    6  C   UNL     1      40.858 -14.870   2.240  1.00  0.00     0.119 A 
HETATM    7  N   UNL     1      39.806 -15.726   2.423  1.00  0.00    -0.273 N 
HETATM    8  N   UNL     1      38.674 -15.347   1.807  1.00  0.00    -0.179 NA
HETATM    9  H   UNL     1      39.808 -16.588   2.961  1.00  0.00     0.189 HD
HETATM   10  C   UNL     1      39.003 -14.198   1.208  1.00  0.00     0.056 A 
HETATM   11  C   UNL     1      40.358 -13.859   1.443  1.00  0.00     0.065 A 
BRANCH  10  12
HETATM   12  C   UNL     1      37.994 -13.439   0.415  1.00  0.00     0.056 C 
HETATM   13  C   UNL     1      38.097 -13.723  -1.076  1.00  0.00     0.011 C 
ENDBRANCH  10  12
ENDBRANCH   3   6
ENDBRANCH   1   2
BRANCH   1  14
HETATM   14  C   UNL     1      43.805 -18.246   3.539  1.00  0.00    -0.031 A 
HETATM   15  C   UNL     1      43.306 -18.728   2.319  1.00  0.00     0.012 A 
HETATM   16  C   UNL     1      43.572 -20.038   1.911  1.00  0.00     0.037 A 
HETATM   17  C   UNL     1      44.336 -20.890   2.709  1.00  0.00     0.068 A 
HETATM   18  C   UNL     1      44.857 -20.414   3.912  1.00  0.00     0.037 A 
HETATM   19  C   UNL     1      44.596 -19.101   4.322  1.00  0.00     0.012 A 
BRANCH  17  20
HETATM   20  O   UNL     1      44.507 -22.148   2.201  1.00  0.00    -0.356 OA
HETATM   21  C   UNL     1      44.084 -22.358   0.860  1.00  0.00     0.210 C 
ENDBRANCH  17  20
ENDBRANCH   1  14
BRANCH   1  22
HETATM   22  C   UNL     1      43.473 -16.668   5.535  1.00  0.00    -0.031 A 
HETATM   23  C   UNL     1      42.818 -17.635   6.323  1.00  0.00     0.009 A 
HETATM   24  C   UNL     1      42.788 -17.534   7.716  1.00  0.00     0.001 A 
HETATM   25  C   UNL     1      43.431 -16.477   8.352  1.00  0.00     0.000 A 
HETATM   26  C   UNL     1      44.112 -15.527   7.597  1.00  0.00     0.001 A 
HETATM   27  C   UNL     1      44.139 -15.624   6.203  1.00  0.00     0.009 A 
ENDBRANCH   1  22
TORSDOF 6
ENDMDL
MODEL 8
REMARK VINA RESULT:      -6.7      3.511      6.512
REMARK  6 active torsions:
REMARK  status: ('A' for Active; 'I' for Inactive)
REMARK    1  A    between atoms: C_2  and  C_3 
REMARK    2  A    between atoms: C_7  and  C_8 
REMARK       I    between atoms: C_8  and  N_9 
REMARK    3  A    between atoms: N_9  and  C_10 
REMARK    4  A    between atoms: C_10  and  C_11 
REMARK    5  A    between atoms: C_10  and  C_19 
REMARK    6  A    between atoms: C_14  and  O_15 
ROOT
HETATM    1  C   UNL     1      40.926 -13.710   2.513  1.00  0.00     0.151 C 
ENDROOT
BRANCH   1   2
HETATM    2  N   UNL     1      41.438 -15.042   2.790  1.00  0.00    -0.343 N 
HETATM    3  C   UNL     1      42.769 -15.304   2.978  1.00  0.00     0.270 C 
HETATM    4  O   UNL     1      43.637 -14.438   2.923  1.00  0.00    -0.266 OA
HETATM    5  H   UNL     1      40.767 -15.790   2.838  1.00  0.00     0.163 HD
BRANCH   3   6
HETATM    6  C   UNL     1      43.088 -16.684   3.234  1.00  0.00     0.119 A 
HETATM    7  N   UNL     1      42.628 -17.326   4.352  1.00  0.00    -0.273 N 
HETATM    8  N   UNL     1      43.011 -18.610   4.447  1.00  0.00    -0.179 NA
HETATM    9  H   UNL     1      42.047 -16.930   5.086  1.00  0.00     0.189 HD
HETATM   10  C   UNL     1      43.741 -18.811   3.345  1.00  0.00     0.056 A 
HETATM   11  C   UNL     1      43.824 -17.637   2.557  1.00  0.00     0.065 A 
BRANCH  10  12
HETATM   12  C   UNL     1      44.349 -20.144   3.069  1.00  0.00     0.056 C 
HETATM   13  C   UNL     1      43.683 -20.851   1.898  1.00  0.00     0.011 C 
ENDBRANCH  10  12
ENDBRANCH   3   6
ENDBRANCH   1   2
BRANCH   1  14
HETATM   14  C   UNL     1      40.427 -13.124   3.833  1.00  0.00    -0.031 A 
HETATM   15  C   UNL     1      40.224 -11.744   3.993  1.00  0.00     0.012 A 
HETATM   16  C   UNL     1      39.774 -11.230   5.212  1.00  0.00     0.037 A 
HETATM   17  C   UNL     1      39.521 -12.077   6.292  1.00  0.00     0.068 A 
HETATM   18  C   UNL     1      39.698 -13.452   6.137  1.00  0.00     0.037 A 
HETATM   19  C   UNL     1      40.144 -13.971   4.915  1.00  0.00     0.012 A 
BRANCH  17  20
HETATM   20  O   UNL     1      39.102 -11.444   7.429  1.00  0.00    -0.356 OA
HETATM   21  C   UNL     1      39.660 -10.162   7.689  1.00  0.00     0.210 C 
ENDBRANCH  17  20
ENDBRANCH   1  14
BRANCH   1  22
HETATM   22  C   UNL     1      39.879 -13.703   1.394  1.00  0.00    -0.031 A 
HETATM   23  C   UNL     1      40.264 -13.429   0.066  1.00  0.00     0.009 A 
HETATM   24  C   UNL     1      39.334 -13.448  -0.976  1.00  0.00     0.001 A 
HETATM   25  C   UNL     1      38.003 -13.763  -0.716  1.00  0.00     0.000 A 
HETATM   26  C   UNL     1      37.606 -14.067   0.582  1.00  0.00     0.001 A 
HETATM   27  C   UNL     1      38.535 -14.044   1.626  1.00  0.00     0.009 A 
ENDBRANCH   1  22
TORSDOF 6
ENDMDL
MODEL 9
REMARK VINA RESULT:      -6.7      2.650      5.115
REMARK  6 active torsions:
REMARK  status: ('A' for Active; 'I' for Inactive)
REMARK    1  A    between atoms: C_2  and  C_3 
REMARK    2  A    between atoms: C_7  and  C_8 
REMARK       I    between atoms: C_8  and  N_9 
REMARK    3  A    between atoms: N_9  and  C_10 
REMARK    4  A    between atoms: C_10  and  C_11 
REMARK    5  A    between atoms: C_10  and  C_19 
REMARK    6  A    between atoms: C_14  and  O_15 
ROOT
HETATM    1  C   UNL     1      42.801 -14.845   2.624  1.00  0.00     0.151 C 
ENDROOT
BRANCH   1   2
HETATM    2  N   UNL     1      42.125 -14.647   1.353  1.00  0.00    -0.343 N 
HETATM    3  C   UNL     1      42.027 -13.424   0.744  1.00  0.00     0.270 C 
HETATM    4  O   UNL     1      42.498 -12.397   1.223  1.00  0.00    -0.266 OA
HETATM    5  H   UNL     1      41.715 -15.458   0.921  1.00  0.00     0.163 HD
BRANCH   3   6
HETATM    6  C   UNL     1      41.314 -13.422  -0.506  1.00  0.00     0.119 A 
HETATM    7  N   UNL     1      40.498 -14.462  -0.863  1.00  0.00    -0.273 N 
HETATM    8  N   UNL     1      39.904 -14.311  -2.058  1.00  0.00    -0.179 NA
HETATM    9  H   UNL     1      40.313 -15.303  -0.324  1.00  0.00     0.189 HD
HETATM   10  C   UNL     1      40.347 -13.125  -2.490  1.00  0.00     0.056 A 
HETATM   11  C   UNL     1      41.234 -12.532  -1.560  1.00  0.00     0.065 A 
BRANCH  10  12
HETATM   12  C   UNL     1      39.898 -12.580  -3.804  1.00  0.00     0.056 C 
HETATM   13  C   UNL     1      38.727 -11.619  -3.661  1.00  0.00     0.011 C 
ENDBRANCH  10  12
ENDBRANCH   3   6
ENDBRANCH   1   2
BRANCH   1  14
HETATM   14  C   UNL     1      43.212 -16.314   2.704  1.00  0.00    -0.031 A 
HETATM   15  C   UNL     1      43.421 -16.953   3.937  1.00  0.00     0.012 A 
HETATM   16  C   UNL     1      43.804 -18.295   3.984  1.00  0.00     0.037 A 
HETATM   17  C   UNL     1      43.989 -19.025   2.809  1.00  0.00     0.068 A 
HETATM   18  C   UNL     1      43.762 -18.408   1.580  1.00  0.00     0.037 A 
HETATM   19  C   UNL     1      43.373 -17.063   1.528  1.00  0.00     0.012 A 
BRANCH  17  20
HETATM   20  O   UNL     1      44.379 -20.322   2.997  1.00  0.00    -0.356 OA
HETATM   21  C   UNL     1      44.945 -20.642   4.262  1.00  0.00     0.210 C 
ENDBRANCH  17  20
ENDBRANCH   1  14
BRANCH   1  22
HETATM   22  C   UNL     1      41.966 -14.367   3.817  1.00  0.00    -0.031 A 
HETATM   23  C   UNL     1      40.655 -14.851   4.004  1.00  0.00     0.009 A 
HETATM   24  C   UNL     1      39.887 -14.456   5.101  1.00  0.00     0.001 A 
HETATM   25  C   UNL     1      40.419 -13.585   6.047  1.00  0.00     0.000 A 
HETATM   26  C   UNL     1      41.722 -13.119   5.901  1.00  0.00     0.001 A 
HETATM   27  C   UNL     1      42.491 -13.511   4.801  1.00  0.00     0.009 A 
ENDBRANCH   1  22
TORSDOF 6
ENDMDL
MODEL 10
REMARK VINA RESULT:      -6.6      2.896      6.323
REMARK  6 active torsions:
REMARK  status: ('A' for Active; 'I' for Inactive)
REMARK    1  A    between atoms: C_2  and  C_3 
REMARK    2  A    between atoms: C_7  and  C_8 
REMARK       I    between atoms: C_8  and  N_9 
REMARK    3  A    between atoms: N_9  and  C_10 
REMARK    4  A    between atoms: C_10  and  C_11 
REMARK    5  A    between atoms: C_10  and  C_19 
REMARK    6  A    between atoms: C_14  and  O_15 
ROOT
HETATM    1  C   UNL     1      42.560 -15.063   2.332  1.00  0.00     0.151 C 
ENDROOT
BRANCH   1   2
HETATM    2  N   UNL     1      42.871 -16.430   2.715  1.00  0.00    -0.343 N 
HETATM    3  C   UNL     1      43.948 -17.116   2.220  1.00  0.00     0.270 C 
HETATM    4  O   UNL     1      44.734 -16.634   1.411  1.00  0.00    -0.266 OA
HETATM    5  H   UNL     1      42.251 -16.874   3.372  1.00  0.00     0.163 HD
BRANCH   3   6
HETATM    6  C   UNL     1      44.090 -18.462   2.709  1.00  0.00     0.119 A 
HETATM    7  N   UNL     1      44.256 -18.721   4.043  1.00  0.00    -0.273 N 
HETATM    8  N   UNL     1      44.374 -20.026   4.340  1.00  0.00    -0.179 NA
HETATM    9  H   UNL     1      44.298 -18.040   4.795  1.00  0.00     0.189 HD
HETATM   10  C   UNL     1      44.273 -20.636   3.154  1.00  0.00     0.056 A 
HETATM   11  C   UNL     1      44.099 -19.703   2.103  1.00  0.00     0.065 A 
BRANCH  10  12
HETATM   12  C   UNL     1      44.342 -22.123   3.057  1.00  0.00     0.056 C 
HETATM   13  C   UNL     1      44.680 -22.774   4.389  1.00  0.00     0.011 C 
ENDBRANCH  10  12
ENDBRANCH   3   6
ENDBRANCH   1   2
BRANCH   1  14
HETATM   14  C   UNL     1      41.734 -14.445   3.458  1.00  0.00    -0.031 A 
HETATM   15  C   UNL     1      40.618 -15.105   3.998  1.00  0.00     0.012 A 
HETATM   16  C   UNL     1      39.873 -14.516   5.024  1.00  0.00     0.037 A 
HETATM   17  C   UNL     1      40.222 -13.263   5.528  1.00  0.00     0.068 A 
HETATM   18  C   UNL     1      41.342 -12.609   5.015  1.00  0.00     0.037 A 
HETATM   19  C   UNL     1      42.094 -13.198   3.991  1.00  0.00     0.012 A 
BRANCH  17  20
HETATM   20  O   UNL     1      39.401 -12.796   6.517  1.00  0.00    -0.356 OA
HETATM   21  C   UNL     1      39.827 -11.623   7.200  1.00  0.00     0.210 C 
ENDBRANCH  17  20
ENDBRANCH   1  14
BRANCH   1  22
HETATM   22  C   UNL     1      41.897 -14.973   0.953  1.00  0.00    -0.031 A 
HETATM   23  C   UNL     1      41.719 -13.721   0.333  1.00  0.00     0.009 A 
HETATM   24  C   UNL     1      41.148 -13.616  -0.938  1.00  0.00     0.001 A 
HETATM   25  C   UNL     1      40.762 -14.763  -1.624  1.00  0.00     0.000 A 
HETATM   26  C   UNL     1      40.956 -16.013  -1.045  1.00  0.00     0.001 A 
HETATM   27  C   UNL     1      41.524 -16.119   0.228  1.00  0.00     0.009 A 
ENDBRANCH   1  22
TORSDOF 6
ENDMDL
