MODEL 1
REMARK VINA RESULT:      -8.5      0.000      0.000
REMARK  9 active torsions:
REMARK  status: ('A' for Active; 'I' for Inactive)
REMARK    1  A    between atoms: C_4  and  C_5 
REMARK    2  A    between atoms: C_11  and  C_12 
REMARK    3  A    between atoms: C_15  and  C_16 
REMARK    4  A    between atoms: C_16  and  N_17 
REMARK    5  A    between atoms: N_17  and  C_18 
REMARK    6  A    between atoms: C_18  and  N_19 
REMARK    7  A    between atoms: N_19  and  C_20 
REMARK    8  A    between atoms: C_22  and  C_23 
REMARK    9  A    between atoms: C_23  and  O_24 
ROOT
HETATM    1  C   UNL     1      43.153 -15.113   4.273  1.00  0.00     0.067 C 
HETATM    2  C   UNL     1      41.926 -14.801   5.174  1.00  0.00     0.001 C 
HETATM    3  C   UNL     1      40.616 -15.287   4.515  1.00  0.00     0.040 C 
HETATM    4  C   UNL     1      40.358 -14.533   3.201  1.00  0.00     0.206 C 
HETATM    5  N   UNL     1      41.615 -13.715   2.883  1.00  0.00    -0.065 N 
HETATM    6  H   UNL     1      41.500 -13.294   1.950  1.00  0.00     0.280 HD
HETATM    7  C   UNL     1      42.886 -14.549   2.860  1.00  0.00     0.246 C 
HETATM    8  C   UNL     1      41.831 -13.263   5.301  1.00  0.00     0.033 C 
HETATM    9  C   UNL     1      41.757 -12.609   3.915  1.00  0.00     0.236 C 
ENDROOT
BRANCH   4  10
HETATM   10  C   UNL     1      39.895 -15.398   2.011  1.00  0.00     0.155 C 
BRANCH  10  11
HETATM   11  N   UNL     1      38.591 -15.042   1.461  1.00  0.00    -0.365 N 
HETATM   12  H   UNL     1      37.776 -15.343   1.984  1.00  0.00     0.161 HD
BRANCH  11  13
HETATM   13  C   UNL     1      38.339 -13.958   0.663  1.00  0.00     0.172 C 
HETATM   14  S   UNL     1      37.891 -12.460   1.243  1.00  0.00    -0.041 SA
BRANCH  13  15
HETATM   15  N   UNL     1      38.604 -14.111  -0.672  1.00  0.00    -0.333 N 
HETATM   16  H   UNL     1      37.830 -14.499  -1.207  1.00  0.00     0.168 HD
BRANCH  15  17
HETATM   17  C   UNL     1      39.811 -13.929  -1.386  1.00  0.00     0.035 A 
HETATM   18  C   UNL     1      40.719 -12.910  -1.097  1.00  0.00     0.047 A 
HETATM   19  C   UNL     1      41.872 -12.726  -1.871  1.00  0.00     0.041 A 
HETATM   20  C   UNL     1      42.159 -13.615  -2.905  1.00  0.00     0.018 A 
HETATM   21  C   UNL     1      41.291 -14.681  -3.157  1.00  0.00     0.003 A 
HETATM   22  C   UNL     1      40.124 -14.838  -2.398  1.00  0.00     0.029 A 
BRANCH  19  23
HETATM   23  C   UNL     1      42.713 -11.544  -1.556  1.00  0.00     0.293 C 
HETATM   24  O   UNL     1      43.202 -11.366  -0.450  1.00  0.00    -0.259 OA
BRANCH  23  25
HETATM   25  O   UNL     1      42.861 -10.755  -2.643  1.00  0.00    -0.323 OA
HETATM   26  C   UNL     1      42.745  -9.357  -2.368  1.00  0.00     0.213 C 
ENDBRANCH  23  25
ENDBRANCH  19  23
ENDBRANCH  15  17
ENDBRANCH  13  15
ENDBRANCH  11  13
ENDBRANCH  10  11
ENDBRANCH   4  10
BRANCH   1  27
HETATM   27  C   UNL     1      43.576 -16.558   4.255  1.00  0.00     0.038 A 
HETATM   28  N   UNL     1      44.091 -17.214   5.358  1.00  0.00    -0.277 N 
HETATM   29  C   UNL     1      44.305 -16.702   6.694  1.00  0.00     0.179 C 
HETATM   30  N   UNL     1      44.412 -18.492   5.120  1.00  0.00    -0.170 NA
HETATM   31  C   UNL     1      43.995 -18.718   3.873  1.00  0.00     0.112 A 
HETATM   32  C   UNL     1      43.485 -17.541   3.284  1.00  0.00     0.063 A 
BRANCH  31  33
HETATM   33  C   UNL     1      44.046 -20.060   3.229  1.00  0.00     0.105 A 
HETATM   34  O   UNL     1      44.619 -21.171   3.789  1.00  0.00    -0.320 OA
HETATM   35  C   UNL     1      44.507 -22.179   2.885  1.00  0.00     0.142 A 
HETATM   36  C   UNL     1      43.864 -21.744   1.752  1.00  0.00     0.027 A 
HETATM   37  C   UNL     1      43.560 -20.379   1.974  1.00  0.00     0.041 A 
ENDBRANCH  31  33
ENDBRANCH   1  27
TORSDOF 9
ENDMDL
MODEL 2
REMARK VINA RESULT:      -8.5      5.264      8.546
REMARK  9 active torsions:
REMARK  status: ('A' for Active; 'I' for Inactive)
REMARK    1  A    between atoms: C_4  and  C_5 
REMARK    2  A    between atoms: C_11  and  C_12 
REMARK    3  A    between atoms: C_15  and  C_16 
REMARK    4  A    between atoms: C_16  and  N_17 
REMARK    5  A    between atoms: N_17  and  C_18 
REMARK    6  A    between atoms: C_18  and  N_19 
REMARK    7  A    between atoms: N_19  and  C_20 
REMARK    8  A    between atoms: C_22  and  C_23 
REMARK    9  A    between atoms: C_23  and  O_24 
ROOT
HETATM    1  C   UNL     1      40.918 -15.348   4.150  1.00  0.00     0.067 C 
HETATM    2  C   UNL     1      41.538 -13.999   3.692  1.00  0.00     0.001 C 
HETATM    3  C   UNL     1      42.945 -13.800   4.299  1.00  0.00     0.040 C 
HETATM    4  C   UNL     1      42.867 -13.713   5.832  1.00  0.00     0.206 C 
HETATM    5  N   UNL     1      41.437 -14.083   6.243  1.00  0.00    -0.065 N 
HETATM    6  H   UNL     1      41.401 -14.139   7.271  1.00  0.00     0.280 HD
HETATM    7  C   UNL     1      40.980 -15.424   5.692  1.00  0.00     0.246 C 
HETATM    8  C   UNL     1      40.637 -12.870   4.247  1.00  0.00     0.033 C 
HETATM    9  C   UNL     1      40.490 -12.994   5.769  1.00  0.00     0.236 C 
ENDROOT
BRANCH   4  10
HETATM   10  C   UNL     1      43.935 -14.515   6.603  1.00  0.00     0.155 C 
BRANCH  10  11
HETATM   11  N   UNL     1      44.177 -14.063   7.970  1.00  0.00    -0.365 N 
HETATM   12  H   UNL     1      44.444 -14.771   8.645  1.00  0.00     0.161 HD
BRANCH  11  13
HETATM   13  C   UNL     1      44.591 -12.807   8.325  1.00  0.00     0.172 C 
HETATM   14  S   UNL     1      46.184 -12.312   8.303  1.00  0.00    -0.041 SA
BRANCH  13  15
HETATM   15  N   UNL     1      43.606 -11.892   8.584  1.00  0.00    -0.333 N 
HETATM   16  H   UNL     1      43.008 -11.688   7.787  1.00  0.00     0.168 HD
BRANCH  15  17
HETATM   17  C   UNL     1      43.373 -11.111   9.740  1.00  0.00     0.035 A 
HETATM   18  C   UNL     1      42.286 -10.245   9.866  1.00  0.00     0.047 A 
HETATM   19  C   UNL     1      42.129  -9.441  11.002  1.00  0.00     0.041 A 
HETATM   20  C   UNL     1      43.031  -9.554  12.059  1.00  0.00     0.018 A 
HETATM   21  C   UNL     1      44.083 -10.470  11.971  1.00  0.00     0.003 A 
HETATM   22  C   UNL     1      44.250 -11.247  10.817  1.00  0.00     0.029 A 
BRANCH  19  23
HETATM   23  C   UNL     1      41.006  -8.471  10.990  1.00  0.00     0.293 C 
HETATM   24  O   UNL     1      41.165  -7.284  11.240  1.00  0.00    -0.259 OA
BRANCH  23  25
HETATM   25  O   UNL     1      39.848  -9.078  10.651  1.00  0.00    -0.323 OA
HETATM   26  C   UNL     1      38.935  -9.239  11.739  1.00  0.00     0.213 C 
ENDBRANCH  23  25
ENDBRANCH  19  23
ENDBRANCH  15  17
ENDBRANCH  13  15
ENDBRANCH  11  13
ENDBRANCH  10  11
ENDBRANCH   4  10
BRANCH   1  27
HETATM   27  C   UNL     1      41.492 -16.569   3.481  1.00  0.00     0.038 A 
HETATM   28  N   UNL     1      41.363 -16.828   2.129  1.00  0.00    -0.277 N 
HETATM   29  C   UNL     1      40.710 -16.028   1.116  1.00  0.00     0.179 C 
HETATM   30  N   UNL     1      41.939 -17.973   1.745  1.00  0.00    -0.170 NA
HETATM   31  C   UNL     1      42.560 -18.422   2.838  1.00  0.00     0.112 A 
HETATM   32  C   UNL     1      42.296 -17.594   3.950  1.00  0.00     0.063 A 
BRANCH  31  33
HETATM   33  C   UNL     1      43.437 -19.626   2.840  1.00  0.00     0.105 A 
HETATM   34  O   UNL     1      44.406 -19.882   3.773  1.00  0.00    -0.320 OA
HETATM   35  C   UNL     1      45.014 -21.042   3.411  1.00  0.00     0.142 A 
HETATM   36  C   UNL     1      44.452 -21.547   2.264  1.00  0.00     0.027 A 
HETATM   37  C   UNL     1      43.429 -20.639   1.898  1.00  0.00     0.041 A 
ENDBRANCH  31  33
ENDBRANCH   1  27
TORSDOF 9
ENDMDL
MODEL 3
REMARK VINA RESULT:      -8.4      2.536      3.258
REMARK  9 active torsions:
REMARK  status: ('A' for Active; 'I' for Inactive)
REMARK    1  A    between atoms: C_4  and  C_5 
REMARK    2  A    between atoms: C_11  and  C_12 
REMARK    3  A    between atoms: C_15  and  C_16 
REMARK    4  A    between atoms: C_16  and  N_17 
REMARK    5  A    between atoms: N_17  and  C_18 
REMARK    6  A    between atoms: C_18  and  N_19 
REMARK    7  A    between atoms: N_19  and  C_20 
REMARK    8  A    between atoms: C_22  and  C_23 
REMARK    9  A    between atoms: C_23  and  O_24 
ROOT
HETATM    1  C   UNL     1      43.193 -15.173   4.749  1.00  0.00     0.067 C 
HETATM    2  C   UNL     1      41.710 -14.935   5.149  1.00  0.00     0.001 C 
HETATM    3  C   UNL     1      40.765 -15.183   3.953  1.00  0.00     0.040 C 
HETATM    4  C   UNL     1      41.048 -14.182   2.821  1.00  0.00     0.206 C 
HETATM    5  N   UNL     1      42.329 -13.424   3.185  1.00  0.00    -0.065 N 
HETATM    6  H   UNL     1      42.592 -12.830   2.385  1.00  0.00     0.280 HD
HETATM    7  C   UNL     1      43.505 -14.339   3.486  1.00  0.00     0.246 C 
HETATM    8  C   UNL     1      41.575 -13.443   5.536  1.00  0.00     0.033 C 
HETATM    9  C   UNL     1      42.055 -12.542   4.391  1.00  0.00     0.236 C 
ENDROOT
BRANCH   4  10
HETATM   10  C   UNL     1      41.089 -14.773   1.397  1.00  0.00     0.155 C 
BRANCH  10  11
HETATM   11  N   UNL     1      40.503 -13.929   0.362  1.00  0.00    -0.365 N 
HETATM   12  H   UNL     1      39.580 -13.552   0.547  1.00  0.00     0.161 HD
BRANCH  11  13
HETATM   13  C   UNL     1      41.209 -13.183  -0.544  1.00  0.00     0.172 C 
HETATM   14  S   UNL     1      42.083 -11.819  -0.146  1.00  0.00    -0.041 SA
BRANCH  13  15
HETATM   15  N   UNL     1      41.287 -13.685  -1.816  1.00  0.00    -0.333 N 
HETATM   16  H   UNL     1      42.145 -13.443  -2.306  1.00  0.00     0.168 HD
BRANCH  15  17
HETATM   17  C   UNL     1      40.318 -14.375  -2.581  1.00  0.00     0.035 A 
HETATM   18  C   UNL     1      39.131 -13.786  -3.015  1.00  0.00     0.047 A 
HETATM   19  C   UNL     1      38.170 -14.525  -3.717  1.00  0.00     0.041 A 
HETATM   20  C   UNL     1      38.428 -15.853  -4.053  1.00  0.00     0.018 A 
HETATM   21  C   UNL     1      39.646 -16.431  -3.683  1.00  0.00     0.003 A 
HETATM   22  C   UNL     1      40.588 -15.693  -2.955  1.00  0.00     0.029 A 
BRANCH  19  23
HETATM   23  C   UNL     1      36.891 -13.840  -4.032  1.00  0.00     0.293 C 
HETATM   24  O   UNL     1      36.656 -12.696  -3.669  1.00  0.00    -0.259 OA
BRANCH  23  25
HETATM   25  O   UNL     1      36.085 -14.637  -4.767  1.00  0.00    -0.323 OA
HETATM   26  C   UNL     1      35.406 -13.960  -5.827  1.00  0.00     0.213 C 
ENDBRANCH  23  25
ENDBRANCH  19  23
ENDBRANCH  15  17
ENDBRANCH  13  15
ENDBRANCH  11  13
ENDBRANCH  10  11
ENDBRANCH   4  10
BRANCH   1  27
HETATM   27  C   UNL     1      43.586 -16.620   4.605  1.00  0.00     0.038 A 
HETATM   28  N   UNL     1      44.050 -17.390   5.656  1.00  0.00    -0.277 N 
HETATM   29  C   UNL     1      44.231 -17.013   7.041  1.00  0.00     0.179 C 
HETATM   30  N   UNL     1      44.352 -18.647   5.307  1.00  0.00    -0.170 NA
HETATM   31  C   UNL     1      43.972 -18.743   4.031  1.00  0.00     0.112 A 
HETATM   32  C   UNL     1      43.507 -17.504   3.543  1.00  0.00     0.063 A 
BRANCH  31  33
HETATM   33  C   UNL     1      44.016 -20.019   3.263  1.00  0.00     0.105 A 
HETATM   34  O   UNL     1      44.590 -21.178   3.713  1.00  0.00    -0.320 OA
HETATM   35  C   UNL     1      44.471 -22.096   2.718  1.00  0.00     0.142 A 
HETATM   36  C   UNL     1      43.823 -21.555   1.635  1.00  0.00     0.027 A 
HETATM   37  C   UNL     1      43.523 -20.217   1.987  1.00  0.00     0.041 A 
ENDBRANCH  31  33
ENDBRANCH   1  27
TORSDOF 9
ENDMDL
MODEL 4
REMARK VINA RESULT:      -8.3      1.786      2.407
REMARK  9 active torsions:
REMARK  status: ('A' for Active; 'I' for Inactive)
REMARK    1  A    between atoms: C_4  and  C_5 
REMARK    2  A    between atoms: C_11  and  C_12 
REMARK    3  A    between atoms: C_15  and  C_16 
REMARK    4  A    between atoms: C_16  and  N_17 
REMARK    5  A    between atoms: N_17  and  C_18 
REMARK    6  A    between atoms: C_18  and  N_19 
REMARK    7  A    between atoms: N_19  and  C_20 
REMARK    8  A    between atoms: C_22  and  C_23 
REMARK    9  A    between atoms: C_23  and  O_24 
ROOT
HETATM    1  C   UNL     1      42.672 -15.260   4.000  1.00  0.00     0.067 C 
HETATM    2  C   UNL     1      41.124 -15.144   3.903  1.00  0.00     0.001 C 
HETATM    3  C   UNL     1      40.630 -15.491   2.480  1.00  0.00     0.040 C 
HETATM    4  C   UNL     1      41.180 -14.486   1.456  1.00  0.00     0.206 C 
HETATM    5  N   UNL     1      42.217 -13.614   2.173  1.00  0.00    -0.065 N 
HETATM    6  H   UNL     1      42.673 -13.012   1.473  1.00  0.00     0.280 HD
HETATM    7  C   UNL     1      43.303 -14.420   2.867  1.00  0.00     0.246 C 
HETATM    8  C   UNL     1      40.759 -13.665   4.166  1.00  0.00     0.033 C 
HETATM    9  C   UNL     1      41.506 -12.742   3.194  1.00  0.00     0.236 C 
ENDROOT
BRANCH   4  10
HETATM   10  C   UNL     1      41.717 -15.092   0.143  1.00  0.00     0.155 C 
BRANCH  10  11
HETATM   11  N   UNL     1      40.741 -15.183  -0.939  1.00  0.00    -0.365 N 
HETATM   12  H   UNL     1      39.763 -15.168  -0.674  1.00  0.00     0.161 HD
BRANCH  11  13
HETATM   13  C   UNL     1      40.950 -14.771  -2.228  1.00  0.00     0.172 C 
HETATM   14  S   UNL     1      39.823 -14.922  -3.447  1.00  0.00    -0.041 SA
BRANCH  13  15
HETATM   15  N   UNL     1      42.110 -14.083  -2.466  1.00  0.00    -0.333 N 
HETATM   16  H   UNL     1      42.948 -14.659  -2.435  1.00  0.00     0.168 HD
BRANCH  15  17
HETATM   17  C   UNL     1      42.328 -12.695  -2.624  1.00  0.00     0.035 A 
HETATM   18  C   UNL     1      42.661 -11.851  -1.564  1.00  0.00     0.047 A 
HETATM   19  C   UNL     1      42.805 -10.471  -1.754  1.00  0.00     0.041 A 
HETATM   20  C   UNL     1      42.684  -9.933  -3.035  1.00  0.00     0.018 A 
HETATM   21  C   UNL     1      42.420 -10.781  -4.114  1.00  0.00     0.003 A 
HETATM   22  C   UNL     1      42.247 -12.156  -3.909  1.00  0.00     0.029 A 
BRANCH  19  23
HETATM   23  C   UNL     1      43.045  -9.646  -0.544  1.00  0.00     0.293 C 
HETATM   24  O   UNL     1      44.010  -8.901  -0.441  1.00  0.00    -0.259 OA
BRANCH  23  25
HETATM   25  O   UNL     1      42.061  -9.825   0.364  1.00  0.00    -0.323 OA
HETATM   26  C   UNL     1      41.548  -8.610   0.914  1.00  0.00     0.213 C 
ENDBRANCH  23  25
ENDBRANCH  19  23
ENDBRANCH  15  17
ENDBRANCH  13  15
ENDBRANCH  11  13
ENDBRANCH  10  11
ENDBRANCH   4  10
BRANCH   1  27
HETATM   27  C   UNL     1      43.200 -16.669   4.048  1.00  0.00     0.038 A 
HETATM   28  N   UNL     1      43.682 -17.263   5.200  1.00  0.00    -0.277 N 
HETATM   29  C   UNL     1      43.763 -16.710   6.534  1.00  0.00     0.179 C 
HETATM   30  N   UNL     1      44.113 -18.517   5.017  1.00  0.00    -0.170 NA
HETATM   31  C   UNL     1      43.803 -18.799   3.749  1.00  0.00     0.112 A 
HETATM   32  C   UNL     1      43.252 -17.675   3.098  1.00  0.00     0.063 A 
BRANCH  31  33
HETATM   33  C   UNL     1      43.999 -20.146   3.144  1.00  0.00     0.105 A 
HETATM   34  O   UNL     1      44.582 -21.208   3.782  1.00  0.00    -0.320 OA
HETATM   35  C   UNL     1      44.621 -22.236   2.894  1.00  0.00     0.142 A 
HETATM   36  C   UNL     1      44.066 -21.862   1.695  1.00  0.00     0.027 A 
HETATM   37  C   UNL     1      43.658 -20.515   1.856  1.00  0.00     0.041 A 
ENDBRANCH  31  33
ENDBRANCH   1  27
TORSDOF 9
ENDMDL
MODEL 5
REMARK VINA RESULT:      -8.3      2.001      2.736
REMARK  9 active torsions:
REMARK  status: ('A' for Active; 'I' for Inactive)
REMARK    1  A    between atoms: C_4  and  C_5 
REMARK    2  A    between atoms: C_11  and  C_12 
REMARK    3  A    between atoms: C_15  and  C_16 
REMARK    4  A    between atoms: C_16  and  N_17 
REMARK    5  A    between atoms: N_17  and  C_18 
REMARK    6  A    between atoms: C_18  and  N_19 
REMARK    7  A    between atoms: N_19  and  C_20 
REMARK    8  A    between atoms: C_22  and  C_23 
REMARK    9  A    between atoms: C_23  and  O_24 
ROOT
HETATM    1  C   UNL     1      42.682 -15.321   4.042  1.00  0.00     0.067 C 
HETATM    2  C   UNL     1      41.133 -15.192   4.008  1.00  0.00     0.001 C 
HETATM    3  C   UNL     1      40.575 -15.569   2.618  1.00  0.00     0.040 C 
HETATM    4  C   UNL     1      41.089 -14.595   1.545  1.00  0.00     0.206 C 
HETATM    5  N   UNL     1      42.164 -13.717   2.196  1.00  0.00    -0.065 N 
HETATM    6  H   UNL     1      42.595 -13.137   1.462  1.00  0.00     0.280 HD
HETATM    7  C   UNL     1      43.271 -14.516   2.863  1.00  0.00     0.246 C 
HETATM    8  C   UNL     1      40.793 -13.703   4.249  1.00  0.00     0.033 C 
HETATM    9  C   UNL     1      41.506 -12.812   3.224  1.00  0.00     0.236 C 
ENDROOT
BRANCH   4  10
HETATM   10  C   UNL     1      41.564 -15.239   0.227  1.00  0.00     0.155 C 
BRANCH  10  11
HETATM   11  N   UNL     1      40.596 -15.194  -0.865  1.00  0.00    -0.365 N 
HETATM   12  H   UNL     1      39.632 -15.010  -0.614  1.00  0.00     0.161 HD
BRANCH  11  13
HETATM   13  C   UNL     1      40.882 -14.854  -2.160  1.00  0.00     0.172 C 
HETATM   14  S   UNL     1      39.827 -15.071  -3.434  1.00  0.00    -0.041 SA
BRANCH  13  15
HETATM   15  N   UNL     1      42.058 -14.183  -2.368  1.00  0.00    -0.333 N 
HETATM   16  H   UNL     1      42.887 -14.769  -2.309  1.00  0.00     0.168 HD
BRANCH  15  17
HETATM   17  C   UNL     1      42.298 -12.798  -2.528  1.00  0.00     0.035 A 
HETATM   18  C   UNL     1      41.991 -12.103  -3.697  1.00  0.00     0.047 A 
HETATM   19  C   UNL     1      42.305 -10.745  -3.837  1.00  0.00     0.041 A 
HETATM   20  C   UNL     1      42.868 -10.052  -2.766  1.00  0.00     0.018 A 
HETATM   21  C   UNL     1      43.114 -10.725  -1.566  1.00  0.00     0.003 A 
HETATM   22  C   UNL     1      42.826 -12.090  -1.447  1.00  0.00     0.029 A 
BRANCH  19  23
HETATM   23  C   UNL     1      42.045 -10.126  -5.160  1.00  0.00     0.293 C 
HETATM   24  O   UNL     1      42.863  -9.409  -5.719  1.00  0.00    -0.259 OA
BRANCH  23  25
HETATM   25  O   UNL     1      40.831 -10.488  -5.632  1.00  0.00    -0.323 OA
HETATM   26  C   UNL     1      40.435  -9.792  -6.816  1.00  0.00     0.213 C 
ENDBRANCH  23  25
ENDBRANCH  19  23
ENDBRANCH  15  17
ENDBRANCH  13  15
ENDBRANCH  11  13
ENDBRANCH  10  11
ENDBRANCH   4  10
BRANCH   1  27
HETATM   27  C   UNL     1      43.199 -16.734   4.103  1.00  0.00     0.038 A 
HETATM   28  N   UNL     1      43.631 -17.337   5.270  1.00  0.00    -0.277 N 
HETATM   29  C   UNL     1      43.661 -16.792   6.609  1.00  0.00     0.179 C 
HETATM   30  N   UNL     1      44.061 -18.593   5.097  1.00  0.00    -0.170 NA
HETATM   31  C   UNL     1      43.800 -18.866   3.816  1.00  0.00     0.112 A 
HETATM   32  C   UNL     1      43.282 -17.735   3.150  1.00  0.00     0.063 A 
BRANCH  31  33
HETATM   33  C   UNL     1      44.012 -20.210   3.211  1.00  0.00     0.105 A 
HETATM   34  O   UNL     1      44.585 -21.273   3.858  1.00  0.00    -0.320 OA
HETATM   35  C   UNL     1      44.644 -22.299   2.969  1.00  0.00     0.142 A 
HETATM   36  C   UNL     1      44.112 -21.922   1.760  1.00  0.00     0.027 A 
HETATM   37  C   UNL     1      43.698 -20.578   1.916  1.00  0.00     0.041 A 
ENDBRANCH  31  33
ENDBRANCH   1  27
TORSDOF 9
ENDMDL
MODEL 6
REMARK VINA RESULT:      -8.3      2.599      2.994
REMARK  9 active torsions:
REMARK  status: ('A' for Active; 'I' for Inactive)
REMARK    1  A    between atoms: C_4  and  C_5 
REMARK    2  A    between atoms: C_11  and  C_12 
REMARK    3  A    between atoms: C_15  and  C_16 
REMARK    4  A    between atoms: C_16  and  N_17 
REMARK    5  A    between atoms: N_17  and  C_18 
REMARK    6  A    between atoms: C_18  and  N_19 
REMARK    7  A    between atoms: N_19  and  C_20 
REMARK    8  A    between atoms: C_22  and  C_23 
REMARK    9  A    between atoms: C_23  and  O_24 
ROOT
HETATM    1  C   UNL     1      42.634 -14.756   5.587  1.00  0.00     0.067 C 
HETATM    2  C   UNL     1      41.115 -14.546   5.334  1.00  0.00     0.001 C 
HETATM    3  C   UNL     1      40.797 -14.555   3.821  1.00  0.00     0.040 C 
HETATM    4  C   UNL     1      41.495 -13.382   3.114  1.00  0.00     0.206 C 
HETATM    5  N   UNL     1      42.452 -12.737   4.123  1.00  0.00    -0.065 N 
HETATM    6  H   UNL     1      43.007 -12.023   3.630  1.00  0.00     0.280 HD
HETATM    7  C   UNL     1      43.423 -13.726   4.748  1.00  0.00     0.246 C 
HETATM    8  C   UNL     1      40.752 -13.140   5.868  1.00  0.00     0.033 C 
HETATM    9  C   UNL     1      41.637 -12.069   5.217  1.00  0.00     0.236 C 
ENDROOT
BRANCH   4  10
HETATM   10  C   UNL     1      42.181 -13.720   1.774  1.00  0.00     0.155 C 
BRANCH  10  11
HETATM   11  N   UNL     1      42.476 -15.134   1.572  1.00  0.00    -0.365 N 
HETATM   12  H   UNL     1      42.851 -15.641   2.365  1.00  0.00     0.161 HD
BRANCH  11  13
HETATM   13  C   UNL     1      41.850 -15.951   0.667  1.00  0.00     0.172 C 
HETATM   14  S   UNL     1      40.947 -17.287   1.090  1.00  0.00    -0.041 SA
BRANCH  13  15
HETATM   15  N   UNL     1      41.881 -15.546  -0.640  1.00  0.00    -0.333 N 
HETATM   16  H   UNL     1      42.819 -15.422  -1.015  1.00  0.00     0.168 HD
BRANCH  15  17
HETATM   17  C   UNL     1      40.824 -15.162  -1.498  1.00  0.00     0.035 A 
HETATM   18  C   UNL     1      39.878 -14.196  -1.155  1.00  0.00     0.047 A 
HETATM   19  C   UNL     1      38.810 -13.892  -2.008  1.00  0.00     0.041 A 
HETATM   20  C   UNL     1      38.724 -14.510  -3.255  1.00  0.00     0.018 A 
HETATM   21  C   UNL     1      39.707 -15.427  -3.637  1.00  0.00     0.003 A 
HETATM   22  C   UNL     1      40.754 -15.748  -2.763  1.00  0.00     0.029 A 
BRANCH  19  23
HETATM   23  C   UNL     1      37.793 -12.936  -1.501  1.00  0.00     0.293 C 
HETATM   24  O   UNL     1      37.260 -12.106  -2.223  1.00  0.00    -0.259 OA
BRANCH  23  25
HETATM   25  O   UNL     1      37.550 -13.143  -0.188  1.00  0.00    -0.323 OA
HETATM   26  C   UNL     1      36.808 -12.095   0.439  1.00  0.00     0.213 C 
ENDBRANCH  23  25
ENDBRANCH  19  23
ENDBRANCH  15  17
ENDBRANCH  13  15
ENDBRANCH  11  13
ENDBRANCH  10  11
ENDBRANCH   4  10
BRANCH   1  27
HETATM   27  C   UNL     1      43.120 -16.167   5.388  1.00  0.00     0.038 A 
HETATM   28  N   UNL     1      43.438 -17.017   6.431  1.00  0.00    -0.277 N 
HETATM   29  C   UNL     1      43.361 -16.767   7.854  1.00  0.00     0.179 C 
HETATM   30  N   UNL     1      43.861 -18.222   6.032  1.00  0.00    -0.170 NA
HETATM   31  C   UNL     1      43.709 -18.211   4.706  1.00  0.00     0.112 A 
HETATM   32  C   UNL     1      43.270 -16.948   4.254  1.00  0.00     0.063 A 
BRANCH  31  33
HETATM   33  C   UNL     1      43.950 -19.405   3.848  1.00  0.00     0.105 A 
HETATM   34  O   UNL     1      44.526 -20.569   4.280  1.00  0.00    -0.320 OA
HETATM   35  C   UNL     1      44.615 -21.395   3.205  1.00  0.00     0.142 A 
HETATM   36  C   UNL     1      44.099 -20.790   2.086  1.00  0.00     0.027 A 
HETATM   37  C   UNL     1      43.663 -19.508   2.500  1.00  0.00     0.041 A 
ENDBRANCH  31  33
ENDBRANCH   1  27
TORSDOF 9
ENDMDL
MODEL 7
REMARK VINA RESULT:      -8.0      2.880      7.648
REMARK  9 active torsions:
REMARK  status: ('A' for Active; 'I' for Inactive)
REMARK    1  A    between atoms: C_4  and  C_5 
REMARK    2  A    between atoms: C_11  and  C_12 
REMARK    3  A    between atoms: C_15  and  C_16 
REMARK    4  A    between atoms: C_16  and  N_17 
REMARK    5  A    between atoms: N_17  and  C_18 
REMARK    6  A    between atoms: C_18  and  N_19 
REMARK    7  A    between atoms: N_19  and  C_20 
REMARK    8  A    between atoms: C_22  and  C_23 
REMARK    9  A    between atoms: C_23  and  O_24 
ROOT
HETATM    1  C   UNL     1      39.141 -12.141   4.544  1.00  0.00     0.067 C 
HETATM    2  C   UNL     1      40.067 -10.938   4.881  1.00  0.00     0.001 C 
HETATM    3  C   UNL     1      41.552 -11.364   4.880  1.00  0.00     0.040 C 
HETATM    4  C   UNL     1      41.818 -12.404   5.980  1.00  0.00     0.206 C 
HETATM    5  N   UNL     1      40.461 -12.829   6.552  1.00  0.00    -0.065 N 
HETATM    6  H   UNL     1      40.617 -13.606   7.210  1.00  0.00     0.280 HD
HETATM    7  C   UNL     1      39.485 -13.311   5.492  1.00  0.00     0.246 C 
HETATM    8  C   UNL     1      39.722 -10.485   6.318  1.00  0.00     0.033 C 
HETATM    9  C   UNL     1      39.853 -11.655   7.301  1.00  0.00     0.236 C 
ENDROOT
BRANCH   4  10
HETATM   10  C   UNL     1      42.693 -13.606   5.568  1.00  0.00     0.155 C 
BRANCH  10  11
HETATM   11  N   UNL     1      42.901 -14.604   6.612  1.00  0.00    -0.365 N 
HETATM   12  H   UNL     1      42.710 -14.315   7.565  1.00  0.00     0.161 HD
BRANCH  11  13
HETATM   13  C   UNL     1      42.808 -15.959   6.440  1.00  0.00     0.172 C 
HETATM   14  S   UNL     1      43.186 -17.076   7.619  1.00  0.00    -0.041 SA
BRANCH  13  15
HETATM   15  N   UNL     1      42.248 -16.386   5.265  1.00  0.00    -0.333 N 
HETATM   16  H   UNL     1      41.232 -16.340   5.248  1.00  0.00     0.168 HD
BRANCH  15  17
HETATM   17  C   UNL     1      42.853 -16.984   4.135  1.00  0.00     0.035 A 
HETATM   18  C   UNL     1      43.244 -18.323   4.101  1.00  0.00     0.047 A 
HETATM   19  C   UNL     1      43.897 -18.859   2.984  1.00  0.00     0.041 A 
HETATM   20  C   UNL     1      44.101 -18.066   1.856  1.00  0.00     0.018 A 
HETATM   21  C   UNL     1      43.650 -16.743   1.855  1.00  0.00     0.003 A 
HETATM   22  C   UNL     1      43.025 -16.207   2.988  1.00  0.00     0.029 A 
BRANCH  19  23
HETATM   23  C   UNL     1      44.376 -20.260   3.092  1.00  0.00     0.293 C 
HETATM   24  O   UNL     1      44.083 -21.116   2.269  1.00  0.00    -0.259 OA
BRANCH  23  25
HETATM   25  O   UNL     1      45.167 -20.417   4.176  1.00  0.00    -0.323 OA
HETATM   26  C   UNL     1      44.912 -21.614   4.914  1.00  0.00     0.213 C 
ENDBRANCH  23  25
ENDBRANCH  19  23
ENDBRANCH  15  17
ENDBRANCH  13  15
ENDBRANCH  11  13
ENDBRANCH  10  11
ENDBRANCH   4  10
BRANCH   1  27
HETATM   27  C   UNL     1      39.132 -12.547   3.093  1.00  0.00     0.038 A 
HETATM   28  N   UNL     1      38.398 -11.888   2.124  1.00  0.00    -0.277 N 
HETATM   29  C   UNL     1      37.548 -10.727   2.269  1.00  0.00     0.179 C 
HETATM   30  N   UNL     1      38.524 -12.421   0.902  1.00  0.00    -0.170 NA
HETATM   31  C   UNL     1      39.447 -13.374   1.043  1.00  0.00     0.112 A 
HETATM   32  C   UNL     1      39.842 -13.506   2.392  1.00  0.00     0.063 A 
BRANCH  31  33
HETATM   33  C   UNL     1      39.991 -14.157  -0.102  1.00  0.00     0.105 A 
HETATM   34  O   UNL     1      40.820 -15.240   0.020  1.00  0.00    -0.320 OA
HETATM   35  C   UNL     1      41.133 -15.649  -1.237  1.00  0.00     0.142 A 
HETATM   36  C   UNL     1      40.514 -14.855  -2.172  1.00  0.00     0.027 A 
HETATM   37  C   UNL     1      39.772 -13.896  -1.442  1.00  0.00     0.041 A 
ENDBRANCH  31  33
ENDBRANCH   1  27
TORSDOF 9
ENDMDL
MODEL 8
REMARK VINA RESULT:      -7.9      3.525      4.279
REMARK  9 active torsions:
REMARK  status: ('A' for Active; 'I' for Inactive)
REMARK    1  A    between atoms: C_4  and  C_5 
REMARK    2  A    between atoms: C_11  and  C_12 
REMARK    3  A    between atoms: C_15  and  C_16 
REMARK    4  A    between atoms: C_16  and  N_17 
REMARK    5  A    between atoms: N_17  and  C_18 
REMARK    6  A    between atoms: C_18  and  N_19 
REMARK    7  A    between atoms: N_19  and  C_20 
REMARK    8  A    between atoms: C_22  and  C_23 
REMARK    9  A    between atoms: C_23  and  O_24 
ROOT
HETATM    1  C   UNL     1      42.138 -15.390   3.738  1.00  0.00     0.067 C 
HETATM    2  C   UNL     1      40.601 -15.286   3.530  1.00  0.00     0.001 C 
HETATM    3  C   UNL     1      40.209 -15.665   2.084  1.00  0.00     0.040 C 
HETATM    4  C   UNL     1      40.825 -14.677   1.080  1.00  0.00     0.206 C 
HETATM    5  N   UNL     1      41.806 -13.785   1.850  1.00  0.00    -0.065 N 
HETATM    6  H   UNL     1      42.307 -13.195   1.171  1.00  0.00     0.280 HD
HETATM    7  C   UNL     1      42.843 -14.570   2.635  1.00  0.00     0.246 C 
HETATM    8  C   UNL     1      40.212 -13.804   3.736  1.00  0.00     0.033 C 
HETATM    9  C   UNL     1      41.021 -12.896   2.800  1.00  0.00     0.236 C 
ENDROOT
BRANCH   4  10
HETATM   10  C   UNL     1      41.455 -15.307  -0.179  1.00  0.00     0.155 C 
BRANCH  10  11
HETATM   11  N   UNL     1      40.504 -15.706  -1.211  1.00  0.00    -0.365 N 
HETATM   12  H   UNL     1      39.727 -16.287  -0.918  1.00  0.00     0.161 HD
BRANCH  11  13
HETATM   13  C   UNL     1      40.238 -15.001  -2.355  1.00  0.00     0.172 C 
HETATM   14  S   UNL     1      41.375 -14.104  -3.182  1.00  0.00    -0.041 SA
BRANCH  13  15
HETATM   15  N   UNL     1      38.990 -15.165  -2.894  1.00  0.00    -0.333 N 
HETATM   16  H   UNL     1      38.784 -16.119  -3.182  1.00  0.00     0.168 HD
BRANCH  15  17
HETATM   17  C   UNL     1      38.005 -14.203  -3.217  1.00  0.00     0.035 A 
HETATM   18  C   UNL     1      37.044 -14.400  -4.209  1.00  0.00     0.047 A 
HETATM   19  C   UNL     1      36.128 -13.395  -4.540  1.00  0.00     0.041 A 
HETATM   20  C   UNL     1      36.123 -12.200  -3.822  1.00  0.00     0.018 A 
HETATM   21  C   UNL     1      37.036 -12.021  -2.779  1.00  0.00     0.003 A 
HETATM   22  C   UNL     1      37.970 -13.020  -2.476  1.00  0.00     0.029 A 
BRANCH  19  23
HETATM   23  C   UNL     1      35.223 -13.659  -5.687  1.00  0.00     0.293 C 
HETATM   24  O   UNL     1      34.875 -14.789  -5.999  1.00  0.00    -0.259 OA
BRANCH  23  25
HETATM   25  O   UNL     1      34.849 -12.504  -6.282  1.00  0.00    -0.323 OA
HETATM   26  C   UNL     1      35.572 -12.204  -7.477  1.00  0.00     0.213 C 
ENDBRANCH  23  25
ENDBRANCH  19  23
ENDBRANCH  15  17
ENDBRANCH  13  15
ENDBRANCH  11  13
ENDBRANCH  10  11
ENDBRANCH   4  10
BRANCH   1  27
HETATM   27  C   UNL     1      42.668 -16.796   3.852  1.00  0.00     0.038 A 
HETATM   28  N   UNL     1      42.747 -17.485   5.048  1.00  0.00    -0.277 N 
HETATM   29  C   UNL     1      42.345 -17.050   6.368  1.00  0.00     0.179 C 
HETATM   30  N   UNL     1      43.259 -18.715   4.925  1.00  0.00    -0.170 NA
HETATM   31  C   UNL     1      43.413 -18.887   3.610  1.00  0.00     0.112 A 
HETATM   32  C   UNL     1      43.079 -17.714   2.900  1.00  0.00     0.063 A 
BRANCH  31  33
HETATM   33  C   UNL     1      43.853 -20.174   3.003  1.00  0.00     0.105 A 
HETATM   34  O   UNL     1      43.472 -20.621   1.766  1.00  0.00    -0.320 OA
HETATM   35  C   UNL     1      44.039 -21.844   1.590  1.00  0.00     0.142 A 
HETATM   36  C   UNL     1      44.787 -22.193   2.688  1.00  0.00     0.027 A 
HETATM   37  C   UNL     1      44.674 -21.115   3.598  1.00  0.00     0.041 A 
ENDBRANCH  31  33
ENDBRANCH   1  27
TORSDOF 9
ENDMDL
MODEL 9
REMARK VINA RESULT:      -7.9      1.859      2.052
REMARK  9 active torsions:
REMARK  status: ('A' for Active; 'I' for Inactive)
REMARK    1  A    between atoms: C_4  and  C_5 
REMARK    2  A    between atoms: C_11  and  C_12 
REMARK    3  A    between atoms: C_15  and  C_16 
REMARK    4  A    between atoms: C_16  and  N_17 
REMARK    5  A    between atoms: N_17  and  C_18 
REMARK    6  A    between atoms: C_18  and  N_19 
REMARK    7  A    between atoms: N_19  and  C_20 
REMARK    8  A    between atoms: C_22  and  C_23 
REMARK    9  A    between atoms: C_23  and  O_24 
ROOT
HETATM    1  C   UNL     1      43.212 -15.261   5.097  1.00  0.00     0.067 C 
HETATM    2  C   UNL     1      41.911 -14.843   5.838  1.00  0.00     0.001 C 
HETATM    3  C   UNL     1      40.657 -15.315   5.069  1.00  0.00     0.040 C 
HETATM    4  C   UNL     1      40.579 -14.635   3.692  1.00  0.00     0.206 C 
HETATM    5  N   UNL     1      41.900 -13.891   3.468  1.00  0.00    -0.065 N 
HETATM    6  H   UNL     1      41.906 -13.526   2.505  1.00  0.00     0.280 HD
HETATM    7  C   UNL     1      43.124 -14.777   3.632  1.00  0.00     0.246 C 
HETATM    8  C   UNL     1      41.877 -13.297   5.864  1.00  0.00     0.033 C 
HETATM    9  C   UNL     1      41.983 -12.729   4.443  1.00  0.00     0.236 C 
ENDROOT
BRANCH   4  10
HETATM   10  C   UNL     1      40.204 -15.554   2.511  1.00  0.00     0.155 C 
BRANCH  10  11
HETATM   11  N   UNL     1      41.163 -16.618   2.230  1.00  0.00    -0.365 N 
HETATM   12  H   UNL     1      41.077 -17.467   2.776  1.00  0.00     0.161 HD
BRANCH  11  13
HETATM   13  C   UNL     1      41.789 -16.819   1.029  1.00  0.00     0.172 C 
HETATM   14  S   UNL     1      43.277 -17.556   0.867  1.00  0.00    -0.041 SA
BRANCH  13  15
HETATM   15  N   UNL     1      41.070 -16.502  -0.093  1.00  0.00    -0.333 N 
HETATM   16  H   UNL     1      40.358 -17.186  -0.336  1.00  0.00     0.168 HD
BRANCH  15  17
HETATM   17  C   UNL     1      41.247 -15.447  -1.017  1.00  0.00     0.035 A 
HETATM   18  C   UNL     1      41.725 -14.188  -0.653  1.00  0.00     0.047 A 
HETATM   19  C   UNL     1      41.824 -13.152  -1.589  1.00  0.00     0.041 A 
HETATM   20  C   UNL     1      41.509 -13.395  -2.925  1.00  0.00     0.018 A 
HETATM   21  C   UNL     1      41.097 -14.673  -3.313  1.00  0.00     0.003 A 
HETATM   22  C   UNL     1      40.970 -15.694  -2.363  1.00  0.00     0.029 A 
BRANCH  19  23
HETATM   23  C   UNL     1      42.233 -11.819  -1.079  1.00  0.00     0.293 C 
HETATM   24  O   UNL     1      42.737 -11.668   0.025  1.00  0.00    -0.259 OA
BRANCH  23  25
HETATM   25  O   UNL     1      41.992 -10.857  -1.996  1.00  0.00    -0.323 OA
HETATM   26  C   UNL     1      43.110 -10.004  -2.253  1.00  0.00     0.213 C 
ENDBRANCH  23  25
ENDBRANCH  19  23
ENDBRANCH  15  17
ENDBRANCH  13  15
ENDBRANCH  11  13
ENDBRANCH  10  11
ENDBRANCH   4  10
BRANCH   1  27
HETATM   27  C   UNL     1      43.564 -16.721   5.210  1.00  0.00     0.038 A 
HETATM   28  N   UNL     1      43.585 -17.408   6.410  1.00  0.00    -0.277 N 
HETATM   29  C   UNL     1      43.273 -16.919   7.735  1.00  0.00     0.179 C 
HETATM   30  N   UNL     1      43.936 -18.694   6.285  1.00  0.00    -0.170 NA
HETATM   31  C   UNL     1      44.035 -18.891   4.969  1.00  0.00     0.112 A 
HETATM   32  C   UNL     1      43.832 -17.689   4.257  1.00  0.00     0.063 A 
BRANCH  31  33
HETATM   33  C   UNL     1      44.295 -20.227   4.363  1.00  0.00     0.105 A 
HETATM   34  O   UNL     1      44.112 -20.530   3.040  1.00  0.00    -0.320 OA
HETATM   35  C   UNL     1      44.409 -21.846   2.886  1.00  0.00     0.142 A 
HETATM   36  C   UNL     1      44.789 -22.401   4.084  1.00  0.00     0.027 A 
HETATM   37  C   UNL     1      44.722 -21.356   5.037  1.00  0.00     0.041 A 
ENDBRANCH  31  33
ENDBRANCH   1  27
TORSDOF 9
ENDMDL
MODEL 10
REMARK VINA RESULT:      -7.6      1.835      2.130
REMARK  9 active torsions:
REMARK  status: ('A' for Active; 'I' for Inactive)
REMARK    1  A    between atoms: C_4  and  C_5 
REMARK    2  A    between atoms: C_11  and  C_12 
REMARK    3  A    between atoms: C_15  and  C_16 
REMARK    4  A    between atoms: C_16  and  N_17 
REMARK    5  A    between atoms: N_17  and  C_18 
REMARK    6  A    between atoms: C_18  and  N_19 
REMARK    7  A    between atoms: N_19  and  C_20 
REMARK    8  A    between atoms: C_22  and  C_23 
REMARK    9  A    between atoms: C_23  and  O_24 
ROOT
HETATM    1  C   UNL     1      42.146 -14.930   5.674  1.00  0.00     0.067 C 
HETATM    2  C   UNL     1      40.652 -14.856   5.254  1.00  0.00     0.001 C 
HETATM    3  C   UNL     1      40.512 -14.751   3.718  1.00  0.00     0.040 C 
HETATM    4  C   UNL     1      41.146 -13.448   3.204  1.00  0.00     0.206 C 
HETATM    5  N   UNL     1      41.901 -12.808   4.375  1.00  0.00    -0.065 N 
HETATM    6  H   UNL     1      42.422 -11.995   4.017  1.00  0.00     0.280 HD
HETATM    7  C   UNL     1      42.901 -13.746   5.030  1.00  0.00     0.246 C 
HETATM    8  C   UNL     1      40.071 -13.555   5.856  1.00  0.00     0.033 C 
HETATM    9  C   UNL     1      40.895 -12.339   5.413  1.00  0.00     0.236 C 
ENDROOT
BRANCH   4  10
HETATM   10  C   UNL     1      42.014 -13.580   1.936  1.00  0.00     0.155 C 
BRANCH  10  11
HETATM   11  N   UNL     1      41.303 -14.037   0.747  1.00  0.00    -0.365 N 
HETATM   12  H   UNL     1      40.836 -13.329   0.193  1.00  0.00     0.161 HD
BRANCH  11  13
HETATM   13  C   UNL     1      41.612 -15.159   0.024  1.00  0.00     0.172 C 
HETATM   14  S   UNL     1      41.746 -16.684   0.686  1.00  0.00    -0.041 SA
BRANCH  13  15
HETATM   15  N   UNL     1      41.682 -15.006  -1.335  1.00  0.00    -0.333 N 
HETATM   16  H   UNL     1      42.184 -15.752  -1.811  1.00  0.00     0.168 HD
BRANCH  15  17
HETATM   17  C   UNL     1      41.273 -13.925  -2.150  1.00  0.00     0.035 A 
HETATM   18  C   UNL     1      42.109 -12.854  -2.468  1.00  0.00     0.047 A 
HETATM   19  C   UNL     1      41.643 -11.773  -3.226  1.00  0.00     0.041 A 
HETATM   20  C   UNL     1      40.346 -11.793  -3.736  1.00  0.00     0.018 A 
HETATM   21  C   UNL     1      39.525 -12.895  -3.482  1.00  0.00     0.003 A 
HETATM   22  C   UNL     1      39.989 -13.957  -2.696  1.00  0.00     0.029 A 
BRANCH  19  23
HETATM   23  C   UNL     1      42.573 -10.630  -3.410  1.00  0.00     0.293 C 
HETATM   24  O   UNL     1      43.197 -10.138  -2.480  1.00  0.00    -0.259 OA
BRANCH  23  25
HETATM   25  O   UNL     1      42.630 -10.260  -4.708  1.00  0.00    -0.323 OA
HETATM   26  C   UNL     1      42.364  -8.873  -4.931  1.00  0.00     0.213 C 
ENDBRANCH  23  25
ENDBRANCH  19  23
ENDBRANCH  15  17
ENDBRANCH  13  15
ENDBRANCH  11  13
ENDBRANCH  10  11
ENDBRANCH   4  10
BRANCH   1  27
HETATM   27  C   UNL     1      42.812 -16.257   5.419  1.00  0.00     0.038 A 
HETATM   28  N   UNL     1      43.428 -17.002   6.407  1.00  0.00    -0.277 N 
HETATM   29  C   UNL     1      43.548 -16.706   7.818  1.00  0.00     0.179 C 
HETATM   30  N   UNL     1      43.966 -18.144   5.961  1.00  0.00    -0.170 NA
HETATM   31  C   UNL     1      43.597 -18.212   4.680  1.00  0.00     0.112 A 
HETATM   32  C   UNL     1      42.894 -17.053   4.289  1.00  0.00     0.063 A 
BRANCH  31  33
HETATM   33  C   UNL     1      43.881 -19.390   3.814  1.00  0.00     0.105 A 
HETATM   34  O   UNL     1      44.450 -20.557   4.249  1.00  0.00    -0.320 OA
HETATM   35  C   UNL     1      44.587 -21.365   3.165  1.00  0.00     0.142 A 
HETATM   36  C   UNL     1      44.108 -20.746   2.036  1.00  0.00     0.027 A 
HETATM   37  C   UNL     1      43.646 -19.475   2.454  1.00  0.00     0.041 A 
ENDBRANCH  31  33
ENDBRANCH   1  27
TORSDOF 9
ENDMDL
