MODEL 1
REMARK VINA RESULT:      -8.4      0.000      0.000
REMARK  4 active torsions:
REMARK  status: ('A' for Active; 'I' for Inactive)
REMARK    1  A    between atoms: C_9  and  N_10 
REMARK    2  A    between atoms: N_10  and  C_12 
REMARK    3  A    between atoms: C_12  and  C_13 
REMARK    4  A    between atoms: C_14  and  C_15 
ROOT
HETATM    1  C   UNL     1      41.268 -16.040   3.250  1.00  0.00     0.016 A 
HETATM    2  C   UNL     1      40.354 -14.932   3.322  1.00  0.00     0.096 A 
HETATM    3  N   UNL     1      39.292 -15.133   2.537  1.00  0.00    -0.174 NA
HETATM    4  N   UNL     1      39.538 -16.280   1.903  1.00  0.00    -0.288 N 
HETATM    5  H   UNL     1      38.857 -16.607   1.221  1.00  0.00     0.188 HD
HETATM    6  C   UNL     1      40.708 -16.867   2.294  1.00  0.00     0.120 A 
ENDROOT
BRANCH   1   7
HETATM    7  C   UNL     1      42.518 -16.167   4.048  1.00  0.00     0.277 C 
BRANCH   7   8
HETATM    8  N   UNL     1      42.565 -17.051   5.279  1.00  0.00    -0.065 N 
HETATM    9  H   UNL     1      43.261 -16.618   5.898  1.00  0.00     0.280 HD
HETATM   10  C   UNL     1      41.263 -17.088   6.024  1.00  0.00     0.270 C 
BRANCH   8  11
HETATM   11  C   UNL     1      42.986 -18.448   4.935  1.00  0.00     0.205 C 
HETATM   12  C   UNL     1      44.170 -19.037   5.788  1.00  0.00     0.008 C 
HETATM   13  C   UNL     1      45.072 -18.096   6.594  1.00  0.00     0.020 C 
HETATM   14  C   UNL     1      43.740 -20.233   6.643  1.00  0.00     0.020 C 
HETATM   15  C   UNL     1      44.871 -19.433   4.465  1.00  0.00     0.137 C 
HETATM   16  C   UNL     1      43.884 -18.565   3.667  1.00  0.00     0.049 C 
HETATM   17  O   UNL     1      44.757 -20.784   3.983  1.00  0.00    -0.385 OA
HETATM   18  C   UNL     1      43.395 -19.535   2.581  1.00  0.00     0.035 C 
HETATM   19  C   UNL     1      44.369 -20.711   2.609  1.00  0.00     0.168 C 
ENDBRANCH   8  11
ENDBRANCH   7   8
ENDBRANCH   1   7
BRANCH   2  20
HETATM   20  C   UNL     1      40.461 -13.717   4.126  1.00  0.00    -0.002 A 
HETATM   21  C   UNL     1      39.712 -13.570   5.302  1.00  0.00     0.053 A 
HETATM   22  C   UNL     1      39.819 -12.402   6.057  1.00  0.00     0.103 A 
HETATM   23  C   UNL     1      40.658 -11.368   5.642  1.00  0.00     0.102 A 
HETATM   24  O   UNL     1      39.058 -12.342   7.198  1.00  0.00    -0.346 OA
HETATM   25  O   UNL     1      40.791 -10.187   6.322  1.00  0.00    -0.346 OA
HETATM   26  C   UNL     1      41.429 -11.518   4.492  1.00  0.00     0.040 A 
HETATM   27  C   UNL     1      39.768 -10.021   7.312  1.00  0.00     0.202 C 
HETATM   28  C   UNL     1      39.537 -11.314   8.079  1.00  0.00     0.202 C 
HETATM   29  C   UNL     1      41.333 -12.689   3.736  1.00  0.00     0.017 A 
ENDBRANCH   2  20
TORSDOF 4
ENDMDL
MODEL 2
REMARK VINA RESULT:      -8.3      2.747      6.887
REMARK  4 active torsions:
REMARK  status: ('A' for Active; 'I' for Inactive)
REMARK    1  A    between atoms: C_9  and  N_10 
REMARK    2  A    between atoms: N_10  and  C_12 
REMARK    3  A    between atoms: C_12  and  C_13 
REMARK    4  A    between atoms: C_14  and  C_15 
ROOT
HETATM    1  C   UNL     1      40.839 -15.893   2.183  1.00  0.00     0.016 A 
HETATM    2  C   UNL     1      41.734 -16.787   1.500  1.00  0.00     0.096 A 
HETATM    3  N   UNL     1      41.724 -16.563   0.182  1.00  0.00    -0.174 NA
HETATM    4  N   UNL     1      40.795 -15.626  -0.006  1.00  0.00    -0.288 N 
HETATM    5  H   UNL     1      40.601 -15.327  -0.959  1.00  0.00     0.188 HD
HETATM    6  C   UNL     1      40.233 -15.187   1.160  1.00  0.00     0.120 A 
ENDROOT
BRANCH   1   7
HETATM    7  C   UNL     1      40.659 -15.831   3.659  1.00  0.00     0.277 C 
BRANCH   7   8
HETATM    8  N   UNL     1      40.939 -14.550   4.421  1.00  0.00    -0.065 N 
HETATM    9  H   UNL     1      41.490 -13.967   3.780  1.00  0.00     0.280 HD
HETATM   10  C   UNL     1      39.693 -13.787   4.762  1.00  0.00     0.270 C 
BRANCH   8  11
HETATM   11  C   UNL     1      41.722 -14.816   5.672  1.00  0.00     0.205 C 
HETATM   12  C   UNL     1      43.210 -14.300   5.671  1.00  0.00     0.008 C 
HETATM   13  C   UNL     1      43.895 -13.949   4.346  1.00  0.00     0.020 C 
HETATM   14  C   UNL     1      43.450 -13.201   6.710  1.00  0.00     0.020 C 
HETATM   15  C   UNL     1      43.654 -15.709   6.136  1.00  0.00     0.137 C 
HETATM   16  C   UNL     1      42.261 -16.272   5.806  1.00  0.00     0.049 C 
HETATM   17  O   UNL     1      43.904 -15.945   7.533  1.00  0.00    -0.385 OA
HETATM   18  C   UNL     1      41.889 -17.010   7.101  1.00  0.00     0.035 C 
HETATM   19  C   UNL     1      43.187 -17.127   7.896  1.00  0.00     0.168 C 
ENDBRANCH   8  11
ENDBRANCH   7   8
ENDBRANCH   1   7
BRANCH   2  20
HETATM   20  C   UNL     1      42.598 -17.818   2.070  1.00  0.00    -0.002 A 
HETATM   21  C   UNL     1      42.528 -19.141   1.611  1.00  0.00     0.053 A 
HETATM   22  C   UNL     1      43.354 -20.118   2.168  1.00  0.00     0.103 A 
HETATM   23  C   UNL     1      44.242 -19.790   3.193  1.00  0.00     0.102 A 
HETATM   24  O   UNL     1      43.230 -21.386   1.656  1.00  0.00    -0.346 OA
HETATM   25  O   UNL     1      45.062 -20.704   3.799  1.00  0.00    -0.346 OA
HETATM   26  C   UNL     1      44.339 -18.473   3.634  1.00  0.00     0.040 A 
HETATM   27  C   UNL     1      44.692 -22.051   3.479  1.00  0.00     0.202 C 
HETATM   28  C   UNL     1      44.369 -22.189   1.999  1.00  0.00     0.202 C 
HETATM   29  C   UNL     1      43.522 -17.488   3.073  1.00  0.00     0.017 A 
ENDBRANCH   2  20
TORSDOF 4
ENDMDL
MODEL 3
REMARK VINA RESULT:      -8.1      3.693      5.457
REMARK  4 active torsions:
REMARK  status: ('A' for Active; 'I' for Inactive)
REMARK    1  A    between atoms: C_9  and  N_10 
REMARK    2  A    between atoms: N_10  and  C_12 
REMARK    3  A    between atoms: C_12  and  C_13 
REMARK    4  A    between atoms: C_14  and  C_15 
ROOT
HETATM    1  C   UNL     1      42.947 -15.012   3.462  1.00  0.00     0.016 A 
HETATM    2  C   UNL     1      42.469 -14.208   2.369  1.00  0.00     0.096 A 
HETATM    3  N   UNL     1      42.513 -12.907   2.675  1.00  0.00    -0.174 NA
HETATM    4  N   UNL     1      42.914 -12.860   3.945  1.00  0.00    -0.288 N 
HETATM    5  H   UNL     1      42.985 -11.949   4.392  1.00  0.00     0.188 HD
HETATM    6  C   UNL     1      43.190 -14.092   4.466  1.00  0.00     0.120 A 
ENDROOT
BRANCH   1   7
HETATM    7  C   UNL     1      43.092 -16.493   3.430  1.00  0.00     0.277 C 
BRANCH   7   8
HETATM    8  N   UNL     1      42.697 -17.337   4.627  1.00  0.00    -0.065 N 
HETATM    9  H   UNL     1      43.213 -16.940   5.421  1.00  0.00     0.280 HD
HETATM   10  C   UNL     1      41.235 -17.245   4.951  1.00  0.00     0.270 C 
BRANCH   8  11
HETATM   11  C   UNL     1      43.079 -18.774   4.434  1.00  0.00     0.205 C 
HETATM   12  C   UNL     1      44.251 -19.299   5.344  1.00  0.00     0.008 C 
HETATM   13  C   UNL     1      45.182 -18.301   6.040  1.00  0.00     0.020 C 
HETATM   14  C   UNL     1      43.793 -20.383   6.324  1.00  0.00     0.020 C 
HETATM   15  C   UNL     1      44.934 -19.854   4.069  1.00  0.00     0.137 C 
HETATM   16  C   UNL     1      43.966 -19.050   3.184  1.00  0.00     0.049 C 
HETATM   17  O   UNL     1      44.782 -21.246   3.736  1.00  0.00    -0.385 OA
HETATM   18  C   UNL     1      43.446 -20.119   2.211  1.00  0.00     0.035 C 
HETATM   19  C   UNL     1      44.388 -21.310   2.364  1.00  0.00     0.168 C 
ENDBRANCH   8  11
ENDBRANCH   7   8
ENDBRANCH   1   7
BRANCH   2  20
HETATM   20  C   UNL     1      41.999 -14.646   1.057  1.00  0.00    -0.002 A 
HETATM   21  C   UNL     1      41.765 -13.715   0.036  1.00  0.00     0.053 A 
HETATM   22  C   UNL     1      41.310 -14.145  -1.210  1.00  0.00     0.103 A 
HETATM   23  C   UNL     1      41.071 -15.500  -1.445  1.00  0.00     0.102 A 
HETATM   24  O   UNL     1      41.114 -13.171  -2.158  1.00  0.00    -0.346 OA
HETATM   25  O   UNL     1      40.602 -15.986  -2.636  1.00  0.00    -0.346 OA
HETATM   26  C   UNL     1      41.331 -16.434  -0.446  1.00  0.00     0.040 A 
HETATM   27  C   UNL     1      40.109 -14.941  -3.484  1.00  0.00     0.202 C 
HETATM   28  C   UNL     1      41.045 -13.743  -3.473  1.00  0.00     0.202 C 
HETATM   29  C   UNL     1      41.796 -16.010   0.801  1.00  0.00     0.017 A 
ENDBRANCH   2  20
TORSDOF 4
ENDMDL
MODEL 4
REMARK VINA RESULT:      -7.9      3.301      7.549
REMARK  4 active torsions:
REMARK  status: ('A' for Active; 'I' for Inactive)
REMARK    1  A    between atoms: C_9  and  N_10 
REMARK    2  A    between atoms: N_10  and  C_12 
REMARK    3  A    between atoms: C_12  and  C_13 
REMARK    4  A    between atoms: C_14  and  C_15 
ROOT
HETATM    1  C   UNL     1      40.458 -14.777   4.179  1.00  0.00     0.016 A 
HETATM    2  C   UNL     1      41.033 -15.967   4.747  1.00  0.00     0.096 A 
HETATM    3  N   UNL     1      40.808 -16.028   6.063  1.00  0.00    -0.174 NA
HETATM    4  N   UNL     1      40.194 -14.884   6.366  1.00  0.00    -0.288 N 
HETATM    5  H   UNL     1      39.957 -14.710   7.341  1.00  0.00     0.188 HD
HETATM    6  C   UNL     1      39.957 -14.097   5.275  1.00  0.00     0.120 A 
ENDROOT
BRANCH   1   7
HETATM    7  C   UNL     1      40.469 -14.433   2.731  1.00  0.00     0.277 C 
BRANCH   7   8
HETATM    8  N   UNL     1      41.509 -13.485   2.166  1.00  0.00    -0.065 N 
HETATM    9  H   UNL     1      41.126 -12.543   2.312  1.00  0.00     0.280 HD
HETATM   10  C   UNL     1      42.820 -13.554   2.893  1.00  0.00     0.270 C 
BRANCH   8  11
HETATM   11  C   UNL     1      41.733 -13.726   0.703  1.00  0.00     0.205 C 
HETATM   12  C   UNL     1      41.305 -12.554  -0.257  1.00  0.00     0.008 C 
HETATM   13  C   UNL     1      40.355 -11.463   0.247  1.00  0.00     0.020 C 
HETATM   14  C   UNL     1      42.496 -11.933  -0.993  1.00  0.00     0.020 C 
HETATM   15  C   UNL     1      40.517 -13.589  -1.099  1.00  0.00     0.137 C 
HETATM   16  C   UNL     1      40.666 -14.633   0.021  1.00  0.00     0.049 C 
HETATM   17  O   UNL     1      41.117 -14.133  -2.289  1.00  0.00    -0.385 OA
HETATM   18  C   UNL     1      41.206 -15.854  -0.737  1.00  0.00     0.035 C 
HETATM   19  C   UNL     1      40.983 -15.554  -2.217  1.00  0.00     0.168 C 
ENDBRANCH   8  11
ENDBRANCH   7   8
ENDBRANCH   1   7
BRANCH   2  20
HETATM   20  C   UNL     1      41.761 -17.037   4.069  1.00  0.00    -0.002 A 
HETATM   21  C   UNL     1      42.711 -17.802   4.759  1.00  0.00     0.053 A 
HETATM   22  C   UNL     1      43.404 -18.816   4.098  1.00  0.00     0.103 A 
HETATM   23  C   UNL     1      43.169 -19.067   2.746  1.00  0.00     0.102 A 
HETATM   24  O   UNL     1      44.310 -19.524   4.848  1.00  0.00    -0.346 OA
HETATM   25  O   UNL     1      43.831 -20.029   2.032  1.00  0.00    -0.346 OA
HETATM   26  C   UNL     1      42.205 -18.331   2.061  1.00  0.00     0.040 A 
HETATM   27  C   UNL     1      44.975 -20.526   2.737  1.00  0.00     0.202 C 
HETATM   28  C   UNL     1      44.651 -20.761   4.205  1.00  0.00     0.202 C 
HETATM   29  C   UNL     1      41.501 -17.320   2.720  1.00  0.00     0.017 A 
ENDBRANCH   2  20
TORSDOF 4
ENDMDL
MODEL 5
REMARK VINA RESULT:      -7.8      3.211      4.485
REMARK  4 active torsions:
REMARK  status: ('A' for Active; 'I' for Inactive)
REMARK    1  A    between atoms: C_9  and  N_10 
REMARK    2  A    between atoms: N_10  and  C_12 
REMARK    3  A    between atoms: C_12  and  C_13 
REMARK    4  A    between atoms: C_14  and  C_15 
ROOT
HETATM    1  C   UNL     1      43.000 -15.082   4.980  1.00  0.00     0.016 A 
HETATM    2  C   UNL     1      42.267 -14.033   4.325  1.00  0.00     0.096 A 
HETATM    3  N   UNL     1      42.441 -12.863   4.947  1.00  0.00    -0.174 NA
HETATM    4  N   UNL     1      43.182 -13.145   6.019  1.00  0.00    -0.288 N 
HETATM    5  H   UNL     1      43.408 -12.386   6.659  1.00  0.00     0.188 HD
HETATM    6  C   UNL     1      43.547 -14.459   6.088  1.00  0.00     0.120 A 
ENDROOT
BRANCH   1   7
HETATM    7  C   UNL     1      43.077 -16.492   4.508  1.00  0.00     0.277 C 
BRANCH   7   8
HETATM    8  N   UNL     1      42.404 -17.607   5.285  1.00  0.00    -0.065 N 
HETATM    9  H   UNL     1      42.570 -17.388   6.274  1.00  0.00     0.280 HD
HETATM   10  C   UNL     1      40.918 -17.651   5.078  1.00  0.00     0.270 C 
BRANCH   8  11
HETATM   11  C   UNL     1      42.996 -18.943   4.949  1.00  0.00     0.205 C 
HETATM   12  C   UNL     1      44.152 -19.438   5.897  1.00  0.00     0.008 C 
HETATM   13  C   UNL     1      44.874 -18.437   6.805  1.00  0.00     0.020 C 
HETATM   14  C   UNL     1      43.770 -20.698   6.679  1.00  0.00     0.020 C 
HETATM   15  C   UNL     1      45.008 -19.717   4.637  1.00  0.00     0.137 C 
HETATM   16  C   UNL     1      44.014 -18.927   3.769  1.00  0.00     0.049 C 
HETATM   17  O   UNL     1      45.078 -21.057   4.115  1.00  0.00    -0.385 OA
HETATM   18  C   UNL     1      43.729 -19.906   2.620  1.00  0.00     0.035 C 
HETATM   19  C   UNL     1      44.812 -20.978   2.713  1.00  0.00     0.168 C 
ENDBRANCH   8  11
ENDBRANCH   7   8
ENDBRANCH   1   7
BRANCH   2  20
HETATM   20  C   UNL     1      41.434 -14.118   3.127  1.00  0.00    -0.002 A 
HETATM   21  C   UNL     1      42.005 -14.006   1.852  1.00  0.00     0.053 A 
HETATM   22  C   UNL     1      41.198 -14.083   0.717  1.00  0.00     0.103 A 
HETATM   23  C   UNL     1      39.819 -14.257   0.841  1.00  0.00     0.102 A 
HETATM   24  O   UNL     1      41.836 -13.972  -0.494  1.00  0.00    -0.346 OA
HETATM   25  O   UNL     1      38.968 -14.316  -0.230  1.00  0.00    -0.346 OA
HETATM   26  C   UNL     1      39.249 -14.400   2.103  1.00  0.00     0.040 A 
HETATM   27  C   UNL     1      39.601 -13.884  -1.441  1.00  0.00     0.202 C 
HETATM   28  C   UNL     1      41.004 -14.459  -1.558  1.00  0.00     0.202 C 
HETATM   29  C   UNL     1      40.053 -14.333   3.244  1.00  0.00     0.017 A 
ENDBRANCH   2  20
TORSDOF 4
ENDMDL
MODEL 6
REMARK VINA RESULT:      -7.6      3.410      7.285
REMARK  4 active torsions:
REMARK  status: ('A' for Active; 'I' for Inactive)
REMARK    1  A    between atoms: C_9  and  N_10 
REMARK    2  A    between atoms: N_10  and  C_12 
REMARK    3  A    between atoms: C_12  and  C_13 
REMARK    4  A    between atoms: C_14  and  C_15 
ROOT
HETATM    1  C   UNL     1      43.587 -14.948   5.678  1.00  0.00     0.016 A 
HETATM    2  C   UNL     1      43.958 -15.880   6.709  1.00  0.00     0.096 A 
HETATM    3  N   UNL     1      44.252 -15.245   7.847  1.00  0.00    -0.174 NA
HETATM    4  N   UNL     1      44.169 -13.947   7.555  1.00  0.00    -0.288 N 
HETATM    5  H   UNL     1      44.389 -13.275   8.287  1.00  0.00     0.188 HD
HETATM    6  C   UNL     1      43.772 -13.712   6.269  1.00  0.00     0.120 A 
ENDROOT
BRANCH   1   7
HETATM    7  C   UNL     1      43.138 -15.325   4.309  1.00  0.00     0.277 C 
BRANCH   7   8
HETATM    8  N   UNL     1      41.809 -16.022   4.094  1.00  0.00    -0.065 N 
HETATM    9  H   UNL     1      41.980 -17.009   4.319  1.00  0.00     0.280 HD
HETATM   10  C   UNL     1      40.734 -15.531   5.018  1.00  0.00     0.270 C 
BRANCH   8  11
HETATM   11  C   UNL     1      41.347 -15.894   2.673  1.00  0.00     0.205 C 
HETATM   12  C   UNL     1      41.777 -17.058   1.705  1.00  0.00     0.008 C 
HETATM   13  C   UNL     1      42.922 -17.996   2.102  1.00  0.00     0.020 C 
HETATM   14  C   UNL     1      40.581 -17.858   1.181  1.00  0.00     0.020 C 
HETATM   15  C   UNL     1      42.296 -15.985   0.715  1.00  0.00     0.137 C 
HETATM   16  C   UNL     1      42.179 -14.905   1.804  1.00  0.00     0.049 C 
HETATM   17  O   UNL     1      41.466 -15.586  -0.391  1.00  0.00    -0.385 OA
HETATM   18  C   UNL     1      41.384 -13.802   1.089  1.00  0.00     0.035 C 
HETATM   19  C   UNL     1      41.427 -14.157  -0.395  1.00  0.00     0.168 C 
ENDBRANCH   8  11
ENDBRANCH   7   8
ENDBRANCH   1   7
BRANCH   2  20
HETATM   20  C   UNL     1      44.017 -17.338   6.637  1.00  0.00    -0.002 A 
HETATM   21  C   UNL     1      44.466 -17.977   5.473  1.00  0.00     0.053 A 
HETATM   22  C   UNL     1      44.511 -19.370   5.415  1.00  0.00     0.103 A 
HETATM   23  C   UNL     1      44.098 -20.136   6.505  1.00  0.00     0.102 A 
HETATM   24  O   UNL     1      44.972 -19.917   4.242  1.00  0.00    -0.346 OA
HETATM   25  O   UNL     1      44.094 -21.505   6.505  1.00  0.00    -0.346 OA
HETATM   26  C   UNL     1      43.679 -19.509   7.675  1.00  0.00     0.040 A 
HETATM   27  C   UNL     1      44.268 -22.041   5.187  1.00  0.00     0.202 C 
HETATM   28  C   UNL     1      45.352 -21.288   4.432  1.00  0.00     0.202 C 
HETATM   29  C   UNL     1      43.640 -18.114   7.743  1.00  0.00     0.017 A 
ENDBRANCH   2  20
TORSDOF 4
ENDMDL
MODEL 7
REMARK VINA RESULT:      -7.4      3.480      5.251
REMARK  4 active torsions:
REMARK  status: ('A' for Active; 'I' for Inactive)
REMARK    1  A    between atoms: C_9  and  N_10 
REMARK    2  A    between atoms: N_10  and  C_12 
REMARK    3  A    between atoms: C_12  and  C_13 
REMARK    4  A    between atoms: C_14  and  C_15 
ROOT
HETATM    1  C   UNL     1      40.480 -14.012   4.776  1.00  0.00     0.016 A 
HETATM    2  C   UNL     1      39.823 -13.230   3.763  1.00  0.00     0.096 A 
HETATM    3  N   UNL     1      39.149 -12.212   4.305  1.00  0.00    -0.174 NA
HETATM    4  N   UNL     1      39.279 -12.368   5.623  1.00  0.00    -0.288 N 
HETATM    5  H   UNL     1      38.807 -11.705   6.234  1.00  0.00     0.188 HD
HETATM    6  C   UNL     1      40.070 -13.430   5.961  1.00  0.00     0.120 A 
ENDROOT
BRANCH   1   7
HETATM    7  C   UNL     1      41.368 -15.178   4.510  1.00  0.00     0.277 C 
BRANCH   7   8
HETATM    8  N   UNL     1      42.560 -15.049   3.581  1.00  0.00    -0.065 N 
HETATM    9  H   UNL     1      42.166 -14.799   2.667  1.00  0.00     0.280 HD
HETATM   10  C   UNL     1      43.498 -13.949   3.982  1.00  0.00     0.270 C 
BRANCH   8  11
HETATM   11  C   UNL     1      43.316 -16.340   3.478  1.00  0.00     0.205 C 
HETATM   12  C   UNL     1      42.951 -17.251   2.247  1.00  0.00     0.008 C 
HETATM   13  C   UNL     1      41.641 -17.016   1.486  1.00  0.00     0.020 C 
HETATM   14  C   UNL     1      44.119 -17.414   1.270  1.00  0.00     0.020 C 
HETATM   15  C   UNL     1      42.783 -18.437   3.229  1.00  0.00     0.137 C 
HETATM   16  C   UNL     1      42.809 -17.470   4.424  1.00  0.00     0.049 C 
HETATM   17  O   UNL     1      43.865 -19.371   3.396  1.00  0.00    -0.385 OA
HETATM   18  C   UNL     1      43.865 -18.105   5.340  1.00  0.00     0.035 C 
HETATM   19  C   UNL     1      44.082 -19.517   4.802  1.00  0.00     0.168 C 
ENDBRANCH   8  11
ENDBRANCH   7   8
ENDBRANCH   1   7
BRANCH   2  20
HETATM   20  C   UNL     1      39.840 -13.421   2.315  1.00  0.00    -0.002 A 
HETATM   21  C   UNL     1      40.888 -12.906   1.540  1.00  0.00     0.053 A 
HETATM   22  C   UNL     1      40.889 -13.089   0.157  1.00  0.00     0.103 A 
HETATM   23  C   UNL     1      39.843 -13.770  -0.466  1.00  0.00     0.102 A 
HETATM   24  O   UNL     1      41.956 -12.561  -0.527  1.00  0.00    -0.346 OA
HETATM   25  O   UNL     1      39.771 -13.963  -1.819  1.00  0.00    -0.346 OA
HETATM   26  C   UNL     1      38.814 -14.311   0.300  1.00  0.00     0.040 A 
HETATM   27  C   UNL     1      40.708 -13.143  -2.528  1.00  0.00     0.202 C 
HETATM   28  C   UNL     1      42.062 -13.141  -1.836  1.00  0.00     0.202 C 
HETATM   29  C   UNL     1      38.812 -14.140   1.687  1.00  0.00     0.017 A 
ENDBRANCH   2  20
TORSDOF 4
ENDMDL
MODEL 8
REMARK VINA RESULT:      -7.2      2.583      6.550
REMARK  4 active torsions:
REMARK  status: ('A' for Active; 'I' for Inactive)
REMARK    1  A    between atoms: C_9  and  N_10 
REMARK    2  A    between atoms: N_10  and  C_12 
REMARK    3  A    between atoms: C_12  and  C_13 
REMARK    4  A    between atoms: C_14  and  C_15 
ROOT
HETATM    1  C   UNL     1      40.834 -15.801   1.215  1.00  0.00     0.016 A 
HETATM    2  C   UNL     1      41.883 -16.467   1.940  1.00  0.00     0.096 A 
HETATM    3  N   UNL     1      42.836 -16.904   1.112  1.00  0.00    -0.174 NA
HETATM    4  N   UNL     1      42.392 -16.622  -0.113  1.00  0.00    -0.288 N 
HETATM    5  H   UNL     1      42.961 -16.904  -0.907  1.00  0.00     0.188 HD
HETATM    6  C   UNL     1      41.197 -15.958  -0.110  1.00  0.00     0.120 A 
ENDROOT
BRANCH   1   7
HETATM    7  C   UNL     1      39.655 -15.139   1.838  1.00  0.00     0.277 C 
BRANCH   7   8
HETATM    8  N   UNL     1      39.319 -13.694   1.522  1.00  0.00    -0.065 N 
HETATM    9  H   UNL     1      39.888 -13.457   0.701  1.00  0.00     0.280 HD
HETATM   10  C   UNL     1      37.881 -13.497   1.143  1.00  0.00     0.270 C 
BRANCH   8  11
HETATM   11  C   UNL     1      39.666 -12.788   2.665  1.00  0.00     0.205 C 
HETATM   12  C   UNL     1      40.958 -11.909   2.474  1.00  0.00     0.008 C 
HETATM   13  C   UNL     1      41.983 -12.283   1.398  1.00  0.00     0.020 C 
HETATM   14  C   UNL     1      40.647 -10.410   2.425  1.00  0.00     0.020 C 
HETATM   15  C   UNL     1      41.447 -12.404   3.859  1.00  0.00     0.137 C 
HETATM   16  C   UNL     1      40.361 -13.493   3.868  1.00  0.00     0.049 C 
HETATM   17  O   UNL     1      41.245 -11.572   5.016  1.00  0.00    -0.385 OA
HETATM   18  C   UNL     1      39.702 -13.289   5.240  1.00  0.00     0.035 C 
HETATM   19  C   UNL     1      40.654 -12.392   6.027  1.00  0.00     0.168 C 
ENDBRANCH   8  11
ENDBRANCH   7   8
ENDBRANCH   1   7
BRANCH   2  20
HETATM   20  C   UNL     1      42.001 -16.673   3.381  1.00  0.00    -0.002 A 
HETATM   21  C   UNL     1      43.003 -16.022   4.115  1.00  0.00     0.053 A 
HETATM   22  C   UNL     1      43.109 -16.233   5.490  1.00  0.00     0.103 A 
HETATM   23  C   UNL     1      42.232 -17.101   6.141  1.00  0.00     0.102 A 
HETATM   24  O   UNL     1      44.111 -15.551   6.136  1.00  0.00    -0.346 OA
HETATM   25  O   UNL     1      42.297 -17.371   7.482  1.00  0.00    -0.346 OA
HETATM   26  C   UNL     1      41.216 -17.728   5.425  1.00  0.00     0.040 A 
HETATM   27  C   UNL     1      43.524 -16.909   8.062  1.00  0.00     0.202 C 
HETATM   28  C   UNL     1      43.880 -15.522   7.552  1.00  0.00     0.202 C 
HETATM   29  C   UNL     1      41.098 -17.513   4.049  1.00  0.00     0.017 A 
ENDBRANCH   2  20
TORSDOF 4
ENDMDL
MODEL 9
REMARK VINA RESULT:      -7.1      2.103      3.351
REMARK  4 active torsions:
REMARK  status: ('A' for Active; 'I' for Inactive)
REMARK    1  A    between atoms: C_9  and  N_10 
REMARK    2  A    between atoms: N_10  and  C_12 
REMARK    3  A    between atoms: C_12  and  C_13 
REMARK    4  A    between atoms: C_14  and  C_15 
ROOT
HETATM    1  C   UNL     1      41.415 -14.883   1.452  1.00  0.00     0.016 A 
HETATM    2  C   UNL     1      40.242 -14.252   1.993  1.00  0.00     0.096 A 
HETATM    3  N   UNL     1      39.233 -14.280   1.117  1.00  0.00    -0.174 NA
HETATM    4  N   UNL     1      39.744 -14.823   0.013  1.00  0.00    -0.288 N 
HETATM    5  H   UNL     1      39.142 -14.910  -0.803  1.00  0.00     0.188 HD
HETATM    6  C   UNL     1      41.048 -15.206   0.158  1.00  0.00     0.120 A 
ENDROOT
BRANCH   1   7
HETATM    7  C   UNL     1      42.693 -15.082   2.188  1.00  0.00     0.277 C 
BRANCH   7   8
HETATM    8  N   UNL     1      43.069 -16.445   2.737  1.00  0.00    -0.065 N 
HETATM    9  H   UNL     1      42.192 -16.978   2.763  1.00  0.00     0.280 HD
HETATM   10  C   UNL     1      44.022 -17.190   1.849  1.00  0.00     0.270 C 
BRANCH   8  11
HETATM   11  C   UNL     1      43.646 -16.340   4.117  1.00  0.00     0.205 C 
HETATM   12  C   UNL     1      43.004 -17.283   5.201  1.00  0.00     0.008 C 
HETATM   13  C   UNL     1      41.634 -17.920   4.943  1.00  0.00     0.020 C 
HETATM   14  C   UNL     1      43.992 -18.325   5.733  1.00  0.00     0.020 C 
HETATM   15  C   UNL     1      42.843 -16.045   6.120  1.00  0.00     0.137 C 
HETATM   16  C   UNL     1      43.153 -15.111   4.938  1.00  0.00     0.049 C 
HETATM   17  O   UNL     1      43.821 -15.797   7.145  1.00  0.00    -0.385 OA
HETATM   18  C   UNL     1      44.249 -14.203   5.515  1.00  0.00     0.035 C 
HETATM   19  C   UNL     1      44.221 -14.429   7.025  1.00  0.00     0.168 C 
ENDBRANCH   8  11
ENDBRANCH   7   8
ENDBRANCH   1   7
BRANCH   2  20
HETATM   20  C   UNL     1      40.061 -13.650   3.313  1.00  0.00    -0.002 A 
HETATM   21  C   UNL     1      40.084 -12.258   3.471  1.00  0.00     0.053 A 
HETATM   22  C   UNL     1      39.917 -11.696   4.737  1.00  0.00     0.103 A 
HETATM   23  C   UNL     1      39.742 -12.513   5.854  1.00  0.00     0.102 A 
HETATM   24  O   UNL     1      39.943 -10.325   4.804  1.00  0.00    -0.346 OA
HETATM   25  O   UNL     1      39.597 -12.028   7.126  1.00  0.00    -0.346 OA
HETATM   26  C   UNL     1      39.688 -13.896   5.701  1.00  0.00     0.040 A 
HETATM   27  C   UNL     1      39.943 -10.641   7.213  1.00  0.00     0.202 C 
HETATM   28  C   UNL     1      39.373  -9.862   6.038  1.00  0.00     0.202 C 
HETATM   29  C   UNL     1      39.844 -14.464   4.434  1.00  0.00     0.017 A 
ENDBRANCH   2  20
TORSDOF 4
ENDMDL
MODEL 10
REMARK VINA RESULT:      -7.1      2.907      5.815
REMARK  4 active torsions:
REMARK  status: ('A' for Active; 'I' for Inactive)
REMARK    1  A    between atoms: C_9  and  N_10 
REMARK    2  A    between atoms: N_10  and  C_12 
REMARK    3  A    between atoms: C_12  and  C_13 
REMARK    4  A    between atoms: C_14  and  C_15 
ROOT
HETATM    1  C   UNL     1      42.954 -17.556   2.095  1.00  0.00     0.016 A 
HETATM    2  C   UNL     1      43.014 -17.127   3.467  1.00  0.00     0.096 A 
HETATM    3  N   UNL     1      43.475 -18.103   4.256  1.00  0.00    -0.174 NA
HETATM    4  N   UNL     1      43.625 -19.158   3.455  1.00  0.00    -0.288 N 
HETATM    5  H   UNL     1      43.942 -20.032   3.868  1.00  0.00     0.188 HD
HETATM    6  C   UNL     1      43.329 -18.886   2.149  1.00  0.00     0.120 A 
ENDROOT
BRANCH   1   7
HETATM    7  C   UNL     1      42.549 -16.696   0.950  1.00  0.00     0.277 C 
BRANCH   7   8
HETATM    8  N   UNL     1      41.085 -16.495   0.610  1.00  0.00    -0.065 N 
HETATM    9  H   UNL     1      40.932 -17.024  -0.256  1.00  0.00     0.280 HD
HETATM   10  C   UNL     1      40.160 -17.059   1.649  1.00  0.00     0.270 C 
BRANCH   8  11
HETATM   11  C   UNL     1      40.767 -15.047   0.389  1.00  0.00     0.205 C 
HETATM   12  C   UNL     1      40.495 -14.625  -1.103  1.00  0.00     0.008 C 
HETATM   13  C   UNL     1      40.944 -15.539  -2.248  1.00  0.00     0.020 C 
HETATM   14  C   UNL     1      39.056 -14.150  -1.326  1.00  0.00     0.020 C 
HETATM   15  C   UNL     1      41.514 -13.473  -0.919  1.00  0.00     0.137 C 
HETATM   16  C   UNL     1      42.004 -14.099   0.398  1.00  0.00     0.049 C 
HETATM   17  O   UNL     1      41.035 -12.148  -0.624  1.00  0.00    -0.385 OA
HETATM   18  C   UNL     1      41.937 -12.913   1.372  1.00  0.00     0.035 C 
HETATM   19  C   UNL     1      41.780 -11.670   0.498  1.00  0.00     0.168 C 
ENDBRANCH   8  11
ENDBRANCH   7   8
ENDBRANCH   1   7
BRANCH   2  20
HETATM   20  C   UNL     1      42.666 -15.823   4.027  1.00  0.00    -0.002 A 
HETATM   21  C   UNL     1      41.361 -15.562   4.468  1.00  0.00     0.053 A 
HETATM   22  C   UNL     1      41.040 -14.311   4.995  1.00  0.00     0.103 A 
HETATM   23  C   UNL     1      42.007 -13.308   5.072  1.00  0.00     0.102 A 
HETATM   24  O   UNL     1      39.743 -14.140   5.413  1.00  0.00    -0.346 OA
HETATM   25  O   UNL     1      41.752 -12.052   5.555  1.00  0.00    -0.346 OA
HETATM   26  C   UNL     1      43.312 -13.569   4.663  1.00  0.00     0.040 A 
HETATM   27  C   UNL     1      40.347 -11.802   5.681  1.00  0.00     0.202 C 
HETATM   28  C   UNL     1      39.632 -13.002   6.281  1.00  0.00     0.202 C 
HETATM   29  C   UNL     1      43.643 -14.824   4.144  1.00  0.00     0.017 A 
ENDBRANCH   2  20
TORSDOF 4
ENDMDL
