MODEL 1
REMARK VINA RESULT:      -9.1      0.000      0.000
REMARK  7 active torsions:
REMARK  status: ('A' for Active; 'I' for Inactive)
REMARK    1  A    between atoms: C_4  and  N_5 
REMARK    2  A    between atoms: C_6  and  S_7 
REMARK    3  A    between atoms: S_7  and  C_8 
REMARK    4  A    between atoms: C_8  and  C_9 
REMARK       I    between atoms: C_9  and  N_10 
REMARK    5  A    between atoms: N_10  and  C_11 
REMARK    6  A    between atoms: C_14  and  C_15 
REMARK       I    between atoms: C_15  and  N_16 
REMARK    7  A    between atoms: C_23  and  C_24 
ROOT
HETATM    1  N   UNL     1      43.280 -15.859   5.166  1.00  0.00    -0.271 N 
HETATM    2  C   UNL     1      43.470 -14.497   5.360  1.00  0.00     0.197 A 
HETATM    3  N   UNL     1      44.204 -14.286   6.426  1.00  0.00    -0.122 NA
HETATM    4  N   UNL     1      44.509 -15.500   6.970  1.00  0.00    -0.128 NA
HETATM    5  C   UNL     1      43.904 -16.442   6.267  1.00  0.00     0.171 A 
ENDROOT
BRANCH   2   6
HETATM    6  S   UNL     1      42.996 -13.241   4.257  1.00  0.00    -0.080 SA
BRANCH   6   7
HETATM    7  C   UNL     1      41.205 -13.173   4.579  1.00  0.00     0.185 C 
BRANCH   7   8
HETATM    8  C   UNL     1      40.420 -13.639   3.361  1.00  0.00     0.231 C 
HETATM    9  N   UNL     1      41.124 -13.519   2.172  1.00  0.00    -0.327 N 
HETATM   10  H   UNL     1      42.030 -13.068   2.241  1.00  0.00     0.169 HD
HETATM   11  O   UNL     1      39.298 -14.123   3.487  1.00  0.00    -0.272 OA
BRANCH   9  12
HETATM   12  C   UNL     1      40.697 -13.865   0.875  1.00  0.00     0.034 A 
HETATM   13  C   UNL     1      39.546 -13.358   0.269  1.00  0.00     0.030 A 
HETATM   14  C   UNL     1      39.194 -13.741  -1.034  1.00  0.00     0.019 A 
HETATM   15  C   UNL     1      39.990 -14.647  -1.742  1.00  0.00     0.032 A 
HETATM   16  C   UNL     1      41.148 -15.150  -1.141  1.00  0.00     0.019 A 
HETATM   17  C   UNL     1      41.496 -14.765   0.159  1.00  0.00     0.030 A 
BRANCH  15  18
HETATM   18  C   UNL     1      39.670 -15.082  -3.128  1.00  0.00     0.249 C 
HETATM   19  N   UNL     1      38.489 -15.737  -3.336  1.00  0.00    -0.366 N 
HETATM   20  H   UNL     1      37.918 -16.105  -2.589  1.00  0.00     0.159 HD
HETATM   21  H   UNL     1      38.335 -16.102  -4.268  1.00  0.00     0.159 HD
HETATM   22  O   UNL     1      40.448 -14.892  -4.055  1.00  0.00    -0.268 OA
ENDBRANCH  15  18
ENDBRANCH   9  12
ENDBRANCH   7   8
ENDBRANCH   6   7
ENDBRANCH   2   6
BRANCH   1  23
HETATM   23  C   UNL     1      42.711 -16.512   4.040  1.00  0.00     0.044 A 
HETATM   24  C   UNL     1      43.486 -16.787   2.906  1.00  0.00     0.037 A 
HETATM   25  C   UNL     1      42.918 -17.442   1.804  1.00  0.00    -0.060 A 
HETATM   26  C   UNL     1      43.747 -17.770   0.597  1.00  0.00     0.048 C 
HETATM   27  C   UNL     1      41.576 -17.837   1.859  1.00  0.00     0.007 A 
HETATM   28  C   UNL     1      40.804 -17.566   2.988  1.00  0.00     0.003 A 
HETATM   29  C   UNL     1      41.366 -16.905   4.078  1.00  0.00     0.030 A 
ENDBRANCH   1  23
BRANCH   5  30
HETATM   30  C   UNL     1      43.867 -17.867   6.733  1.00  0.00     0.040 A 
HETATM   31  C   UNL     1      44.226 -19.019   5.964  1.00  0.00     0.006 A 
HETATM   32  C   UNL     1      44.061 -20.133   6.790  1.00  0.00     0.043 A 
HETATM   33  C   UNL     1      44.654 -19.233   4.636  1.00  0.00     0.015 A 
HETATM   34  C   UNL     1      44.302 -21.443   6.358  1.00  0.00     0.030 A 
HETATM   35  N   UNL     1      43.649 -19.671   8.018  1.00  0.00    -0.364 N 
HETATM   36  C   UNL     1      44.723 -21.623   5.037  1.00  0.00     0.002 A 
HETATM   37  C   UNL     1      44.897 -20.536   4.187  1.00  0.00     0.001 A 
HETATM   38  H   UNL     1      43.470 -20.260   8.819  1.00  0.00     0.165 HD
HETATM   39  C   UNL     1      43.537 -18.305   7.998  1.00  0.00     0.104 A 
ENDBRANCH   5  30
TORSDOF 7
ENDMDL
MODEL 2
REMARK VINA RESULT:      -9.1      4.777      8.852
REMARK  7 active torsions:
REMARK  status: ('A' for Active; 'I' for Inactive)
REMARK    1  A    between atoms: C_4  and  N_5 
REMARK    2  A    between atoms: C_6  and  S_7 
REMARK    3  A    between atoms: S_7  and  C_8 
REMARK    4  A    between atoms: C_8  and  C_9 
REMARK       I    between atoms: C_9  and  N_10 
REMARK    5  A    between atoms: N_10  and  C_11 
REMARK    6  A    between atoms: C_14  and  C_15 
REMARK       I    between atoms: C_15  and  N_16 
REMARK    7  A    between atoms: C_23  and  C_24 
ROOT
HETATM    1  N   UNL     1      41.372 -14.226   4.591  1.00  0.00    -0.271 N 
HETATM    2  C   UNL     1      40.337 -13.344   4.867  1.00  0.00     0.197 A 
HETATM    3  N   UNL     1      39.411 -13.422   3.941  1.00  0.00    -0.122 NA
HETATM    4  N   UNL     1      39.816 -14.349   3.024  1.00  0.00    -0.128 NA
HETATM    5  C   UNL     1      41.017 -14.783   3.364  1.00  0.00     0.171 A 
ENDROOT
BRANCH   2   6
HETATM    6  S   UNL     1      40.161 -12.412   6.323  1.00  0.00    -0.080 SA
BRANCH   6   7
HETATM    7  C   UNL     1      41.390 -11.101   6.030  1.00  0.00     0.185 C 
BRANCH   7   8
HETATM    8  C   UNL     1      41.717 -10.369   7.325  1.00  0.00     0.231 C 
HETATM    9  N   UNL     1      41.874 -11.215   8.412  1.00  0.00    -0.327 N 
HETATM   10  H   UNL     1      41.675 -12.195   8.240  1.00  0.00     0.169 HD
HETATM   11  O   UNL     1      41.875  -9.152   7.331  1.00  0.00    -0.272 OA
BRANCH   9  12
HETATM   12  C   UNL     1      42.186 -10.867   9.741  1.00  0.00     0.034 A 
HETATM   13  C   UNL     1      43.465 -10.525  10.181  1.00  0.00     0.030 A 
HETATM   14  C   UNL     1      43.694 -10.177  11.520  1.00  0.00     0.019 A 
HETATM   15  C   UNL     1      42.640 -10.176  12.439  1.00  0.00     0.032 A 
HETATM   16  C   UNL     1      41.354 -10.511  12.000  1.00  0.00     0.019 A 
HETATM   17  C   UNL     1      41.131 -10.858  10.662  1.00  0.00     0.030 A 
BRANCH  15  18
HETATM   18  C   UNL     1      42.821  -9.808  13.869  1.00  0.00     0.249 C 
HETATM   19  N   UNL     1      43.684  -8.789  14.162  1.00  0.00    -0.366 N 
HETATM   20  H   UNL     1      44.337  -8.405  13.495  1.00  0.00     0.159 HD
HETATM   21  H   UNL     1      43.858  -8.616  15.144  1.00  0.00     0.159 HD
HETATM   22  O   UNL     1      42.244 -10.412  14.764  1.00  0.00    -0.268 OA
ENDBRANCH  15  18
ENDBRANCH   9  12
ENDBRANCH   7   8
ENDBRANCH   6   7
ENDBRANCH   2   6
BRANCH   1  23
HETATM   23  C   UNL     1      42.464 -14.584   5.427  1.00  0.00     0.044 A 
HETATM   24  C   UNL     1      42.359 -15.660   6.318  1.00  0.00     0.037 A 
HETATM   25  C   UNL     1      43.446 -16.013   7.131  1.00  0.00    -0.060 A 
HETATM   26  C   UNL     1      43.356 -17.183   8.065  1.00  0.00     0.048 C 
HETATM   27  C   UNL     1      44.642 -15.292   7.026  1.00  0.00     0.007 A 
HETATM   28  C   UNL     1      44.748 -14.222   6.138  1.00  0.00     0.003 A 
HETATM   29  C   UNL     1      43.664 -13.866   5.339  1.00  0.00     0.030 A 
ENDBRANCH   1  23
BRANCH   5  30
HETATM   30  C   UNL     1      41.827 -15.650   2.447  1.00  0.00     0.040 A 
HETATM   31  C   UNL     1      42.390 -16.927   2.766  1.00  0.00     0.006 A 
HETATM   32  C   UNL     1      43.043 -17.386   1.620  1.00  0.00     0.043 A 
HETATM   33  C   UNL     1      42.431 -17.733   3.924  1.00  0.00     0.015 A 
HETATM   34  C   UNL     1      43.732 -18.604   1.574  1.00  0.00     0.030 A 
HETATM   35  N   UNL     1      42.857 -16.440   0.639  1.00  0.00    -0.364 N 
HETATM   36  C   UNL     1      43.758 -19.380   2.737  1.00  0.00     0.002 A 
HETATM   37  C   UNL     1      43.117 -18.952   3.896  1.00  0.00     0.001 A 
HETATM   38  H   UNL     1      43.207 -16.520  -0.305  1.00  0.00     0.165 HD
HETATM   39  C   UNL     1      42.117 -15.393   1.123  1.00  0.00     0.104 A 
ENDBRANCH   5  30
TORSDOF 7
ENDMDL
MODEL 3
REMARK VINA RESULT:      -9.0      3.560      7.655
REMARK  7 active torsions:
REMARK  status: ('A' for Active; 'I' for Inactive)
REMARK    1  A    between atoms: C_4  and  N_5 
REMARK    2  A    between atoms: C_6  and  S_7 
REMARK    3  A    between atoms: S_7  and  C_8 
REMARK    4  A    between atoms: C_8  and  C_9 
REMARK       I    between atoms: C_9  and  N_10 
REMARK    5  A    between atoms: N_10  and  C_11 
REMARK    6  A    between atoms: C_14  and  C_15 
REMARK       I    between atoms: C_15  and  N_16 
REMARK    7  A    between atoms: C_23  and  C_24 
ROOT
HETATM    1  N   UNL     1      41.693 -13.086   4.942  1.00  0.00    -0.271 N 
HETATM    2  C   UNL     1      41.749 -12.826   3.580  1.00  0.00     0.197 A 
HETATM    3  N   UNL     1      41.050 -11.754   3.291  1.00  0.00    -0.122 NA
HETATM    4  N   UNL     1      40.505 -11.287   4.453  1.00  0.00    -0.128 NA
HETATM    5  C   UNL     1      40.824 -12.114   5.432  1.00  0.00     0.171 A 
ENDROOT
BRANCH   2   6
HETATM    6  S   UNL     1      42.757 -13.651   2.431  1.00  0.00    -0.080 SA
BRANCH   6   7
HETATM    7  C   UNL     1      41.547 -14.790   1.685  1.00  0.00     0.185 C 
BRANCH   7   8
HETATM    8  C   UNL     1      41.675 -16.182   2.288  1.00  0.00     0.231 C 
HETATM    9  N   UNL     1      42.948 -16.719   2.172  1.00  0.00    -0.327 N 
HETATM   10  H   UNL     1      43.611 -16.168   1.638  1.00  0.00     0.169 HD
HETATM   11  O   UNL     1      40.724 -16.704   2.864  1.00  0.00    -0.272 OA
BRANCH   9  12
HETATM   12  C   UNL     1      43.404 -17.972   2.628  1.00  0.00     0.034 A 
HETATM   13  C   UNL     1      43.958 -18.192   3.890  1.00  0.00     0.030 A 
HETATM   14  C   UNL     1      44.377 -19.473   4.275  1.00  0.00     0.019 A 
HETATM   15  C   UNL     1      44.254 -20.551   3.393  1.00  0.00     0.032 A 
HETATM   16  C   UNL     1      43.692 -20.336   2.130  1.00  0.00     0.019 A 
HETATM   17  C   UNL     1      43.275 -19.055   1.750  1.00  0.00     0.030 A 
BRANCH  15  18
HETATM   18  C   UNL     1      44.673 -21.933   3.750  1.00  0.00     0.249 C 
HETATM   19  N   UNL     1      45.073 -22.168   5.035  1.00  0.00    -0.366 N 
HETATM   20  H   UNL     1      45.279 -21.433   5.696  1.00  0.00     0.159 HD
HETATM   21  H   UNL     1      45.438 -23.092   5.231  1.00  0.00     0.159 HD
HETATM   22  O   UNL     1      44.692 -22.832   2.918  1.00  0.00    -0.268 OA
ENDBRANCH  15  18
ENDBRANCH   9  12
ENDBRANCH   7   8
ENDBRANCH   6   7
ENDBRANCH   2   6
BRANCH   1  23
HETATM   23  C   UNL     1      42.453 -14.030   5.685  1.00  0.00     0.044 A 
HETATM   24  C   UNL     1      41.933 -15.298   5.975  1.00  0.00     0.037 A 
HETATM   25  C   UNL     1      42.695 -16.225   6.699  1.00  0.00    -0.060 A 
HETATM   26  C   UNL     1      42.161 -17.598   6.988  1.00  0.00     0.048 C 
HETATM   27  C   UNL     1      43.989 -15.879   7.108  1.00  0.00     0.007 A 
HETATM   28  C   UNL     1      44.509 -14.618   6.819  1.00  0.00     0.003 A 
HETATM   29  C   UNL     1      43.746 -13.692   6.109  1.00  0.00     0.030 A 
ENDBRANCH   1  23
BRANCH   5  30
HETATM   30  C   UNL     1      40.204 -11.996   6.793  1.00  0.00     0.040 A 
HETATM   31  C   UNL     1      40.479 -10.981   7.764  1.00  0.00     0.006 A 
HETATM   32  C   UNL     1      39.670 -11.242   8.872  1.00  0.00     0.043 A 
HETATM   33  C   UNL     1      41.353  -9.875   7.824  1.00  0.00     0.015 A 
HETATM   34  C   UNL     1      39.691 -10.457  10.031  1.00  0.00     0.030 A 
HETATM   35  N   UNL     1      38.915 -12.352   8.572  1.00  0.00    -0.364 N 
HETATM   36  C   UNL     1      40.569  -9.370  10.062  1.00  0.00     0.002 A 
HETATM   37  C   UNL     1      41.388  -9.081   8.975  1.00  0.00     0.001 A 
HETATM   38  H   UNL     1      38.225 -12.758   9.189  1.00  0.00     0.165 HD
HETATM   39  C   UNL     1      39.222 -12.810   7.317  1.00  0.00     0.104 A 
ENDBRANCH   5  30
TORSDOF 7
ENDMDL
MODEL 4
REMARK VINA RESULT:      -8.8      2.552      7.908
REMARK  7 active torsions:
REMARK  status: ('A' for Active; 'I' for Inactive)
REMARK    1  A    between atoms: C_4  and  N_5 
REMARK    2  A    between atoms: C_6  and  S_7 
REMARK    3  A    between atoms: S_7  and  C_8 
REMARK    4  A    between atoms: C_8  and  C_9 
REMARK       I    between atoms: C_9  and  N_10 
REMARK    5  A    between atoms: N_10  and  C_11 
REMARK    6  A    between atoms: C_14  and  C_15 
REMARK       I    between atoms: C_15  and  N_16 
REMARK    7  A    between atoms: C_23  and  C_24 
ROOT
HETATM    1  N   UNL     1      41.096 -13.075   2.328  1.00  0.00    -0.271 N 
HETATM    2  C   UNL     1      40.791 -12.367   3.483  1.00  0.00     0.197 A 
HETATM    3  N   UNL     1      40.587 -11.102   3.202  1.00  0.00    -0.122 NA
HETATM    4  N   UNL     1      40.763 -10.939   1.858  1.00  0.00    -0.128 NA
HETATM    5  C   UNL     1      41.137 -12.095   1.338  1.00  0.00     0.171 A 
ENDROOT
BRANCH   2   6
HETATM    6  S   UNL     1      40.505 -13.060   5.050  1.00  0.00    -0.080 SA
BRANCH   6   7
HETATM    7  C   UNL     1      42.138 -12.823   5.821  1.00  0.00     0.185 C 
BRANCH   7   8
HETATM    8  C   UNL     1      43.050 -14.005   5.527  1.00  0.00     0.231 C 
HETATM    9  N   UNL     1      42.543 -15.217   5.971  1.00  0.00    -0.327 N 
HETATM   10  H   UNL     1      41.681 -15.165   6.502  1.00  0.00     0.169 HD
HETATM   11  O   UNL     1      44.094 -13.848   4.898  1.00  0.00    -0.272 OA
BRANCH   9  12
HETATM   12  C   UNL     1      43.126 -16.495   5.851  1.00  0.00     0.034 A 
HETATM   13  C   UNL     1      44.371 -16.840   6.381  1.00  0.00     0.030 A 
HETATM   14  C   UNL     1      44.877 -18.139   6.231  1.00  0.00     0.019 A 
HETATM   15  C   UNL     1      44.144 -19.108   5.539  1.00  0.00     0.032 A 
HETATM   16  C   UNL     1      42.892 -18.767   5.015  1.00  0.00     0.019 A 
HETATM   17  C   UNL     1      42.390 -17.469   5.167  1.00  0.00     0.030 A 
BRANCH  15  18
HETATM   18  C   UNL     1      44.627 -20.502   5.357  1.00  0.00     0.249 C 
HETATM   19  N   UNL     1      44.229 -21.441   6.267  1.00  0.00    -0.366 N 
HETATM   20  H   UNL     1      43.789 -21.212   7.146  1.00  0.00     0.159 HD
HETATM   21  H   UNL     1      44.641 -22.361   6.173  1.00  0.00     0.159 HD
HETATM   22  O   UNL     1      45.383 -20.804   4.441  1.00  0.00    -0.268 OA
ENDBRANCH  15  18
ENDBRANCH   9  12
ENDBRANCH   7   8
ENDBRANCH   6   7
ENDBRANCH   2   6
BRANCH   1  23
HETATM   23  C   UNL     1      41.201 -14.482   2.166  1.00  0.00     0.044 A 
HETATM   24  C   UNL     1      42.449 -15.090   1.982  1.00  0.00     0.037 A 
HETATM   25  C   UNL     1      42.543 -16.482   1.833  1.00  0.00    -0.060 A 
HETATM   26  C   UNL     1      43.878 -17.146   1.669  1.00  0.00     0.048 C 
HETATM   27  C   UNL     1      41.379 -17.257   1.894  1.00  0.00     0.007 A 
HETATM   28  C   UNL     1      40.135 -16.653   2.079  1.00  0.00     0.003 A 
HETATM   29  C   UNL     1      40.042 -15.269   2.214  1.00  0.00     0.030 A 
ENDBRANCH   1  23
BRANCH   5  30
HETATM   30  C   UNL     1      41.614 -12.199  -0.080  1.00  0.00     0.040 A 
HETATM   31  C   UNL     1      41.039 -13.010  -1.110  1.00  0.00     0.006 A 
HETATM   32  C   UNL     1      41.782 -12.788  -2.272  1.00  0.00     0.043 A 
HETATM   33  C   UNL     1      39.971 -13.931  -1.169  1.00  0.00     0.015 A 
HETATM   34  C   UNL     1      41.512 -13.437  -3.482  1.00  0.00     0.030 A 
HETATM   35  N   UNL     1      42.748 -11.859  -1.964  1.00  0.00    -0.364 N 
HETATM   36  C   UNL     1      40.450 -14.346  -3.509  1.00  0.00     0.002 A 
HETATM   37  C   UNL     1      39.689 -14.590  -2.370  1.00  0.00     0.001 A 
HETATM   38  H   UNL     1      43.421 -11.496  -2.624  1.00  0.00     0.165 HD
HETATM   39  C   UNL     1      42.651 -11.490  -0.648  1.00  0.00     0.104 A 
ENDBRANCH   5  30
TORSDOF 7
ENDMDL
MODEL 5
REMARK VINA RESULT:      -8.6      2.802      4.730
REMARK  7 active torsions:
REMARK  status: ('A' for Active; 'I' for Inactive)
REMARK    1  A    between atoms: C_4  and  N_5 
REMARK    2  A    between atoms: C_6  and  S_7 
REMARK    3  A    between atoms: S_7  and  C_8 
REMARK    4  A    between atoms: C_8  and  C_9 
REMARK       I    between atoms: C_9  and  N_10 
REMARK    5  A    between atoms: N_10  and  C_11 
REMARK    6  A    between atoms: C_14  and  C_15 
REMARK       I    between atoms: C_15  and  N_16 
REMARK    7  A    between atoms: C_23  and  C_24 
ROOT
HETATM    1  N   UNL     1      42.328 -15.863   2.092  1.00  0.00    -0.271 N 
HETATM    2  C   UNL     1      41.877 -15.548   0.817  1.00  0.00     0.197 A 
HETATM    3  N   UNL     1      41.817 -16.627   0.075  1.00  0.00    -0.122 NA
HETATM    4  N   UNL     1      42.238 -17.680   0.835  1.00  0.00    -0.128 NA
HETATM    5  C   UNL     1      42.613 -17.225   2.017  1.00  0.00     0.171 A 
ENDROOT
BRANCH   2   6
HETATM    6  S   UNL     1      41.272 -14.000   0.310  1.00  0.00    -0.080 SA
BRANCH   6   7
HETATM    7  C   UNL     1      42.062 -13.854  -1.324  1.00  0.00     0.185 C 
BRANCH   7   8
HETATM    8  C   UNL     1      41.031 -13.997  -2.436  1.00  0.00     0.231 C 
HETATM    9  N   UNL     1      39.746 -13.656  -2.044  1.00  0.00    -0.327 N 
HETATM   10  H   UNL     1      39.630 -13.436  -1.061  1.00  0.00     0.169 HD
HETATM   11  O   UNL     1      41.375 -14.326  -3.568  1.00  0.00    -0.272 OA
BRANCH   9  12
HETATM   12  C   UNL     1      38.572 -13.668  -2.823  1.00  0.00     0.034 A 
HETATM   13  C   UNL     1      37.897 -12.519  -3.238  1.00  0.00     0.030 A 
HETATM   14  C   UNL     1      36.739 -12.612  -4.024  1.00  0.00     0.019 A 
HETATM   15  C   UNL     1      36.239 -13.863  -4.398  1.00  0.00     0.032 A 
HETATM   16  C   UNL     1      36.919 -15.017  -3.991  1.00  0.00     0.019 A 
HETATM   17  C   UNL     1      38.073 -14.918  -3.206  1.00  0.00     0.030 A 
BRANCH  15  18
HETATM   18  C   UNL     1      35.022 -14.023  -5.238  1.00  0.00     0.249 C 
HETATM   19  N   UNL     1      33.838 -13.551  -4.744  1.00  0.00    -0.366 N 
HETATM   20  H   UNL     1      33.707 -13.277  -3.781  1.00  0.00     0.159 HD
HETATM   21  H   UNL     1      33.011 -13.751  -5.292  1.00  0.00     0.159 HD
HETATM   22  O   UNL     1      35.063 -14.586  -6.326  1.00  0.00    -0.268 OA
ENDBRANCH  15  18
ENDBRANCH   9  12
ENDBRANCH   7   8
ENDBRANCH   6   7
ENDBRANCH   2   6
BRANCH   1  23
HETATM   23  C   UNL     1      42.357 -15.028   3.241  1.00  0.00     0.044 A 
HETATM   24  C   UNL     1      41.223 -14.885   4.051  1.00  0.00     0.037 A 
HETATM   25  C   UNL     1      41.266 -14.067   5.189  1.00  0.00    -0.060 A 
HETATM   26  C   UNL     1      40.067 -13.933   6.081  1.00  0.00     0.048 C 
HETATM   27  C   UNL     1      42.460 -13.414   5.519  1.00  0.00     0.007 A 
HETATM   28  C   UNL     1      43.590 -13.557   4.715  1.00  0.00     0.003 A 
HETATM   29  C   UNL     1      43.543 -14.361   3.578  1.00  0.00     0.030 A 
ENDBRANCH   1  23
BRANCH   5  30
HETATM   30  C   UNL     1      43.322 -18.100   3.007  1.00  0.00     0.040 A 
HETATM   31  C   UNL     1      43.666 -19.477   2.826  1.00  0.00     0.006 A 
HETATM   32  C   UNL     1      44.330 -19.891   3.983  1.00  0.00     0.043 A 
HETATM   33  C   UNL     1      43.461 -20.426   1.800  1.00  0.00     0.015 A 
HETATM   34  C   UNL     1      44.797 -21.199   4.165  1.00  0.00     0.030 A 
HETATM   35  N   UNL     1      44.410 -18.801   4.817  1.00  0.00    -0.364 N 
HETATM   36  C   UNL     1      44.577 -22.116   3.134  1.00  0.00     0.002 A 
HETATM   37  C   UNL     1      43.919 -21.737   1.967  1.00  0.00     0.001 A 
HETATM   38  H   UNL     1      44.859 -18.807   5.722  1.00  0.00     0.165 HD
HETATM   39  C   UNL     1      43.814 -17.713   4.236  1.00  0.00     0.104 A 
ENDBRANCH   5  30
TORSDOF 7
ENDMDL
MODEL 6
REMARK VINA RESULT:      -8.5      2.668      4.408
REMARK  7 active torsions:
REMARK  status: ('A' for Active; 'I' for Inactive)
REMARK    1  A    between atoms: C_4  and  N_5 
REMARK    2  A    between atoms: C_6  and  S_7 
REMARK    3  A    between atoms: S_7  and  C_8 
REMARK    4  A    between atoms: C_8  and  C_9 
REMARK       I    between atoms: C_9  and  N_10 
REMARK    5  A    between atoms: N_10  and  C_11 
REMARK    6  A    between atoms: C_14  and  C_15 
REMARK       I    between atoms: C_15  and  N_16 
REMARK    7  A    between atoms: C_23  and  C_24 
ROOT
HETATM    1  N   UNL     1      41.432 -15.031   4.109  1.00  0.00    -0.271 N 
HETATM    2  C   UNL     1      40.258 -14.291   4.083  1.00  0.00     0.197 A 
HETATM    3  N   UNL     1      39.487 -14.693   3.100  1.00  0.00    -0.122 NA
HETATM    4  N   UNL     1      40.137 -15.700   2.446  1.00  0.00    -0.128 NA
HETATM    5  C   UNL     1      41.327 -15.862   2.996  1.00  0.00     0.171 A 
ENDROOT
BRANCH   2   6
HETATM    6  S   UNL     1      39.758 -13.139   5.284  1.00  0.00    -0.080 SA
BRANCH   6   7
HETATM    7  C   UNL     1      40.613 -11.645   4.688  1.00  0.00     0.185 C 
BRANCH   7   8
HETATM    8  C   UNL     1      40.474 -11.511   3.178  1.00  0.00     0.231 C 
HETATM    9  N   UNL     1      41.637 -11.818   2.487  1.00  0.00    -0.327 N 
HETATM   10  H   UNL     1      42.450 -12.012   3.060  1.00  0.00     0.169 HD
HETATM   11  O   UNL     1      39.394 -11.215   2.673  1.00  0.00    -0.272 OA
BRANCH   9  12
HETATM   12  C   UNL     1      41.844 -11.804   1.093  1.00  0.00     0.034 A 
HETATM   13  C   UNL     1      41.798 -12.940   0.284  1.00  0.00     0.030 A 
HETATM   14  C   UNL     1      42.003 -12.842  -1.100  1.00  0.00     0.019 A 
HETATM   15  C   UNL     1      42.266 -11.602  -1.689  1.00  0.00     0.032 A 
HETATM   16  C   UNL     1      42.305 -10.460  -0.881  1.00  0.00     0.019 A 
HETATM   17  C   UNL     1      42.100 -10.562   0.500  1.00  0.00     0.030 A 
BRANCH  15  18
HETATM   18  C   UNL     1      42.483 -11.437  -3.151  1.00  0.00     0.249 C 
HETATM   19  N   UNL     1      42.424 -12.554  -3.936  1.00  0.00    -0.366 N 
HETATM   20  H   UNL     1      42.431 -13.493  -3.567  1.00  0.00     0.159 HD
HETATM   21  H   UNL     1      42.663 -12.430  -4.912  1.00  0.00     0.159 HD
HETATM   22  O   UNL     1      42.737 -10.343  -3.642  1.00  0.00    -0.268 OA
ENDBRANCH  15  18
ENDBRANCH   9  12
ENDBRANCH   7   8
ENDBRANCH   6   7
ENDBRANCH   2   6
BRANCH   1  23
HETATM   23  C   UNL     1      42.437 -15.042   5.114  1.00  0.00     0.044 A 
HETATM   24  C   UNL     1      42.407 -15.988   6.145  1.00  0.00     0.037 A 
HETATM   25  C   UNL     1      43.410 -15.998   7.125  1.00  0.00    -0.060 A 
HETATM   26  C   UNL     1      43.406 -17.028   8.216  1.00  0.00     0.048 C 
HETATM   27  C   UNL     1      44.453 -15.066   7.048  1.00  0.00     0.007 A 
HETATM   28  C   UNL     1      44.485 -14.124   6.020  1.00  0.00     0.003 A 
HETATM   29  C   UNL     1      43.481 -14.108   5.053  1.00  0.00     0.030 A 
ENDBRANCH   1  23
BRANCH   5  30
HETATM   30  C   UNL     1      42.366 -16.746   2.372  1.00  0.00     0.040 A 
HETATM   31  C   UNL     1      42.981 -17.888   2.978  1.00  0.00     0.006 A 
HETATM   32  C   UNL     1      43.868 -18.423   2.041  1.00  0.00     0.043 A 
HETATM   33  C   UNL     1      42.890 -18.512   4.241  1.00  0.00     0.015 A 
HETATM   34  C   UNL     1      44.665 -19.543   2.303  1.00  0.00     0.030 A 
HETATM   35  N   UNL     1      43.772 -17.654   0.906  1.00  0.00    -0.364 N 
HETATM   36  C   UNL     1      44.556 -20.138   3.563  1.00  0.00     0.002 A 
HETATM   37  C   UNL     1      43.681 -19.632   4.519  1.00  0.00     0.001 A 
HETATM   38  H   UNL     1      44.291 -17.823   0.055  1.00  0.00     0.165 HD
HETATM   39  C   UNL     1      42.862 -16.645   1.090  1.00  0.00     0.104 A 
ENDBRANCH   5  30
TORSDOF 7
ENDMDL
MODEL 7
REMARK VINA RESULT:      -8.5      4.922      8.401
REMARK  7 active torsions:
REMARK  status: ('A' for Active; 'I' for Inactive)
REMARK    1  A    between atoms: C_4  and  N_5 
REMARK    2  A    between atoms: C_6  and  S_7 
REMARK    3  A    between atoms: S_7  and  C_8 
REMARK    4  A    between atoms: C_8  and  C_9 
REMARK       I    between atoms: C_9  and  N_10 
REMARK    5  A    between atoms: N_10  and  C_11 
REMARK    6  A    between atoms: C_14  and  C_15 
REMARK       I    between atoms: C_15  and  N_16 
REMARK    7  A    between atoms: C_23  and  C_24 
ROOT
HETATM    1  N   UNL     1      42.045 -14.171   4.520  1.00  0.00    -0.271 N 
HETATM    2  C   UNL     1      42.220 -13.053   5.323  1.00  0.00     0.197 A 
HETATM    3  N   UNL     1      43.131 -13.285   6.237  1.00  0.00    -0.122 NA
HETATM    4  N   UNL     1      43.573 -14.566   6.070  1.00  0.00    -0.128 NA
HETATM    5  C   UNL     1      42.881 -15.127   5.094  1.00  0.00     0.171 A 
ENDROOT
BRANCH   2   6
HETATM    6  S   UNL     1      41.508 -11.491   5.054  1.00  0.00    -0.080 SA
BRANCH   6   7
HETATM    7  C   UNL     1      40.450 -11.349   6.529  1.00  0.00     0.185 C 
BRANCH   7   8
HETATM    8  C   UNL     1      41.206 -10.687   7.673  1.00  0.00     0.231 C 
HETATM    9  N   UNL     1      40.811 -11.132   8.926  1.00  0.00    -0.327 N 
HETATM   10  H   UNL     1      40.024 -11.772   8.937  1.00  0.00     0.169 HD
HETATM   11  O   UNL     1      42.112  -9.890   7.445  1.00  0.00    -0.272 OA
BRANCH   9  12
HETATM   12  C   UNL     1      41.309 -10.735  10.182  1.00  0.00     0.034 A 
HETATM   13  C   UNL     1      42.585 -10.207  10.386  1.00  0.00     0.030 A 
HETATM   14  C   UNL     1      43.004  -9.822  11.668  1.00  0.00     0.019 A 
HETATM   15  C   UNL     1      42.150  -9.970  12.765  1.00  0.00     0.032 A 
HETATM   16  C   UNL     1      40.867 -10.490  12.562  1.00  0.00     0.019 A 
HETATM   17  C   UNL     1      40.453 -10.874  11.281  1.00  0.00     0.030 A 
BRANCH  15  18
HETATM   18  C   UNL     1      42.537  -9.571  14.144  1.00  0.00     0.249 C 
HETATM   19  N   UNL     1      43.137  -8.355  14.313  1.00  0.00    -0.366 N 
HETATM   20  H   UNL     1      43.500  -7.803  13.550  1.00  0.00     0.159 HD
HETATM   21  H   UNL     1      43.471  -8.144  15.246  1.00  0.00     0.159 HD
HETATM   22  O   UNL     1      42.355 -10.314  15.101  1.00  0.00    -0.268 OA
ENDBRANCH  15  18
ENDBRANCH   9  12
ENDBRANCH   7   8
ENDBRANCH   6   7
ENDBRANCH   2   6
BRANCH   1  23
HETATM   23  C   UNL     1      41.301 -14.276   3.314  1.00  0.00     0.044 A 
HETATM   24  C   UNL     1      41.809 -13.765   2.113  1.00  0.00     0.037 A 
HETATM   25  C   UNL     1      41.072 -13.883   0.926  1.00  0.00    -0.060 A 
HETATM   26  C   UNL     1      41.621 -13.368  -0.371  1.00  0.00     0.048 C 
HETATM   27  C   UNL     1      39.834 -14.537   0.951  1.00  0.00     0.007 A 
HETATM   28  C   UNL     1      39.327 -15.047   2.146  1.00  0.00     0.003 A 
HETATM   29  C   UNL     1      40.056 -14.919   3.327  1.00  0.00     0.030 A 
ENDBRANCH   1  23
BRANCH   5  30
HETATM   30  C   UNL     1      42.980 -16.595   4.806  1.00  0.00     0.040 A 
HETATM   31  C   UNL     1      43.330 -17.191   3.552  1.00  0.00     0.006 A 
HETATM   32  C   UNL     1      43.320 -18.576   3.738  1.00  0.00     0.043 A 
HETATM   33  C   UNL     1      43.634 -16.694   2.267  1.00  0.00     0.015 A 
HETATM   34  C   UNL     1      43.596 -19.483   2.708  1.00  0.00     0.030 A 
HETATM   35  N   UNL     1      43.005 -18.807   5.056  1.00  0.00    -0.364 N 
HETATM   36  C   UNL     1      43.891 -18.961   1.445  1.00  0.00     0.002 A 
HETATM   37  C   UNL     1      43.911 -17.587   1.226  1.00  0.00     0.001 A 
HETATM   38  H   UNL     1      42.945 -19.723   5.477  1.00  0.00     0.165 HD
HETATM   39  C   UNL     1      42.808 -17.620   5.713  1.00  0.00     0.104 A 
ENDBRANCH   5  30
TORSDOF 7
ENDMDL
MODEL 8
REMARK VINA RESULT:      -8.5      4.660      9.139
REMARK  7 active torsions:
REMARK  status: ('A' for Active; 'I' for Inactive)
REMARK    1  A    between atoms: C_4  and  N_5 
REMARK    2  A    between atoms: C_6  and  S_7 
REMARK    3  A    between atoms: S_7  and  C_8 
REMARK    4  A    between atoms: C_8  and  C_9 
REMARK       I    between atoms: C_9  and  N_10 
REMARK    5  A    between atoms: N_10  and  C_11 
REMARK    6  A    between atoms: C_14  and  C_15 
REMARK       I    between atoms: C_15  and  N_16 
REMARK    7  A    between atoms: C_23  and  C_24 
ROOT
HETATM    1  N   UNL     1      42.736 -15.471   4.672  1.00  0.00    -0.271 N 
HETATM    2  C   UNL     1      43.091 -14.692   5.765  1.00  0.00     0.197 A 
HETATM    3  N   UNL     1      42.288 -13.660   5.869  1.00  0.00    -0.122 NA
HETATM    4  N   UNL     1      41.391 -13.723   4.842  1.00  0.00    -0.128 NA
HETATM    5  C   UNL     1      41.693 -14.760   4.081  1.00  0.00     0.171 A 
ENDROOT
BRANCH   2   6
HETATM    6  S   UNL     1      44.281 -15.107   6.961  1.00  0.00    -0.080 SA
BRANCH   6   7
HETATM    7  C   UNL     1      45.378 -13.657   6.855  1.00  0.00     0.185 C 
BRANCH   7   8
HETATM    8  C   UNL     1      45.348 -12.862   8.152  1.00  0.00     0.231 C 
HETATM    9  N   UNL     1      44.074 -12.458   8.523  1.00  0.00    -0.327 N 
HETATM   10  H   UNL     1      43.337 -12.663   7.857  1.00  0.00     0.169 HD
HETATM   11  O   UNL     1      46.377 -12.681   8.799  1.00  0.00    -0.272 OA
BRANCH   9  12
HETATM   12  C   UNL     1      43.698 -11.720   9.663  1.00  0.00     0.034 A 
HETATM   13  C   UNL     1      43.031 -10.495   9.617  1.00  0.00     0.030 A 
HETATM   14  C   UNL     1      42.677  -9.827  10.798  1.00  0.00     0.019 A 
HETATM   15  C   UNL     1      42.998 -10.377  12.043  1.00  0.00     0.032 A 
HETATM   16  C   UNL     1      43.659 -11.610  12.093  1.00  0.00     0.019 A 
HETATM   17  C   UNL     1      44.009 -12.273  10.911  1.00  0.00     0.030 A 
BRANCH  15  18
HETATM   18  C   UNL     1      42.641  -9.718  13.328  1.00  0.00     0.249 C 
HETATM   19  N   UNL     1      41.315  -9.598  13.638  1.00  0.00    -0.366 N 
HETATM   20  H   UNL     1      40.572  -9.755  12.974  1.00  0.00     0.159 HD
HETATM   21  H   UNL     1      41.095  -9.069  14.473  1.00  0.00     0.159 HD
HETATM   22  O   UNL     1      43.499  -9.268  14.077  1.00  0.00    -0.268 OA
ENDBRANCH  15  18
ENDBRANCH   9  12
ENDBRANCH   7   8
ENDBRANCH   6   7
ENDBRANCH   2   6
BRANCH   1  23
HETATM   23  C   UNL     1      43.223 -16.758   4.319  1.00  0.00     0.044 A 
HETATM   24  C   UNL     1      43.336 -17.768   5.283  1.00  0.00     0.037 A 
HETATM   25  C   UNL     1      43.807 -19.039   4.922  1.00  0.00    -0.060 A 
HETATM   26  C   UNL     1      43.902 -20.138   5.940  1.00  0.00     0.048 C 
HETATM   27  C   UNL     1      44.140 -19.293   3.586  1.00  0.00     0.007 A 
HETATM   28  C   UNL     1      44.026 -18.289   2.626  1.00  0.00     0.003 A 
HETATM   29  C   UNL     1      43.569 -17.023   2.987  1.00  0.00     0.030 A 
ENDBRANCH   1  23
BRANCH   5  30
HETATM   30  C   UNL     1      41.028 -14.980   2.755  1.00  0.00     0.040 A 
HETATM   31  C   UNL     1      41.240 -14.217   1.563  1.00  0.00     0.006 A 
HETATM   32  C   UNL     1      40.436 -14.776   0.567  1.00  0.00     0.043 A 
HETATM   33  C   UNL     1      42.021 -13.088   1.232  1.00  0.00     0.015 A 
HETATM   34  C   UNL     1      40.373 -14.266  -0.735  1.00  0.00     0.030 A 
HETATM   35  N   UNL     1      39.786 -15.851   1.126  1.00  0.00    -0.364 N 
HETATM   36  C   UNL     1      41.155 -13.146  -1.032  1.00  0.00     0.002 A 
HETATM   37  C   UNL     1      41.968 -12.564  -0.064  1.00  0.00     0.001 A 
HETATM   38  H   UNL     1      39.149 -16.457   0.627  1.00  0.00     0.165 HD
HETATM   39  C   UNL     1      40.142 -15.990   2.443  1.00  0.00     0.104 A 
ENDBRANCH   5  30
TORSDOF 7
ENDMDL
MODEL 9
REMARK VINA RESULT:      -8.5      5.098      8.789
REMARK  7 active torsions:
REMARK  status: ('A' for Active; 'I' for Inactive)
REMARK    1  A    between atoms: C_4  and  N_5 
REMARK    2  A    between atoms: C_6  and  S_7 
REMARK    3  A    between atoms: S_7  and  C_8 
REMARK    4  A    between atoms: C_8  and  C_9 
REMARK       I    between atoms: C_9  and  N_10 
REMARK    5  A    between atoms: N_10  and  C_11 
REMARK    6  A    between atoms: C_14  and  C_15 
REMARK       I    between atoms: C_15  and  N_16 
REMARK    7  A    between atoms: C_23  and  C_24 
ROOT
HETATM    1  N   UNL     1      42.804 -14.114   6.324  1.00  0.00    -0.271 N 
HETATM    2  C   UNL     1      41.681 -13.400   5.928  1.00  0.00     0.197 A 
HETATM    3  N   UNL     1      40.694 -14.218   5.653  1.00  0.00    -0.122 NA
HETATM    4  N   UNL     1      41.142 -15.493   5.848  1.00  0.00    -0.128 NA
HETATM    5  C   UNL     1      42.420 -15.445   6.179  1.00  0.00     0.171 A 
ENDROOT
BRANCH   2   6
HETATM    6  S   UNL     1      41.508 -11.672   5.981  1.00  0.00    -0.080 SA
BRANCH   6   7
HETATM    7  C   UNL     1      39.779 -11.527   6.533  1.00  0.00     0.185 C 
BRANCH   7   8
HETATM    8  C   UNL     1      39.709 -10.972   7.949  1.00  0.00     0.231 C 
HETATM    9  N   UNL     1      40.861 -11.199   8.688  1.00  0.00    -0.327 N 
HETATM   10  H   UNL     1      41.568 -11.769   8.236  1.00  0.00     0.169 HD
HETATM   11  O   UNL     1      38.726 -10.339   8.324  1.00  0.00    -0.272 OA
BRANCH   9  12
HETATM   12  C   UNL     1      41.127 -10.813  10.016  1.00  0.00     0.034 A 
HETATM   13  C   UNL     1      40.409 -11.271  11.123  1.00  0.00     0.030 A 
HETATM   14  C   UNL     1      40.744 -10.849  12.418  1.00  0.00     0.019 A 
HETATM   15  C   UNL     1      41.799  -9.953  12.618  1.00  0.00     0.032 A 
HETATM   16  C   UNL     1      42.526  -9.500  11.512  1.00  0.00     0.019 A 
HETATM   17  C   UNL     1      42.188  -9.923  10.221  1.00  0.00     0.030 A 
BRANCH  15  18
HETATM   18  C   UNL     1      42.204  -9.479  13.969  1.00  0.00     0.249 C 
HETATM   19  N   UNL     1      43.488  -9.040  14.134  1.00  0.00    -0.366 N 
HETATM   20  H   UNL     1      44.219  -9.194  13.455  1.00  0.00     0.159 HD
HETATM   21  H   UNL     1      43.765  -8.807  15.079  1.00  0.00     0.159 HD
HETATM   22  O   UNL     1      41.428  -9.504  14.916  1.00  0.00    -0.268 OA
ENDBRANCH  15  18
ENDBRANCH   9  12
ENDBRANCH   7   8
ENDBRANCH   6   7
ENDBRANCH   2   6
BRANCH   1  23
HETATM   23  C   UNL     1      44.011 -13.610   6.880  1.00  0.00     0.044 A 
HETATM   24  C   UNL     1      44.015 -12.988   8.135  1.00  0.00     0.037 A 
HETATM   25  C   UNL     1      45.212 -12.505   8.681  1.00  0.00    -0.060 A 
HETATM   26  C   UNL     1      45.233 -11.867  10.039  1.00  0.00     0.048 C 
HETATM   27  C   UNL     1      46.406 -12.670   7.967  1.00  0.00     0.007 A 
HETATM   28  C   UNL     1      46.404 -13.290   6.719  1.00  0.00     0.003 A 
HETATM   29  C   UNL     1      45.211 -13.760   6.172  1.00  0.00     0.030 A 
ENDBRANCH   1  23
BRANCH   5  30
HETATM   30  C   UNL     1      43.258 -16.687   6.255  1.00  0.00     0.040 A 
HETATM   31  C   UNL     1      43.547 -17.581   5.175  1.00  0.00     0.006 A 
HETATM   32  C   UNL     1      44.373 -18.586   5.682  1.00  0.00     0.043 A 
HETATM   33  C   UNL     1      43.170 -17.651   3.816  1.00  0.00     0.015 A 
HETATM   34  C   UNL     1      44.840 -19.652   4.904  1.00  0.00     0.030 A 
HETATM   35  N   UNL     1      44.599 -18.295   7.007  1.00  0.00    -0.364 N 
HETATM   36  C   UNL     1      44.448 -19.697   3.563  1.00  0.00     0.002 A 
HETATM   37  C   UNL     1      43.626 -18.711   3.025  1.00  0.00     0.001 A 
HETATM   38  H   UNL     1      45.182 -18.847   7.622  1.00  0.00     0.165 HD
HETATM   39  C   UNL     1      43.939 -17.147   7.362  1.00  0.00     0.104 A 
ENDBRANCH   5  30
TORSDOF 7
ENDMDL
MODEL 10
REMARK VINA RESULT:      -8.3      2.798      8.139
REMARK  7 active torsions:
REMARK  status: ('A' for Active; 'I' for Inactive)
REMARK    1  A    between atoms: C_4  and  N_5 
REMARK    2  A    between atoms: C_6  and  S_7 
REMARK    3  A    between atoms: S_7  and  C_8 
REMARK    4  A    between atoms: C_8  and  C_9 
REMARK       I    between atoms: C_9  and  N_10 
REMARK    5  A    between atoms: N_10  and  C_11 
REMARK    6  A    between atoms: C_14  and  C_15 
REMARK       I    between atoms: C_15  and  N_16 
REMARK    7  A    between atoms: C_23  and  C_24 
ROOT
HETATM    1  N   UNL     1      41.417 -13.806   3.022  1.00  0.00    -0.271 N 
HETATM    2  C   UNL     1      42.624 -14.403   3.361  1.00  0.00     0.197 A 
HETATM    3  N   UNL     1      43.035 -15.185   2.390  1.00  0.00    -0.122 NA
HETATM    4  N   UNL     1      42.105 -15.133   1.391  1.00  0.00    -0.128 NA
HETATM    5  C   UNL     1      41.102 -14.370   1.787  1.00  0.00     0.171 A 
ENDROOT
BRANCH   2   6
HETATM    6  S   UNL     1      43.580 -14.032   4.762  1.00  0.00    -0.080 SA
BRANCH   6   7
HETATM    7  C   UNL     1      42.664 -14.948   6.042  1.00  0.00     0.185 C 
BRANCH   7   8
HETATM    8  C   UNL     1      42.603 -16.431   5.704  1.00  0.00     0.231 C 
HETATM    9  N   UNL     1      43.742 -16.899   5.065  1.00  0.00    -0.327 N 
HETATM   10  H   UNL     1      44.433 -16.196   4.828  1.00  0.00     0.169 HD
HETATM   11  O   UNL     1      41.638 -17.111   6.044  1.00  0.00    -0.272 OA
BRANCH   9  12
HETATM   12  C   UNL     1      44.011 -18.211   4.626  1.00  0.00     0.034 A 
HETATM   13  C   UNL     1      44.709 -19.158   5.376  1.00  0.00     0.030 A 
HETATM   14  C   UNL     1      44.926 -20.450   4.875  1.00  0.00     0.019 A 
HETATM   15  C   UNL     1      44.451 -20.805   3.609  1.00  0.00     0.032 A 
HETATM   16  C   UNL     1      43.743 -19.860   2.858  1.00  0.00     0.019 A 
HETATM   17  C   UNL     1      43.529 -18.572   3.362  1.00  0.00     0.030 A 
BRANCH  15  18
HETATM   18  C   UNL     1      44.644 -22.162   3.030  1.00  0.00     0.249 C 
HETATM   19  N   UNL     1      44.868 -23.198   3.892  1.00  0.00    -0.366 N 
HETATM   20  H   UNL     1      45.095 -23.071   4.867  1.00  0.00     0.159 HD
HETATM   21  H   UNL     1      45.084 -24.094   3.471  1.00  0.00     0.159 HD
HETATM   22  O   UNL     1      44.634 -22.349   1.819  1.00  0.00    -0.268 OA
ENDBRANCH  15  18
ENDBRANCH   9  12
ENDBRANCH   7   8
ENDBRANCH   6   7
ENDBRANCH   2   6
BRANCH   1  23
HETATM   23  C   UNL     1      40.736 -12.762   3.702  1.00  0.00     0.044 A 
HETATM   24  C   UNL     1      40.967 -11.421   3.370  1.00  0.00     0.037 A 
HETATM   25  C   UNL     1      40.282 -10.398   4.040  1.00  0.00    -0.060 A 
HETATM   26  C   UNL     1      40.498  -8.960   3.670  1.00  0.00     0.048 C 
HETATM   27  C   UNL     1      39.347 -10.733   5.028  1.00  0.00     0.007 A 
HETATM   28  C   UNL     1      39.114 -12.067   5.359  1.00  0.00     0.003 A 
HETATM   29  C   UNL     1      39.805 -13.082   4.700  1.00  0.00     0.030 A 
ENDBRANCH   1  23
BRANCH   5  30
HETATM   30  C   UNL     1      39.827 -14.282   1.003  1.00  0.00     0.040 A 
HETATM   31  C   UNL     1      39.697 -13.862  -0.359  1.00  0.00     0.006 A 
HETATM   32  C   UNL     1      38.343 -13.951  -0.690  1.00  0.00     0.043 A 
HETATM   33  C   UNL     1      40.593 -13.393  -1.344  1.00  0.00     0.015 A 
HETATM   34  C   UNL     1      37.842 -13.595  -1.948  1.00  0.00     0.030 A 
HETATM   35  N   UNL     1      37.685 -14.432   0.417  1.00  0.00    -0.364 N 
HETATM   36  C   UNL     1      38.753 -13.131  -2.902  1.00  0.00     0.002 A 
HETATM   37  C   UNL     1      40.109 -13.031  -2.606  1.00  0.00     0.001 A 
HETATM   38  H   UNL     1      36.692 -14.614   0.458  1.00  0.00     0.165 HD
HETATM   39  C   UNL     1      38.571 -14.644   1.442  1.00  0.00     0.104 A 
ENDBRANCH   5  30
TORSDOF 7
ENDMDL
