MODEL 1
REMARK VINA RESULT:      -8.9      0.000      0.000
REMARK  8 active torsions:
REMARK  status: ('A' for Active; 'I' for Inactive)
REMARK    1  A    between atoms: C_8  and  C_9 
REMARK    2  A    between atoms: C_9  and  C_10 
REMARK       I    between atoms: C_10  and  N_11 
REMARK    3  A    between atoms: N_11  and  C_27 
REMARK    4  A    between atoms: N_11  and  C_12 
REMARK    5  A    between atoms: C_12  and  C_13 
REMARK    6  A    between atoms: C_12  and  C_22 
REMARK       I    between atoms: C_13  and  N_14 
REMARK    7  A    between atoms: N_14  and  C_15 
REMARK    8  A    between atoms: C_27  and  C_28 
ROOT
HETATM    1  C   UNL     1      41.627 -16.521   1.789  1.00  0.00     0.225 C 
HETATM    2  N   UNL     1      42.427 -16.511   2.934  1.00  0.00    -0.330 N 
HETATM    3  O   UNL     1      42.076 -16.859   0.690  1.00  0.00    -0.273 OA
ENDROOT
BRANCH   2   4
HETATM    4  C   UNL     1      43.809 -17.007   2.794  1.00  0.00     0.165 C 
BRANCH   4   5
HETATM    5  C   UNL     1      43.920 -18.513   2.890  1.00  0.00    -0.037 A 
HETATM    6  C   UNL     1      44.376 -19.115   4.076  1.00  0.00     0.048 A 
HETATM    7  C   UNL     1      44.505 -20.488   4.104  1.00  0.00     0.105 A 
HETATM    8  C   UNL     1      44.181 -21.270   3.022  1.00  0.00     0.105 A 
HETATM    9  O   UNL     1      44.966 -21.223   5.152  1.00  0.00    -0.323 OA
HETATM   10  O   UNL     1      44.390 -22.593   3.251  1.00  0.00    -0.323 OA
HETATM   11  C   UNL     1      43.699 -20.724   1.854  1.00  0.00     0.040 A 
HETATM   12  C   UNL     1      44.887 -22.557   4.605  1.00  0.00     0.352 A 
HETATM   13  C   UNL     1      43.566 -19.334   1.795  1.00  0.00     0.012 A 
ENDBRANCH   4   5
ENDBRANCH   2   4
BRANCH   2  14
HETATM   14  C   UNL     1      42.061 -15.738   4.151  1.00  0.00     0.219 C 
BRANCH  14  15
HETATM   15  C   UNL     1      42.379 -14.212   4.034  1.00  0.00     0.246 C 
HETATM   16  N   UNL     1      41.575 -13.324   4.711  1.00  0.00    -0.354 N 
HETATM   17  H   UNL     1      40.746 -13.709   5.151  1.00  0.00     0.162 HD
HETATM   18  O   UNL     1      43.379 -13.842   3.417  1.00  0.00    -0.271 OA
BRANCH  16  19
HETATM   19  C   UNL     1      41.615 -11.863   4.626  1.00  0.00     0.084 C 
HETATM   20  C   UNL     1      40.906 -11.251   3.406  1.00  0.00     0.025 C 
HETATM   21  C   UNL     1      39.462 -10.804   3.620  1.00  0.00     0.002 C 
HETATM   22  C   UNL     1      39.272 -10.039   4.922  1.00  0.00     0.000 C 
HETATM   23  C   UNL     1      39.795 -10.821   6.119  1.00  0.00     0.002 C 
HETATM   24  C   UNL     1      41.268 -11.177   5.954  1.00  0.00     0.025 C 
ENDBRANCH  16  19
ENDBRANCH  14  15
BRANCH  14  25
HETATM   25  C   UNL     1      42.530 -16.405   5.436  1.00  0.00     0.014 A 
HETATM   26  S   UNL     1      43.841 -15.704   6.321  1.00  0.00    -0.104 SA
HETATM   27  C   UNL     1      43.756 -16.892   7.543  1.00  0.00     0.050 A 
HETATM   28  C   UNL     1      42.723 -17.772   7.333  1.00  0.00     0.008 A 
HETATM   29  C   UNL     1      42.005 -17.476   6.139  1.00  0.00     0.017 A 
ENDBRANCH  14  25
ENDBRANCH   2  14
BRANCH   1  30
HETATM   30  C   UNL     1      40.142 -16.225   1.917  1.00  0.00     0.144 C 
BRANCH  30  31
HETATM   31  C   UNL     1      39.620 -14.935   1.358  1.00  0.00    -0.021 A 
HETATM   32  C   UNL     1      40.297 -13.824   0.745  1.00  0.00    -0.001 A 
HETATM   33  C   UNL     1      41.636 -13.525   0.417  1.00  0.00     0.014 A 
HETATM   34  C   UNL     1      39.332 -12.848   0.472  1.00  0.00     0.042 A 
HETATM   35  C   UNL     1      41.962 -12.276  -0.126  1.00  0.00     0.001 A 
HETATM   36  C   UNL     1      40.976 -11.326  -0.370  1.00  0.00     0.002 A 
HETATM   37  C   UNL     1      39.638 -11.599  -0.083  1.00  0.00     0.030 A 
HETATM   38  N   UNL     1      38.115 -13.359   0.847  1.00  0.00    -0.365 N 
HETATM   39  H   UNL     1      37.235 -12.872   0.751  1.00  0.00     0.165 HD
HETATM   40  C   UNL     1      38.274 -14.603   1.387  1.00  0.00     0.097 A 
ENDBRANCH  30  31
ENDBRANCH   1  30
TORSDOF 8
ENDMDL
MODEL 2
REMARK VINA RESULT:      -8.4      2.604      7.938
REMARK  8 active torsions:
REMARK  status: ('A' for Active; 'I' for Inactive)
REMARK    1  A    between atoms: C_8  and  C_9 
REMARK    2  A    between atoms: C_9  and  C_10 
REMARK       I    between atoms: C_10  and  N_11 
REMARK    3  A    between atoms: N_11  and  C_27 
REMARK    4  A    between atoms: N_11  and  C_12 
REMARK    5  A    between atoms: C_12  and  C_13 
REMARK    6  A    between atoms: C_12  and  C_22 
REMARK       I    between atoms: C_13  and  N_14 
REMARK    7  A    between atoms: N_14  and  C_15 
REMARK    8  A    between atoms: C_27  and  C_28 
ROOT
HETATM    1  C   UNL     1      41.314 -16.972   1.407  1.00  0.00     0.225 C 
HETATM    2  N   UNL     1      40.819 -15.720   1.779  1.00  0.00    -0.330 N 
HETATM    3  O   UNL     1      40.561 -17.890   1.069  1.00  0.00    -0.273 OA
ENDROOT
BRANCH   2   4
HETATM    4  C   UNL     1      39.364 -15.512   1.666  1.00  0.00     0.165 C 
BRANCH   4   5
HETATM    5  C   UNL     1      38.982 -14.480   0.627  1.00  0.00    -0.037 A 
HETATM    6  C   UNL     1      39.553 -14.523  -0.657  1.00  0.00     0.048 A 
HETATM    7  C   UNL     1      39.211 -13.537  -1.558  1.00  0.00     0.105 A 
HETATM    8  C   UNL     1      38.319 -12.541  -1.240  1.00  0.00     0.105 A 
HETATM    9  O   UNL     1      39.698 -13.409  -2.822  1.00  0.00    -0.323 OA
HETATM   10  O   UNL     1      38.128 -11.665  -2.261  1.00  0.00    -0.323 OA
HETATM   11  C   UNL     1      37.712 -12.481  -0.007  1.00  0.00     0.040 A 
HETATM   12  C   UNL     1      39.005 -12.222  -3.262  1.00  0.00     0.352 A 
HETATM   13  C   UNL     1      38.047 -13.464   0.929  1.00  0.00     0.012 A 
ENDBRANCH   4   5
ENDBRANCH   2   4
BRANCH   2  14
HETATM   14  C   UNL     1      41.626 -14.751   2.569  1.00  0.00     0.219 C 
BRANCH  14  15
HETATM   15  C   UNL     1      41.409 -14.878   4.112  1.00  0.00     0.246 C 
HETATM   16  N   UNL     1      42.510 -15.079   4.911  1.00  0.00    -0.354 N 
HETATM   17  H   UNL     1      43.388 -15.255   4.435  1.00  0.00     0.162 HD
HETATM   18  O   UNL     1      40.284 -14.712   4.586  1.00  0.00    -0.271 OA
BRANCH  16  19
HETATM   19  C   UNL     1      42.512 -15.358   6.348  1.00  0.00     0.084 C 
HETATM   20  C   UNL     1      41.746 -16.621   6.778  1.00  0.00     0.025 C 
HETATM   21  C   UNL     1      42.577 -17.893   6.931  1.00  0.00     0.002 C 
HETATM   22  C   UNL     1      43.885 -17.654   7.672  1.00  0.00     0.000 C 
HETATM   23  C   UNL     1      44.697 -16.532   7.037  1.00  0.00     0.002 C 
HETATM   24  C   UNL     1      43.904 -15.231   6.980  1.00  0.00     0.025 C 
ENDBRANCH  16  19
ENDBRANCH  14  15
BRANCH  14  25
HETATM   25  C   UNL     1      41.555 -13.336   2.014  1.00  0.00     0.014 A 
HETATM   26  S   UNL     1      40.878 -12.079   2.991  1.00  0.00    -0.104 SA
HETATM   27  C   UNL     1      41.164 -10.891   1.801  1.00  0.00     0.050 A 
HETATM   28  C   UNL     1      41.813 -11.406   0.707  1.00  0.00     0.008 A 
HETATM   29  C   UNL     1      42.059 -12.801   0.840  1.00  0.00     0.017 A 
ENDBRANCH  14  25
ENDBRANCH   2  14
BRANCH   1  30
HETATM   30  C   UNL     1      42.816 -17.176   1.299  1.00  0.00     0.144 C 
BRANCH  30  31
HETATM   31  C   UNL     1      43.492 -18.057   2.307  1.00  0.00    -0.021 A 
HETATM   32  C   UNL     1      43.757 -19.470   2.306  1.00  0.00    -0.001 A 
HETATM   33  C   UNL     1      43.528 -20.531   1.404  1.00  0.00     0.014 A 
HETATM   34  C   UNL     1      44.352 -19.783   3.533  1.00  0.00     0.042 A 
HETATM   35  C   UNL     1      43.861 -21.843   1.766  1.00  0.00     0.001 A 
HETATM   36  C   UNL     1      44.438 -22.116   3.002  1.00  0.00     0.002 A 
HETATM   37  C   UNL     1      44.703 -21.087   3.906  1.00  0.00     0.030 A 
HETATM   38  N   UNL     1      44.496 -18.610   4.230  1.00  0.00    -0.365 N 
HETATM   39  H   UNL     1      44.911 -18.537   5.148  1.00  0.00     0.165 HD
HETATM   40  C   UNL     1      43.978 -17.571   3.511  1.00  0.00     0.097 A 
ENDBRANCH  30  31
ENDBRANCH   1  30
TORSDOF 8
ENDMDL
MODEL 3
REMARK VINA RESULT:      -8.3      2.657      7.409
REMARK  8 active torsions:
REMARK  status: ('A' for Active; 'I' for Inactive)
REMARK    1  A    between atoms: C_8  and  C_9 
REMARK    2  A    between atoms: C_9  and  C_10 
REMARK       I    between atoms: C_10  and  N_11 
REMARK    3  A    between atoms: N_11  and  C_27 
REMARK    4  A    between atoms: N_11  and  C_12 
REMARK    5  A    between atoms: C_12  and  C_13 
REMARK    6  A    between atoms: C_12  and  C_22 
REMARK       I    between atoms: C_13  and  N_14 
REMARK    7  A    between atoms: N_14  and  C_15 
REMARK    8  A    between atoms: C_27  and  C_28 
ROOT
HETATM    1  C   UNL     1      41.876 -16.448   3.276  1.00  0.00     0.225 C 
HETATM    2  N   UNL     1      41.410 -15.136   3.388  1.00  0.00    -0.330 N 
HETATM    3  O   UNL     1      41.102 -17.398   3.126  1.00  0.00    -0.273 OA
ENDROOT
BRANCH   2   4
HETATM    4  C   UNL     1      39.960 -14.922   3.230  1.00  0.00     0.165 C 
BRANCH   4   5
HETATM    5  C   UNL     1      39.548 -14.608   1.808  1.00  0.00    -0.037 A 
HETATM    6  C   UNL     1      40.491 -14.674   0.767  1.00  0.00     0.048 A 
HETATM    7  C   UNL     1      40.084 -14.337  -0.506  1.00  0.00     0.105 A 
HETATM    8  C   UNL     1      38.790 -13.963  -0.779  1.00  0.00     0.105 A 
HETATM    9  O   UNL     1      40.873 -14.310  -1.614  1.00  0.00    -0.323 OA
HETATM   10  O   UNL     1      38.598 -13.660  -2.090  1.00  0.00    -0.323 OA
HETATM   11  C   UNL     1      37.828 -13.917   0.204  1.00  0.00     0.040 A 
HETATM   12  C   UNL     1      39.923 -13.883  -2.614  1.00  0.00     0.352 A 
HETATM   13  C   UNL     1      38.215 -14.248   1.506  1.00  0.00     0.012 A 
ENDBRANCH   4   5
ENDBRANCH   2   4
BRANCH   2  14
HETATM   14  C   UNL     1      42.239 -14.047   3.971  1.00  0.00     0.219 C 
BRANCH  14  15
HETATM   15  C   UNL     1      42.861 -14.417   5.357  1.00  0.00     0.246 C 
HETATM   16  N   UNL     1      44.009 -13.769   5.751  1.00  0.00    -0.354 N 
HETATM   17  H   UNL     1      44.452 -13.175   5.059  1.00  0.00     0.162 HD
HETATM   18  O   UNL     1      42.274 -15.207   6.098  1.00  0.00    -0.271 OA
BRANCH  16  19
HETATM   19  C   UNL     1      44.819 -14.062   6.935  1.00  0.00     0.084 C 
HETATM   20  C   UNL     1      46.295 -13.639   6.849  1.00  0.00     0.025 C 
HETATM   21  C   UNL     1      46.640 -12.274   7.437  1.00  0.00     0.002 C 
HETATM   22  C   UNL     1      45.984 -12.034   8.789  1.00  0.00     0.000 C 
HETATM   23  C   UNL     1      44.477 -12.251   8.732  1.00  0.00     0.002 C 
HETATM   24  C   UNL     1      44.132 -13.654   8.244  1.00  0.00     0.025 C 
ENDBRANCH  16  19
ENDBRANCH  14  15
BRANCH  14  25
HETATM   25  C   UNL     1      41.558 -12.687   3.904  1.00  0.00     0.014 A 
HETATM   26  S   UNL     1      40.882 -12.010   5.345  1.00  0.00    -0.104 SA
HETATM   27  C   UNL     1      40.383 -10.591   4.539  1.00  0.00     0.050 A 
HETATM   28  C   UNL     1      40.767 -10.587   3.221  1.00  0.00     0.008 A 
HETATM   29  C   UNL     1      41.462 -11.778   2.865  1.00  0.00     0.017 A 
ENDBRANCH  14  25
ENDBRANCH   2  14
BRANCH   1  30
HETATM   30  C   UNL     1      43.373 -16.703   3.216  1.00  0.00     0.144 C 
BRANCH  30  31
HETATM   31  C   UNL     1      43.903 -17.983   3.789  1.00  0.00    -0.021 A 
HETATM   32  C   UNL     1      44.011 -19.302   3.224  1.00  0.00    -0.001 A 
HETATM   33  C   UNL     1      43.708 -19.884   1.976  1.00  0.00     0.014 A 
HETATM   34  C   UNL     1      44.513 -20.143   4.224  1.00  0.00     0.042 A 
HETATM   35  C   UNL     1      43.879 -21.261   1.784  1.00  0.00     0.001 A 
HETATM   36  C   UNL     1      44.366 -22.067   2.808  1.00  0.00     0.002 A 
HETATM   37  C   UNL     1      44.702 -21.519   4.046  1.00  0.00     0.030 A 
HETATM   38  N   UNL     1      44.754 -19.366   5.329  1.00  0.00    -0.365 N 
HETATM   39  H   UNL     1      45.134 -19.712   6.200  1.00  0.00     0.165 HD
HETATM   40  C   UNL     1      44.385 -18.075   5.085  1.00  0.00     0.097 A 
ENDBRANCH  30  31
ENDBRANCH   1  30
TORSDOF 8
ENDMDL
MODEL 4
REMARK VINA RESULT:      -8.3      3.260      6.260
REMARK  8 active torsions:
REMARK  status: ('A' for Active; 'I' for Inactive)
REMARK    1  A    between atoms: C_8  and  C_9 
REMARK    2  A    between atoms: C_9  and  C_10 
REMARK       I    between atoms: C_10  and  N_11 
REMARK    3  A    between atoms: N_11  and  C_27 
REMARK    4  A    between atoms: N_11  and  C_12 
REMARK    5  A    between atoms: C_12  and  C_13 
REMARK    6  A    between atoms: C_12  and  C_22 
REMARK       I    between atoms: C_13  and  N_14 
REMARK    7  A    between atoms: N_14  and  C_15 
REMARK    8  A    between atoms: C_27  and  C_28 
ROOT
HETATM    1  C   UNL     1      43.912 -14.994   6.959  1.00  0.00     0.225 C 
HETATM    2  N   UNL     1      42.830 -15.412   6.180  1.00  0.00    -0.330 N 
HETATM    3  O   UNL     1      44.214 -15.572   8.008  1.00  0.00    -0.273 OA
ENDROOT
BRANCH   2   4
HETATM    4  C   UNL     1      42.118 -16.627   6.615  1.00  0.00     0.165 C 
BRANCH   4   5
HETATM    5  C   UNL     1      42.876 -17.905   6.328  1.00  0.00    -0.037 A 
HETATM    6  C   UNL     1      43.234 -18.235   5.009  1.00  0.00     0.048 A 
HETATM    7  C   UNL     1      43.885 -19.431   4.788  1.00  0.00     0.105 A 
HETATM    8  C   UNL     1      44.205 -20.283   5.817  1.00  0.00     0.105 A 
HETATM    9  O   UNL     1      44.266 -19.918   3.577  1.00  0.00    -0.323 OA
HETATM   10  O   UNL     1      44.833 -21.410   5.387  1.00  0.00    -0.323 OA
HETATM   11  C   UNL     1      43.903 -19.983   7.125  1.00  0.00     0.040 A 
HETATM   12  C   UNL     1      44.869 -21.171   3.965  1.00  0.00     0.352 A 
HETATM   13  C   UNL     1      43.237 -18.780   7.378  1.00  0.00     0.012 A 
ENDBRANCH   4   5
ENDBRANCH   2   4
BRANCH   2  14
HETATM   14  C   UNL     1      42.192 -14.525   5.170  1.00  0.00     0.219 C 
BRANCH  14  15
HETATM   15  C   UNL     1      40.981 -13.714   5.737  1.00  0.00     0.246 C 
HETATM   16  N   UNL     1      41.209 -12.435   6.191  1.00  0.00    -0.354 N 
HETATM   17  H   UNL     1      42.178 -12.140   6.243  1.00  0.00     0.162 HD
HETATM   18  O   UNL     1      39.848 -14.193   5.687  1.00  0.00    -0.271 OA
BRANCH  16  19
HETATM   19  C   UNL     1      40.252 -11.566   6.877  1.00  0.00     0.084 C 
HETATM   20  C   UNL     1      40.799 -10.820   8.107  1.00  0.00     0.025 C 
HETATM   21  C   UNL     1      41.310  -9.403   7.863  1.00  0.00     0.002 C 
HETATM   22  C   UNL     1      40.377  -8.585   6.982  1.00  0.00     0.000 C 
HETATM   23  C   UNL     1      40.068  -9.298   5.672  1.00  0.00     0.002 C 
HETATM   24  C   UNL     1      39.457 -10.674   5.914  1.00  0.00     0.025 C 
ENDBRANCH  16  19
ENDBRANCH  14  15
BRANCH  14  25
HETATM   25  C   UNL     1      41.942 -15.229   3.843  1.00  0.00     0.014 A 
HETATM   26  S   UNL     1      43.238 -15.368   2.706  1.00  0.00    -0.104 SA
HETATM   27  C   UNL     1      42.275 -16.233   1.595  1.00  0.00     0.050 A 
HETATM   28  C   UNL     1      41.015 -16.474   2.085  1.00  0.00     0.008 A 
HETATM   29  C   UNL     1      40.834 -15.920   3.384  1.00  0.00     0.017 A 
ENDBRANCH  14  25
ENDBRANCH   2  14
BRANCH   1  30
HETATM   30  C   UNL     1      44.811 -13.881   6.448  1.00  0.00     0.144 C 
BRANCH  30  31
HETATM   31  C   UNL     1      45.478 -12.985   7.448  1.00  0.00    -0.021 A 
HETATM   32  C   UNL     1      44.974 -12.353   8.638  1.00  0.00    -0.001 A 
HETATM   33  C   UNL     1      43.739 -12.340   9.319  1.00  0.00     0.014 A 
HETATM   34  C   UNL     1      46.006 -11.563   9.158  1.00  0.00     0.042 A 
HETATM   35  C   UNL     1      43.570 -11.530  10.450  1.00  0.00     0.001 A 
HETATM   36  C   UNL     1      44.616 -10.747  10.928  1.00  0.00     0.002 A 
HETATM   37  C   UNL     1      45.859 -10.757  10.294  1.00  0.00     0.030 A 
HETATM   38  N   UNL     1      47.105 -11.747   8.358  1.00  0.00    -0.365 N 
HETATM   39  H   UNL     1      48.002 -11.306   8.507  1.00  0.00     0.165 HD
HETATM   40  C   UNL     1      46.800 -12.588   7.327  1.00  0.00     0.097 A 
ENDBRANCH  30  31
ENDBRANCH   1  30
TORSDOF 8
ENDMDL
MODEL 5
REMARK VINA RESULT:      -8.2      2.896      7.999
REMARK  8 active torsions:
REMARK  status: ('A' for Active; 'I' for Inactive)
REMARK    1  A    between atoms: C_8  and  C_9 
REMARK    2  A    between atoms: C_9  and  C_10 
REMARK       I    between atoms: C_10  and  N_11 
REMARK    3  A    between atoms: N_11  and  C_27 
REMARK    4  A    between atoms: N_11  and  C_12 
REMARK    5  A    between atoms: C_12  and  C_13 
REMARK    6  A    between atoms: C_12  and  C_22 
REMARK       I    between atoms: C_13  and  N_14 
REMARK    7  A    between atoms: N_14  and  C_15 
REMARK    8  A    between atoms: C_27  and  C_28 
ROOT
HETATM    1  C   UNL     1      41.120 -16.441   1.987  1.00  0.00     0.225 C 
HETATM    2  N   UNL     1      40.488 -15.532   1.135  1.00  0.00    -0.330 N 
HETATM    3  O   UNL     1      40.613 -16.780   3.061  1.00  0.00    -0.273 OA
ENDROOT
BRANCH   2   4
HETATM    4  C   UNL     1      39.146 -15.063   1.528  1.00  0.00     0.165 C 
BRANCH   4   5
HETATM    5  C   UNL     1      39.168 -13.774   2.321  1.00  0.00    -0.037 A 
HETATM    6  C   UNL     1      39.762 -13.735   3.595  1.00  0.00     0.048 A 
HETATM    7  C   UNL     1      39.719 -12.551   4.300  1.00  0.00     0.105 A 
HETATM    8  C   UNL     1      39.138 -11.419   3.782  1.00  0.00     0.105 A 
HETATM    9  O   UNL     1      40.209 -12.353   5.554  1.00  0.00    -0.323 OA
HETATM   10  O   UNL     1      39.191 -10.365   4.640  1.00  0.00    -0.323 OA
HETATM   11  C   UNL     1      38.576 -11.404   2.527  1.00  0.00     0.040 A 
HETATM   12  C   UNL     1      39.873 -10.964   5.761  1.00  0.00     0.352 A 
HETATM   13  C   UNL     1      38.598 -12.593   1.792  1.00  0.00     0.012 A 
ENDBRANCH   4   5
ENDBRANCH   2   4
BRANCH   2  14
HETATM   14  C   UNL     1      41.225 -14.798   0.072  1.00  0.00     0.219 C 
BRANCH  14  15
HETATM   15  C   UNL     1      41.891 -13.478   0.580  1.00  0.00     0.246 C 
HETATM   16  N   UNL     1      41.645 -12.315  -0.113  1.00  0.00    -0.354 N 
HETATM   17  H   UNL     1      41.142 -12.408  -0.988  1.00  0.00     0.162 HD
HETATM   18  O   UNL     1      42.542 -13.486   1.625  1.00  0.00    -0.271 OA
BRANCH  16  19
HETATM   19  C   UNL     1      42.273 -11.012   0.112  1.00  0.00     0.084 C 
HETATM   20  C   UNL     1      43.291 -10.573  -0.955  1.00  0.00     0.025 C 
HETATM   21  C   UNL     1      42.754  -9.681  -2.071  1.00  0.00     0.002 C 
HETATM   22  C   UNL     1      41.853  -8.570  -1.552  1.00  0.00     0.000 C 
HETATM   23  C   UNL     1      40.726  -9.115  -0.685  1.00  0.00     0.002 C 
HETATM   24  C   UNL     1      41.264  -9.920   0.492  1.00  0.00     0.025 C 
ENDBRANCH  16  19
ENDBRANCH  14  15
BRANCH  14  25
HETATM   25  C   UNL     1      40.426 -14.671  -1.218  1.00  0.00     0.014 A 
HETATM   26  S   UNL     1      40.954 -15.527  -2.625  1.00  0.00    -0.104 SA
HETATM   27  C   UNL     1      39.642 -14.963  -3.558  1.00  0.00     0.050 A 
HETATM   28  C   UNL     1      38.780 -14.192  -2.819  1.00  0.00     0.008 A 
HETATM   29  C   UNL     1      39.217 -14.046  -1.472  1.00  0.00     0.017 A 
ENDBRANCH  14  25
ENDBRANCH   2  14
BRANCH   1  30
HETATM   30  C   UNL     1      42.401 -17.120   1.532  1.00  0.00     0.144 C 
BRANCH  30  31
HETATM   31  C   UNL     1      43.185 -17.912   2.536  1.00  0.00    -0.021 A 
HETATM   32  C   UNL     1      43.583 -19.294   2.551  1.00  0.00    -0.001 A 
HETATM   33  C   UNL     1      43.431 -20.390   1.676  1.00  0.00     0.014 A 
HETATM   34  C   UNL     1      44.238 -19.525   3.766  1.00  0.00     0.042 A 
HETATM   35  C   UNL     1      43.897 -21.657   2.051  1.00  0.00     0.001 A 
HETATM   36  C   UNL     1      44.531 -21.849   3.274  1.00  0.00     0.002 A 
HETATM   37  C   UNL     1      44.722 -20.781   4.151  1.00  0.00     0.030 A 
HETATM   38  N   UNL     1      44.289 -18.329   4.437  1.00  0.00    -0.365 N 
HETATM   39  H   UNL     1      44.721 -18.198   5.341  1.00  0.00     0.165 HD
HETATM   40  C   UNL     1      43.656 -17.359   3.716  1.00  0.00     0.097 A 
ENDBRANCH  30  31
ENDBRANCH   1  30
TORSDOF 8
ENDMDL
MODEL 6
REMARK VINA RESULT:      -8.2      2.966      7.224
REMARK  8 active torsions:
REMARK  status: ('A' for Active; 'I' for Inactive)
REMARK    1  A    between atoms: C_8  and  C_9 
REMARK    2  A    between atoms: C_9  and  C_10 
REMARK       I    between atoms: C_10  and  N_11 
REMARK    3  A    between atoms: N_11  and  C_27 
REMARK    4  A    between atoms: N_11  and  C_12 
REMARK    5  A    between atoms: C_12  and  C_13 
REMARK    6  A    between atoms: C_12  and  C_22 
REMARK       I    between atoms: C_13  and  N_14 
REMARK    7  A    between atoms: N_14  and  C_15 
REMARK    8  A    between atoms: C_27  and  C_28 
ROOT
HETATM    1  C   UNL     1      40.917 -16.247   1.150  1.00  0.00     0.225 C 
HETATM    2  N   UNL     1      41.294 -14.922   0.921  1.00  0.00    -0.330 N 
HETATM    3  O   UNL     1      40.937 -17.090   0.247  1.00  0.00    -0.273 OA
ENDROOT
BRANCH   2   4
HETATM    4  C   UNL     1      41.801 -14.589  -0.423  1.00  0.00     0.165 C 
BRANCH   4   5
HETATM    5  C   UNL     1      40.802 -14.858  -1.527  1.00  0.00    -0.037 A 
HETATM    6  C   UNL     1      39.606 -14.121  -1.595  1.00  0.00     0.048 A 
HETATM    7  C   UNL     1      38.705 -14.429  -2.592  1.00  0.00     0.105 A 
HETATM    8  C   UNL     1      38.956 -15.411  -3.520  1.00  0.00     0.105 A 
HETATM    9  O   UNL     1      37.490 -13.844  -2.775  1.00  0.00    -0.323 OA
HETATM   10  O   UNL     1      37.938 -15.565  -4.407  1.00  0.00    -0.323 OA
HETATM   11  C   UNL     1      40.128 -16.132  -3.510  1.00  0.00     0.040 A 
HETATM   12  C   UNL     1      37.012 -14.567  -3.930  1.00  0.00     0.352 A 
HETATM   13  C   UNL     1      41.057 -15.845  -2.506  1.00  0.00     0.012 A 
ENDBRANCH   4   5
ENDBRANCH   2   4
BRANCH   2  14
HETATM   14  C   UNL     1      40.900 -13.817   1.836  1.00  0.00     0.219 C 
BRANCH  14  15
HETATM   15  C   UNL     1      40.570 -12.484   1.089  1.00  0.00     0.246 C 
HETATM   16  N   UNL     1      41.589 -11.837   0.429  1.00  0.00    -0.354 N 
HETATM   17  H   UNL     1      42.523 -12.203   0.570  1.00  0.00     0.162 HD
HETATM   18  O   UNL     1      39.405 -12.088   1.032  1.00  0.00    -0.271 OA
BRANCH  16  19
HETATM   19  C   UNL     1      41.523 -10.521  -0.209  1.00  0.00     0.084 C 
HETATM   20  C   UNL     1      42.818  -9.692  -0.152  1.00  0.00     0.025 C 
HETATM   21  C   UNL     1      43.739  -9.797  -1.365  1.00  0.00     0.002 C 
HETATM   22  C   UNL     1      42.984  -9.715  -2.684  1.00  0.00     0.000 C 
HETATM   23  C   UNL     1      41.855 -10.734  -2.753  1.00  0.00     0.002 C 
HETATM   24  C   UNL     1      40.874 -10.563  -1.599  1.00  0.00     0.025 C 
ENDBRANCH  16  19
ENDBRANCH  14  15
BRANCH  14  25
HETATM   25  C   UNL     1      41.832 -13.681   3.031  1.00  0.00     0.014 A 
HETATM   26  S   UNL     1      41.171 -13.262   4.574  1.00  0.00    -0.104 SA
HETATM   27  C   UNL     1      42.696 -13.338   5.336  1.00  0.00     0.050 A 
HETATM   28  C   UNL     1      43.685 -13.731   4.469  1.00  0.00     0.008 A 
HETATM   29  C   UNL     1      43.184 -13.952   3.155  1.00  0.00     0.017 A 
ENDBRANCH  14  25
ENDBRANCH   2  14
BRANCH   1  30
HETATM   30  C   UNL     1      40.592 -16.695   2.565  1.00  0.00     0.144 C 
BRANCH  30  31
HETATM   31  C   UNL     1      41.676 -17.335   3.380  1.00  0.00    -0.021 A 
HETATM   32  C   UNL     1      42.604 -18.388   3.063  1.00  0.00    -0.001 A 
HETATM   33  C   UNL     1      42.872 -19.177   1.925  1.00  0.00     0.014 A 
HETATM   34  C   UNL     1      43.351 -18.645   4.217  1.00  0.00     0.042 A 
HETATM   35  C   UNL     1      43.831 -20.196   1.989  1.00  0.00     0.001 A 
HETATM   36  C   UNL     1      44.544 -20.430   3.160  1.00  0.00     0.002 A 
HETATM   37  C   UNL     1      44.323 -19.650   4.295  1.00  0.00     0.030 A 
HETATM   38  N   UNL     1      42.941 -17.754   5.178  1.00  0.00    -0.365 N 
HETATM   39  H   UNL     1      43.323 -17.704   6.112  1.00  0.00     0.165 HD
HETATM   40  C   UNL     1      41.934 -16.972   4.692  1.00  0.00     0.097 A 
ENDBRANCH  30  31
ENDBRANCH   1  30
TORSDOF 8
ENDMDL
MODEL 7
REMARK VINA RESULT:      -8.1      2.862      7.710
REMARK  8 active torsions:
REMARK  status: ('A' for Active; 'I' for Inactive)
REMARK    1  A    between atoms: C_8  and  C_9 
REMARK    2  A    between atoms: C_9  and  C_10 
REMARK       I    between atoms: C_10  and  N_11 
REMARK    3  A    between atoms: N_11  and  C_27 
REMARK    4  A    between atoms: N_11  and  C_12 
REMARK    5  A    between atoms: C_12  and  C_13 
REMARK    6  A    between atoms: C_12  and  C_22 
REMARK       I    between atoms: C_13  and  N_14 
REMARK    7  A    between atoms: N_14  and  C_15 
REMARK    8  A    between atoms: C_27  and  C_28 
ROOT
HETATM    1  C   UNL     1      40.145 -15.475   1.569  1.00  0.00     0.225 C 
HETATM    2  N   UNL     1      40.421 -14.155   1.205  1.00  0.00    -0.330 N 
HETATM    3  O   UNL     1      39.015 -15.826   1.920  1.00  0.00    -0.273 OA
ENDROOT
BRANCH   2   4
HETATM    4  C   UNL     1      39.285 -13.216   1.172  1.00  0.00     0.165 C 
BRANCH   4   5
HETATM    5  C   UNL     1      38.682 -13.047  -0.206  1.00  0.00    -0.037 A 
HETATM    6  C   UNL     1      38.294 -14.175  -0.951  1.00  0.00     0.048 A 
HETATM    7  C   UNL     1      37.791 -13.977  -2.220  1.00  0.00     0.105 A 
HETATM    8  C   UNL     1      37.643 -12.720  -2.754  1.00  0.00     0.105 A 
HETATM    9  O   UNL     1      37.407 -14.955  -3.085  1.00  0.00    -0.323 OA
HETATM   10  O   UNL     1      37.142 -12.745  -4.018  1.00  0.00    -0.323 OA
HETATM   11  C   UNL     1      37.978 -11.590  -2.046  1.00  0.00     0.040 A 
HETATM   12  C   UNL     1      36.994 -14.165  -4.221  1.00  0.00     0.352 A 
HETATM   13  C   UNL     1      38.497 -11.760  -0.760  1.00  0.00     0.012 A 
ENDBRANCH   4   5
ENDBRANCH   2   4
BRANCH   2  14
HETATM   14  C   UNL     1      41.806 -13.611   1.182  1.00  0.00     0.219 C 
BRANCH  14  15
HETATM   15  C   UNL     1      42.308 -13.140   2.585  1.00  0.00     0.246 C 
HETATM   16  N   UNL     1      41.418 -12.498   3.415  1.00  0.00    -0.354 N 
HETATM   17  H   UNL     1      40.517 -12.261   3.014  1.00  0.00     0.162 HD
HETATM   18  O   UNL     1      43.449 -13.423   2.952  1.00  0.00    -0.271 OA
BRANCH  16  19
HETATM   19  C   UNL     1      41.718 -11.862   4.699  1.00  0.00     0.084 C 
HETATM   20  C   UNL     1      41.278 -10.394   4.830  1.00  0.00     0.025 C 
HETATM   21  C   UNL     1      39.917 -10.154   5.477  1.00  0.00     0.002 C 
HETATM   22  C   UNL     1      39.702 -10.999   6.724  1.00  0.00     0.000 C 
HETATM   23  C   UNL     1      39.934 -12.479   6.450  1.00  0.00     0.002 C 
HETATM   24  C   UNL     1      41.334 -12.734   5.902  1.00  0.00     0.025 C 
ENDBRANCH  16  19
ENDBRANCH  14  15
BRANCH  14  25
HETATM   25  C   UNL     1      42.033 -12.628   0.043  1.00  0.00     0.014 A 
HETATM   26  S   UNL     1      41.998 -13.203  -1.588  1.00  0.00    -0.104 SA
HETATM   27  C   UNL     1      42.269 -11.644  -2.227  1.00  0.00     0.050 A 
HETATM   28  C   UNL     1      42.326 -10.688  -1.243  1.00  0.00     0.008 A 
HETATM   29  C   UNL     1      42.165 -11.250   0.055  1.00  0.00     0.017 A 
ENDBRANCH  14  25
ENDBRANCH   2  14
BRANCH   1  30
HETATM   30  C   UNL     1      41.228 -16.531   1.415  1.00  0.00     0.144 C 
BRANCH  30  31
HETATM   31  C   UNL     1      41.913 -17.036   2.650  1.00  0.00    -0.021 A 
HETATM   32  C   UNL     1      42.825 -18.131   2.847  1.00  0.00    -0.001 A 
HETATM   33  C   UNL     1      43.428 -19.095   2.012  1.00  0.00     0.014 A 
HETATM   34  C   UNL     1      43.100 -18.201   4.217  1.00  0.00     0.042 A 
HETATM   35  C   UNL     1      44.238 -20.095   2.567  1.00  0.00     0.001 A 
HETATM   36  C   UNL     1      44.475 -20.140   3.936  1.00  0.00     0.002 A 
HETATM   37  C   UNL     1      43.917 -19.186   4.787  1.00  0.00     0.030 A 
HETATM   38  N   UNL     1      42.434 -17.165   4.822  1.00  0.00    -0.365 N 
HETATM   39  H   UNL     1      42.464 -16.966   5.812  1.00  0.00     0.165 HD
HETATM   40  C   UNL     1      41.714 -16.467   3.897  1.00  0.00     0.097 A 
ENDBRANCH  30  31
ENDBRANCH   1  30
TORSDOF 8
ENDMDL
MODEL 8
REMARK VINA RESULT:      -8.1      2.815      7.989
REMARK  8 active torsions:
REMARK  status: ('A' for Active; 'I' for Inactive)
REMARK    1  A    between atoms: C_8  and  C_9 
REMARK    2  A    between atoms: C_9  and  C_10 
REMARK       I    between atoms: C_10  and  N_11 
REMARK    3  A    between atoms: N_11  and  C_27 
REMARK    4  A    between atoms: N_11  and  C_12 
REMARK    5  A    between atoms: C_12  and  C_13 
REMARK    6  A    between atoms: C_12  and  C_22 
REMARK       I    between atoms: C_13  and  N_14 
REMARK    7  A    between atoms: N_14  and  C_15 
REMARK    8  A    between atoms: C_27  and  C_28 
ROOT
HETATM    1  C   UNL     1      40.623 -15.825   1.805  1.00  0.00     0.225 C 
HETATM    2  N   UNL     1      39.921 -14.629   1.640  1.00  0.00    -0.330 N 
HETATM    3  O   UNL     1      40.048 -16.918   1.806  1.00  0.00    -0.273 OA
ENDROOT
BRANCH   2   4
HETATM    4  C   UNL     1      38.474 -14.730   1.376  1.00  0.00     0.165 C 
BRANCH   4   5
HETATM    5  C   UNL     1      37.981 -13.748   0.336  1.00  0.00    -0.037 A 
HETATM    6  C   UNL     1      38.372 -13.884  -1.008  1.00  0.00     0.048 A 
HETATM    7  C   UNL     1      37.936 -12.940  -1.914  1.00  0.00     0.105 A 
HETATM    8  C   UNL     1      37.120 -11.899  -1.541  1.00  0.00     0.105 A 
HETATM    9  O   UNL     1      38.251 -12.901  -3.237  1.00  0.00    -0.323 OA
HETATM   10  O   UNL     1      36.814 -11.077  -2.580  1.00  0.00    -0.323 OA
HETATM   11  C   UNL     1      36.687 -11.749  -0.244  1.00  0.00     0.040 A 
HETATM   12  C   UNL     1      37.534 -11.719  -3.652  1.00  0.00     0.352 A 
HETATM   13  C   UNL     1      37.120 -12.687   0.697  1.00  0.00     0.012 A 
ENDBRANCH   4   5
ENDBRANCH   2   4
BRANCH   2  14
HETATM   14  C   UNL     1      40.490 -13.314   2.038  1.00  0.00     0.219 C 
BRANCH  14  15
HETATM   15  C   UNL     1      41.758 -12.914   1.216  1.00  0.00     0.246 C 
HETATM   16  N   UNL     1      41.602 -12.610  -0.116  1.00  0.00    -0.354 N 
HETATM   17  H   UNL     1      40.686 -12.784  -0.515  1.00  0.00     0.162 HD
HETATM   18  O   UNL     1      42.844 -12.795   1.787  1.00  0.00    -0.271 OA
BRANCH  16  19
HETATM   19  C   UNL     1      42.667 -12.348  -1.086  1.00  0.00     0.084 C 
HETATM   20  C   UNL     1      42.520 -13.064  -2.440  1.00  0.00     0.025 C 
HETATM   21  C   UNL     1      41.850 -12.265  -3.555  1.00  0.00     0.002 C 
HETATM   22  C   UNL     1      42.358 -10.833  -3.640  1.00  0.00     0.000 C 
HETATM   23  C   UNL     1      42.253 -10.116  -2.300  1.00  0.00     0.002 C 
HETATM   24  C   UNL     1      43.012 -10.858  -1.206  1.00  0.00     0.025 C 
ENDBRANCH  16  19
ENDBRANCH  14  15
BRANCH  14  25
HETATM   25  C   UNL     1      40.615 -13.160   3.548  1.00  0.00     0.014 A 
HETATM   26  S   UNL     1      41.217 -11.674   4.197  1.00  0.00    -0.104 SA
HETATM   27  C   UNL     1      41.037 -12.212   5.806  1.00  0.00     0.050 A 
HETATM   28  C   UNL     1      40.478 -13.464   5.869  1.00  0.00     0.008 A 
HETATM   29  C   UNL     1      40.213 -13.995   4.575  1.00  0.00     0.017 A 
ENDBRANCH  14  25
ENDBRANCH   2  14
BRANCH   1  30
HETATM   30  C   UNL     1      42.142 -15.794   1.865  1.00  0.00     0.144 C 
BRANCH  30  31
HETATM   31  C   UNL     1      42.832 -16.619   2.910  1.00  0.00    -0.021 A 
HETATM   32  C   UNL     1      43.360 -17.956   2.867  1.00  0.00    -0.001 A 
HETATM   33  C   UNL     1      43.462 -18.961   1.882  1.00  0.00     0.014 A 
HETATM   34  C   UNL     1      43.834 -18.258   4.148  1.00  0.00     0.042 A 
HETATM   35  C   UNL     1      43.989 -20.216   2.213  1.00  0.00     0.001 A 
HETATM   36  C   UNL     1      44.436 -20.483   3.503  1.00  0.00     0.002 A 
HETATM   37  C   UNL     1      44.375 -19.503   4.493  1.00  0.00     0.030 A 
HETATM   38  N   UNL     1      43.657 -17.140   4.924  1.00  0.00    -0.365 N 
HETATM   39  H   UNL     1      43.923 -17.071   5.896  1.00  0.00     0.165 HD
HETATM   40  C   UNL     1      43.051 -16.156   4.198  1.00  0.00     0.097 A 
ENDBRANCH  30  31
ENDBRANCH   1  30
TORSDOF 8
ENDMDL
MODEL 9
REMARK VINA RESULT:      -8.0      3.430      6.971
REMARK  8 active torsions:
REMARK  status: ('A' for Active; 'I' for Inactive)
REMARK    1  A    between atoms: C_8  and  C_9 
REMARK    2  A    between atoms: C_9  and  C_10 
REMARK       I    between atoms: C_10  and  N_11 
REMARK    3  A    between atoms: N_11  and  C_27 
REMARK    4  A    between atoms: N_11  and  C_12 
REMARK    5  A    between atoms: C_12  and  C_13 
REMARK    6  A    between atoms: C_12  and  C_22 
REMARK       I    between atoms: C_13  and  N_14 
REMARK    7  A    between atoms: N_14  and  C_15 
REMARK    8  A    between atoms: C_27  and  C_28 
ROOT
HETATM    1  C   UNL     1      38.858 -14.138   1.844  1.00  0.00     0.225 C 
HETATM    2  N   UNL     1      39.281 -13.023   2.571  1.00  0.00    -0.330 N 
HETATM    3  O   UNL     1      38.129 -14.025   0.853  1.00  0.00    -0.273 OA
ENDROOT
BRANCH   2   4
HETATM    4  C   UNL     1      38.895 -11.697   2.054  1.00  0.00     0.165 C 
BRANCH   4   5
HETATM    5  C   UNL     1      40.034 -10.952   1.392  1.00  0.00    -0.037 A 
HETATM    6  C   UNL     1      40.798 -11.574   0.389  1.00  0.00     0.048 A 
HETATM    7  C   UNL     1      41.855 -10.875  -0.156  1.00  0.00     0.105 A 
HETATM    8  C   UNL     1      42.158  -9.595   0.240  1.00  0.00     0.105 A 
HETATM    9  O   UNL     1      42.714 -11.340  -1.103  1.00  0.00    -0.323 OA
HETATM   10  O   UNL     1      43.241  -9.090  -0.409  1.00  0.00    -0.323 OA
HETATM   11  C   UNL     1      41.416  -8.938   1.194  1.00  0.00     0.040 A 
HETATM   12  C   UNL     1      43.587 -10.201  -1.260  1.00  0.00     0.352 A 
HETATM   13  C   UNL     1      40.343  -9.626   1.768  1.00  0.00     0.012 A 
ENDBRANCH   4   5
ENDBRANCH   2   4
BRANCH   2  14
HETATM   14  C   UNL     1      39.793 -13.132   3.963  1.00  0.00     0.219 C 
BRANCH  14  15
HETATM   15  C   UNL     1      39.396 -11.917   4.865  1.00  0.00     0.246 C 
HETATM   16  N   UNL     1      40.372 -11.337   5.643  1.00  0.00    -0.354 N 
HETATM   17  H   UNL     1      41.267 -11.813   5.675  1.00  0.00     0.162 HD
HETATM   18  O   UNL     1      38.257 -11.454   4.798  1.00  0.00    -0.271 OA
BRANCH  16  19
HETATM   19  C   UNL     1      40.183 -10.290   6.648  1.00  0.00     0.084 C 
HETATM   20  C   UNL     1      39.267 -10.661   7.827  1.00  0.00     0.025 C 
HETATM   21  C   UNL     1      39.961 -11.190   9.079  1.00  0.00     0.002 C 
HETATM   22  C   UNL     1      41.190 -10.377   9.457  1.00  0.00     0.000 C 
HETATM   23  C   UNL     1      42.164 -10.252   8.293  1.00  0.00     0.002 C 
HETATM   24  C   UNL     1      41.499  -9.625   7.072  1.00  0.00     0.025 C 
ENDBRANCH  16  19
ENDBRANCH  14  15
BRANCH  14  25
HETATM   25  C   UNL     1      41.259 -13.537   4.022  1.00  0.00     0.014 A 
HETATM   26  S   UNL     1      41.773 -14.670   5.223  1.00  0.00    -0.104 SA
HETATM   27  C   UNL     1      43.387 -14.648   4.668  1.00  0.00     0.050 A 
HETATM   28  C   UNL     1      43.537 -13.852   3.559  1.00  0.00     0.008 A 
HETATM   29  C   UNL     1      42.312 -13.236   3.175  1.00  0.00     0.017 A 
ENDBRANCH  14  25
ENDBRANCH   2  14
BRANCH   1  30
HETATM   30  C   UNL     1      39.402 -15.511   2.203  1.00  0.00     0.144 C 
BRANCH  30  31
HETATM   31  C   UNL     1      40.665 -15.974   1.542  1.00  0.00    -0.021 A 
HETATM   32  C   UNL     1      41.674 -16.905   1.972  1.00  0.00    -0.001 A 
HETATM   33  C   UNL     1      41.862 -17.726   3.104  1.00  0.00     0.014 A 
HETATM   34  C   UNL     1      42.678 -16.910   0.997  1.00  0.00     0.042 A 
HETATM   35  C   UNL     1      43.036 -18.479   3.236  1.00  0.00     0.001 A 
HETATM   36  C   UNL     1      44.018 -18.446   2.252  1.00  0.00     0.002 A 
HETATM   37  C   UNL     1      43.852 -17.667   1.107  1.00  0.00     0.030 A 
HETATM   38  N   UNL     1      42.277 -16.067  -0.008  1.00  0.00    -0.365 N 
HETATM   39  H   UNL     1      42.805 -15.888  -0.851  1.00  0.00     0.165 HD
HETATM   40  C   UNL     1      41.079 -15.495   0.309  1.00  0.00     0.097 A 
ENDBRANCH  30  31
ENDBRANCH   1  30
TORSDOF 8
ENDMDL
MODEL 10
REMARK VINA RESULT:      -7.9      3.141      7.306
REMARK  8 active torsions:
REMARK  status: ('A' for Active; 'I' for Inactive)
REMARK    1  A    between atoms: C_8  and  C_9 
REMARK    2  A    between atoms: C_9  and  C_10 
REMARK       I    between atoms: C_10  and  N_11 
REMARK    3  A    between atoms: N_11  and  C_27 
REMARK    4  A    between atoms: N_11  and  C_12 
REMARK    5  A    between atoms: C_12  and  C_13 
REMARK    6  A    between atoms: C_12  and  C_22 
REMARK       I    between atoms: C_13  and  N_14 
REMARK    7  A    between atoms: N_14  and  C_15 
REMARK    8  A    between atoms: C_27  and  C_28 
ROOT
HETATM    1  C   UNL     1      41.261 -15.805   0.695  1.00  0.00     0.225 C 
HETATM    2  N   UNL     1      41.442 -14.535   0.142  1.00  0.00    -0.330 N 
HETATM    3  O   UNL     1      41.337 -16.827   0.006  1.00  0.00    -0.273 OA
ENDROOT
BRANCH   2   4
HETATM    4  C   UNL     1      41.814 -14.469  -1.283  1.00  0.00     0.165 C 
BRANCH   4   5
HETATM    5  C   UNL     1      40.655 -14.723  -2.222  1.00  0.00    -0.037 A 
HETATM    6  C   UNL     1      39.638 -13.762  -2.367  1.00  0.00     0.048 A 
HETATM    7  C   UNL     1      38.577 -14.054  -3.199  1.00  0.00     0.105 A 
HETATM    8  C   UNL     1      38.506 -15.237  -3.895  1.00  0.00     0.105 A 
HETATM    9  O   UNL     1      37.497 -13.258  -3.421  1.00  0.00    -0.323 OA
HETATM   10  O   UNL     1      37.377 -15.332  -4.647  1.00  0.00    -0.323 OA
HETATM   11  C   UNL     1      39.495 -16.188  -3.808  1.00  0.00     0.040 A 
HETATM   12  C   UNL     1      36.743 -14.073  -4.342  1.00  0.00     0.352 A 
HETATM   13  C   UNL     1      40.579 -15.922  -2.966  1.00  0.00     0.012 A 
ENDBRANCH   4   5
ENDBRANCH   2   4
BRANCH   2  14
HETATM   14  C   UNL     1      40.961 -13.300   0.818  1.00  0.00     0.219 C 
BRANCH  14  15
HETATM   15  C   UNL     1      41.674 -13.025   2.182  1.00  0.00     0.246 C 
HETATM   16  N   UNL     1      40.894 -12.836   3.299  1.00  0.00    -0.354 N 
HETATM   17  H   UNL     1      39.894 -12.766   3.146  1.00  0.00     0.162 HD
HETATM   18  O   UNL     1      42.904 -13.068   2.248  1.00  0.00    -0.271 OA
BRANCH  16  19
HETATM   19  C   UNL     1      41.352 -12.435   4.631  1.00  0.00     0.084 C 
HETATM   20  C   UNL     1      41.297 -10.925   4.923  1.00  0.00     0.025 C 
HETATM   21  C   UNL     1      40.044 -10.422   5.634  1.00  0.00     0.002 C 
HETATM   22  C   UNL     1      39.630 -11.313   6.796  1.00  0.00     0.000 C 
HETATM   23  C   UNL     1      39.480 -12.767   6.367  1.00  0.00     0.002 C 
HETATM   24  C   UNL     1      40.767 -13.305   5.751  1.00  0.00     0.025 C 
ENDBRANCH  16  19
ENDBRANCH  14  15
BRANCH  14  25
HETATM   25  C   UNL     1      39.443 -13.195   0.843  1.00  0.00     0.014 A 
HETATM   26  S   UNL     1      38.702 -11.646   0.634  1.00  0.00    -0.104 SA
HETATM   27  C   UNL     1      37.128 -12.298   0.732  1.00  0.00     0.050 A 
HETATM   28  C   UNL     1      37.145 -13.665   0.858  1.00  0.00     0.008 A 
HETATM   29  C   UNL     1      38.472 -14.180   0.896  1.00  0.00     0.017 A 
ENDBRANCH  14  25
ENDBRANCH   2  14
BRANCH   1  30
HETATM   30  C   UNL     1      41.088 -15.944   2.199  1.00  0.00     0.144 C 
BRANCH  30  31
HETATM   31  C   UNL     1      42.166 -16.633   2.981  1.00  0.00    -0.021 A 
HETATM   32  C   UNL     1      42.805 -17.909   2.796  1.00  0.00    -0.001 A 
HETATM   33  C   UNL     1      42.704 -18.950   1.850  1.00  0.00     0.014 A 
HETATM   34  C   UNL     1      43.693 -18.088   3.862  1.00  0.00     0.042 A 
HETATM   35  C   UNL     1      43.451 -20.124   2.018  1.00  0.00     0.001 A 
HETATM   36  C   UNL     1      44.312 -20.271   3.100  1.00  0.00     0.002 A 
HETATM   37  C   UNL     1      44.457 -19.249   4.038  1.00  0.00     0.030 A 
HETATM   38  N   UNL     1      43.643 -16.954   4.632  1.00  0.00    -0.365 N 
HETATM   39  H   UNL     1      44.195 -16.803   5.465  1.00  0.00     0.165 HD
HETATM   40  C   UNL     1      42.727 -16.080   4.121  1.00  0.00     0.097 A 
ENDBRANCH  30  31
ENDBRANCH   1  30
TORSDOF 8
ENDMDL
