MODEL 1
REMARK VINA RESULT:      -8.2      0.000      0.000
REMARK  10 active torsions:
REMARK  status: ('A' for Active; 'I' for Inactive)
REMARK    1  A    between atoms: C_2  and  O_3 
REMARK    2  A    between atoms: O_3  and  C_4 
REMARK    3  A    between atoms: C_7  and  C_8 
REMARK    4  A    between atoms: C_8  and  C_9 
REMARK    5  A    between atoms: C_10  and  C_11 
REMARK    6  A    between atoms: C_14  and  N_15 
REMARK    7  A    between atoms: N_20  and  C_21 
REMARK    8  A    between atoms: C_21  and  C_22 
REMARK    9  A    between atoms: C_22  and  N_23 
REMARK   10  A    between atoms: C_34  and  O_35 
ROOT
HETATM    1  C   UNL     1      41.483 -14.212   3.248  1.00  0.00     0.059 C 
HETATM    2  C   UNL     1      41.328 -15.010   1.992  1.00  0.00     0.161 C 
HETATM    3  N   UNL     1      41.924 -14.110   0.999  1.00  0.00    -0.332 N 
HETATM    4  C   UNL     1      42.111 -12.854   1.551  1.00  0.00     0.278 C 
HETATM    5  O   UNL     1      42.355 -11.840   0.917  1.00  0.00    -0.265 OA
HETATM    6  C   UNL     1      41.946 -12.976   3.008  1.00  0.00     0.146 C 
ENDROOT
BRANCH   1   7
HETATM    7  C   UNL     1      41.257 -14.634   4.644  1.00  0.00     0.193 C 
HETATM    8  O   UNL     1      40.369 -14.076   5.289  1.00  0.00    -0.287 OA
BRANCH   7   9
HETATM    9  C   UNL     1      42.072 -15.686   5.290  1.00  0.00     0.015 A 
HETATM   10  C   UNL     1      43.381 -15.463   5.732  1.00  0.00     0.018 A 
HETATM   11  C   UNL     1      44.121 -16.514   6.285  1.00  0.00     0.038 A 
HETATM   12  C   UNL     1      43.564 -17.789   6.373  1.00  0.00     0.069 A 
HETATM   13  C   UNL     1      42.281 -18.028   5.890  1.00  0.00     0.038 A 
HETATM   14  C   UNL     1      41.531 -16.978   5.357  1.00  0.00     0.018 A 
BRANCH  12  15
HETATM   15  O   UNL     1      44.285 -18.867   6.795  1.00  0.00    -0.347 OA
BRANCH  15  16
HETATM   16  C   UNL     1      43.699 -20.134   6.461  1.00  0.00     0.120 C 
HETATM   17  C   UNL     1      43.574 -20.968   7.732  1.00  0.00     0.040 C 
HETATM   18  C   UNL     1      44.636 -20.819   5.470  1.00  0.00     0.040 C 
ENDBRANCH  15  16
ENDBRANCH  12  15
ENDBRANCH   7   9
ENDBRANCH   1   7
BRANCH   2  19
HETATM   19  C   UNL     1      41.964 -16.382   1.960  1.00  0.00    -0.030 A 
HETATM   20  C   UNL     1      43.354 -16.497   2.155  1.00  0.00     0.012 A 
HETATM   21  C   UNL     1      43.983 -17.745   2.149  1.00  0.00     0.037 A 
HETATM   22  C   UNL     1      43.221 -18.900   1.944  1.00  0.00     0.102 A 
HETATM   23  C   UNL     1      41.837 -18.807   1.748  1.00  0.00     0.037 A 
HETATM   24  C   UNL     1      41.214 -17.554   1.763  1.00  0.00     0.012 A 
BRANCH  22  25
HETATM   25  N   UNL     1      43.876 -20.215   1.960  1.00  0.00    -0.116 N 
HETATM   26  O   UNL     1      45.079 -20.248   2.252  1.00  0.00    -0.532 OA
HETATM   27  O   UNL     1      43.176 -21.204   1.712  1.00  0.00    -0.532 OA
ENDBRANCH  22  25
ENDBRANCH   2  19
BRANCH   6  28
HETATM   28  O   UNL     1      42.237 -11.972   3.883  1.00  0.00    -0.355 OA
HETATM   29  H   UNL     1      42.449 -11.166   3.353  1.00  0.00     0.218 HD
ENDBRANCH   6  28
BRANCH   3  30
HETATM   30  C   UNL     1      41.774 -14.307  -0.439  1.00  0.00     0.155 C 
BRANCH  30  31
HETATM   31  C   UNL     1      40.302 -14.244  -0.941  1.00  0.00     0.254 C 
BRANCH  31  32
HETATM   32  N   UNL     1      40.184 -13.679  -2.370  1.00  0.00    -0.066 N 
HETATM   33  H   UNL     1      40.865 -12.903  -2.399  1.00  0.00     0.280 HD
HETATM   34  C   UNL     1      38.821 -13.033  -2.653  1.00  0.00     0.262 C 
HETATM   35  C   UNL     1      37.732 -14.070  -3.021  1.00  0.00     0.260 C 
HETATM   36  N   UNL     1      38.187 -14.960  -4.150  1.00  0.00    -0.072 N 
HETATM   37  H   UNL     1      38.236 -14.446  -5.044  1.00  0.00     0.277 HD
HETATM   38  H   UNL     1      37.465 -15.684  -4.315  1.00  0.00     0.277 HD
HETATM   39  C   UNL     1      39.491 -15.666  -3.859  1.00  0.00     0.260 C 
HETATM   40  C   UNL     1      40.599 -14.646  -3.494  1.00  0.00     0.262 C 
ENDBRANCH  31  32
ENDBRANCH  30  31
ENDBRANCH   3  30
TORSDOF 10
ENDMDL
MODEL 2
REMARK VINA RESULT:      -8.0      3.658      6.733
REMARK  10 active torsions:
REMARK  status: ('A' for Active; 'I' for Inactive)
REMARK    1  A    between atoms: C_2  and  O_3 
REMARK    2  A    between atoms: O_3  and  C_4 
REMARK    3  A    between atoms: C_7  and  C_8 
REMARK    4  A    between atoms: C_8  and  C_9 
REMARK    5  A    between atoms: C_10  and  C_11 
REMARK    6  A    between atoms: C_14  and  N_15 
REMARK    7  A    between atoms: N_20  and  C_21 
REMARK    8  A    between atoms: C_21  and  C_22 
REMARK    9  A    between atoms: C_22  and  N_23 
REMARK   10  A    between atoms: C_34  and  O_35 
ROOT
HETATM    1  C   UNL     1      40.552 -14.301   2.686  1.00  0.00     0.059 C 
HETATM    2  C   UNL     1      41.387 -13.798   3.820  1.00  0.00     0.161 C 
HETATM    3  N   UNL     1      40.502 -12.789   4.410  1.00  0.00    -0.332 N 
HETATM    4  C   UNL     1      39.443 -12.532   3.555  1.00  0.00     0.278 C 
HETATM    5  O   UNL     1      38.683 -11.581   3.649  1.00  0.00    -0.265 OA
HETATM    6  C   UNL     1      39.425 -13.590   2.534  1.00  0.00     0.146 C 
ENDROOT
BRANCH   1   7
HETATM    7  C   UNL     1      40.788 -15.466   1.810  1.00  0.00     0.193 C 
HETATM    8  O   UNL     1      40.021 -15.654   0.865  1.00  0.00    -0.287 OA
BRANCH   7   9
HETATM    9  C   UNL     1      41.898 -16.415   2.045  1.00  0.00     0.015 A 
HETATM   10  C   UNL     1      43.170 -16.241   1.489  1.00  0.00     0.018 A 
HETATM   11  C   UNL     1      44.164 -17.203   1.702  1.00  0.00     0.038 A 
HETATM   12  C   UNL     1      43.879 -18.347   2.447  1.00  0.00     0.069 A 
HETATM   13  C   UNL     1      42.602 -18.549   2.960  1.00  0.00     0.038 A 
HETATM   14  C   UNL     1      41.614 -17.582   2.768  1.00  0.00     0.018 A 
BRANCH  12  15
HETATM   15  O   UNL     1      44.778 -19.365   2.583  1.00  0.00    -0.347 OA
BRANCH  15  16
HETATM   16  C   UNL     1      44.229 -20.560   3.157  1.00  0.00     0.120 C 
HETATM   17  C   UNL     1      44.979 -20.874   4.448  1.00  0.00     0.040 C 
HETATM   18  C   UNL     1      44.428 -21.683   2.143  1.00  0.00     0.040 C 
ENDBRANCH  15  16
ENDBRANCH  12  15
ENDBRANCH   7   9
ENDBRANCH   1   7
BRANCH   2  19
HETATM   19  C   UNL     1      41.846 -14.812   4.845  1.00  0.00    -0.030 A 
HETATM   20  C   UNL     1      43.227 -14.999   5.052  1.00  0.00     0.012 A 
HETATM   21  C   UNL     1      43.698 -15.913   5.998  1.00  0.00     0.037 A 
HETATM   22  C   UNL     1      42.784 -16.656   6.752  1.00  0.00     0.102 A 
HETATM   23  C   UNL     1      41.406 -16.486   6.561  1.00  0.00     0.037 A 
HETATM   24  C   UNL     1      40.943 -15.562   5.617  1.00  0.00     0.012 A 
BRANCH  22  25
HETATM   25  N   UNL     1      43.275 -17.602   7.763  1.00  0.00    -0.116 N 
HETATM   26  O   UNL     1      43.500 -17.157   8.897  1.00  0.00    -0.532 OA
HETATM   27  O   UNL     1      43.399 -18.785   7.426  1.00  0.00    -0.532 OA
ENDBRANCH  22  25
ENDBRANCH   2  19
BRANCH   6  28
HETATM   28  O   UNL     1      38.409 -13.751   1.638  1.00  0.00    -0.355 OA
HETATM   29  H   UNL     1      38.671 -13.293   0.804  1.00  0.00     0.218 HD
ENDBRANCH   6  28
BRANCH   3  30
HETATM   30  C   UNL     1      40.959 -11.809   5.389  1.00  0.00     0.155 C 
BRANCH  30  31
HETATM   31  C   UNL     1      40.181 -11.842   6.737  1.00  0.00     0.254 C 
BRANCH  31  32
HETATM   32  N   UNL     1      40.155 -10.474   7.444  1.00  0.00    -0.066 N 
HETATM   33  H   UNL     1      39.674  -9.846   6.779  1.00  0.00     0.280 HD
HETATM   34  C   UNL     1      41.552  -9.866   7.635  1.00  0.00     0.262 C 
HETATM   35  C   UNL     1      42.290 -10.440   8.869  1.00  0.00     0.260 C 
HETATM   36  N   UNL     1      41.443 -10.327  10.111  1.00  0.00    -0.072 N 
HETATM   37  H   UNL     1      41.346  -9.346  10.418  1.00  0.00     0.277 HD
HETATM   38  H   UNL     1      41.939 -10.787  10.896  1.00  0.00     0.277 HD
HETATM   39  C   UNL     1      40.091 -10.987   9.969  1.00  0.00     0.260 C 
HETATM   40  C   UNL     1      39.330 -10.422   8.742  1.00  0.00     0.262 C 
ENDBRANCH  31  32
ENDBRANCH  30  31
ENDBRANCH   3  30
TORSDOF 10
ENDMDL
MODEL 3
REMARK VINA RESULT:      -7.9      1.149      1.682
REMARK  10 active torsions:
REMARK  status: ('A' for Active; 'I' for Inactive)
REMARK    1  A    between atoms: C_2  and  O_3 
REMARK    2  A    between atoms: O_3  and  C_4 
REMARK    3  A    between atoms: C_7  and  C_8 
REMARK    4  A    between atoms: C_8  and  C_9 
REMARK    5  A    between atoms: C_10  and  C_11 
REMARK    6  A    between atoms: C_14  and  N_15 
REMARK    7  A    between atoms: N_20  and  C_21 
REMARK    8  A    between atoms: C_21  and  C_22 
REMARK    9  A    between atoms: C_22  and  N_23 
REMARK   10  A    between atoms: C_34  and  O_35 
ROOT
HETATM    1  C   UNL     1      40.981 -13.443   3.002  1.00  0.00     0.059 C 
HETATM    2  C   UNL     1      41.044 -14.370   1.830  1.00  0.00     0.161 C 
HETATM    3  N   UNL     1      41.751 -13.547   0.845  1.00  0.00    -0.332 N 
HETATM    4  C   UNL     1      41.810 -12.233   1.280  1.00  0.00     0.278 C 
HETATM    5  O   UNL     1      42.112 -11.277   0.584  1.00  0.00    -0.265 OA
HETATM    6  C   UNL     1      41.432 -12.216   2.702  1.00  0.00     0.146 C 
ENDROOT
BRANCH   1   7
HETATM    7  C   UNL     1      40.562 -13.733   4.388  1.00  0.00     0.193 C 
HETATM    8  O   UNL     1      39.548 -13.185   4.820  1.00  0.00    -0.287 OA
BRANCH   7   9
HETATM    9  C   UNL     1      41.329 -14.640   5.269  1.00  0.00     0.015 A 
HETATM   10  C   UNL     1      42.643 -14.372   5.670  1.00  0.00     0.018 A 
HETATM   11  C   UNL     1      43.336 -15.296   6.459  1.00  0.00     0.038 A 
HETATM   12  C   UNL     1      42.728 -16.496   6.824  1.00  0.00     0.069 A 
HETATM   13  C   UNL     1      41.440 -16.791   6.386  1.00  0.00     0.038 A 
HETATM   14  C   UNL     1      40.737 -15.862   5.617  1.00  0.00     0.018 A 
BRANCH  12  15
HETATM   15  O   UNL     1      43.402 -17.477   7.491  1.00  0.00    -0.347 OA
BRANCH  15  16
HETATM   16  C   UNL     1      43.936 -18.505   6.644  1.00  0.00     0.120 C 
HETATM   17  C   UNL     1      43.766 -19.852   7.339  1.00  0.00     0.040 C 
HETATM   18  C   UNL     1      45.416 -18.199   6.437  1.00  0.00     0.040 C 
ENDBRANCH  15  16
ENDBRANCH  12  15
ENDBRANCH   7   9
ENDBRANCH   1   7
BRANCH   2  19
HETATM   19  C   UNL     1      41.725 -15.705   2.039  1.00  0.00    -0.030 A 
HETATM   20  C   UNL     1      40.997 -16.888   1.804  1.00  0.00     0.012 A 
HETATM   21  C   UNL     1      41.587 -18.143   1.969  1.00  0.00     0.037 A 
HETATM   22  C   UNL     1      42.923 -18.229   2.376  1.00  0.00     0.102 A 
HETATM   23  C   UNL     1      43.664 -17.064   2.617  1.00  0.00     0.037 A 
HETATM   24  C   UNL     1      43.067 -15.810   2.441  1.00  0.00     0.012 A 
BRANCH  22  25
HETATM   25  N   UNL     1      43.553 -19.547   2.529  1.00  0.00    -0.116 N 
HETATM   26  O   UNL     1      44.505 -19.634   3.317  1.00  0.00    -0.532 OA
HETATM   27  O   UNL     1      43.071 -20.488   1.888  1.00  0.00    -0.532 OA
ENDBRANCH  22  25
ENDBRANCH   2  19
BRANCH   6  28
HETATM   28  O   UNL     1      41.554 -11.115   3.497  1.00  0.00    -0.355 OA
HETATM   29  H   UNL     1      42.490 -11.074   3.808  1.00  0.00     0.218 HD
ENDBRANCH   6  28
BRANCH   3  30
HETATM   30  C   UNL     1      41.827 -13.894  -0.571  1.00  0.00     0.155 C 
BRANCH  30  31
HETATM   31  C   UNL     1      40.501 -14.456  -1.161  1.00  0.00     0.254 C 
BRANCH  31  32
HETATM   32  N   UNL     1      40.518 -14.528  -2.700  1.00  0.00    -0.066 N 
HETATM   33  H   UNL     1      41.085 -15.365  -2.915  1.00  0.00     0.280 HD
HETATM   34  C   UNL     1      41.264 -13.356  -3.352  1.00  0.00     0.262 C 
HETATM   35  C   UNL     1      40.392 -12.081  -3.465  1.00  0.00     0.260 C 
HETATM   36  N   UNL     1      39.082 -12.377  -4.151  1.00  0.00    -0.072 N 
HETATM   37  H   UNL     1      39.215 -12.577  -5.156  1.00  0.00     0.277 HD
HETATM   38  H   UNL     1      38.500 -11.520  -4.141  1.00  0.00     0.277 HD
HETATM   39  C   UNL     1      38.296 -13.478  -3.479  1.00  0.00     0.260 C 
HETATM   40  C   UNL     1      39.148 -14.768  -3.361  1.00  0.00     0.262 C 
ENDBRANCH  31  32
ENDBRANCH  30  31
ENDBRANCH   3  30
TORSDOF 10
ENDMDL
MODEL 4
REMARK VINA RESULT:      -7.8      3.049      5.974
REMARK  10 active torsions:
REMARK  status: ('A' for Active; 'I' for Inactive)
REMARK    1  A    between atoms: C_2  and  O_3 
REMARK    2  A    between atoms: O_3  and  C_4 
REMARK    3  A    between atoms: C_7  and  C_8 
REMARK    4  A    between atoms: C_8  and  C_9 
REMARK    5  A    between atoms: C_10  and  C_11 
REMARK    6  A    between atoms: C_14  and  N_15 
REMARK    7  A    between atoms: N_20  and  C_21 
REMARK    8  A    between atoms: C_21  and  C_22 
REMARK    9  A    between atoms: C_22  and  N_23 
REMARK   10  A    between atoms: C_34  and  O_35 
ROOT
HETATM    1  C   UNL     1      40.947 -14.570   1.269  1.00  0.00     0.059 C 
HETATM    2  C   UNL     1      41.528 -13.778   2.396  1.00  0.00     0.161 C 
HETATM    3  N   UNL     1      40.479 -12.780   2.624  1.00  0.00    -0.332 N 
HETATM    4  C   UNL     1      39.570 -12.803   1.579  1.00  0.00     0.278 C 
HETATM    5  O   UNL     1      38.735 -11.940   1.359  1.00  0.00    -0.265 OA
HETATM    6  C   UNL     1      39.813 -14.027   0.801  1.00  0.00     0.146 C 
ENDROOT
BRANCH   1   7
HETATM    7  C   UNL     1      41.422 -15.844   0.693  1.00  0.00     0.193 C 
HETATM    8  O   UNL     1      41.065 -16.141  -0.447  1.00  0.00    -0.287 OA
BRANCH   7   9
HETATM    9  C   UNL     1      42.291 -16.773   1.448  1.00  0.00     0.015 A 
HETATM   10  C   UNL     1      43.676 -16.836   1.256  1.00  0.00     0.018 A 
HETATM   11  C   UNL     1      44.438 -17.775   1.960  1.00  0.00     0.038 A 
HETATM   12  C   UNL     1      43.815 -18.665   2.834  1.00  0.00     0.069 A 
HETATM   13  C   UNL     1      42.432 -18.640   2.991  1.00  0.00     0.038 A 
HETATM   14  C   UNL     1      41.671 -17.691   2.306  1.00  0.00     0.018 A 
BRANCH  12  15
HETATM   15  O   UNL     1      44.498 -19.671   3.452  1.00  0.00    -0.347 OA
BRANCH  15  16
HETATM   16  C   UNL     1      44.240 -19.779   4.860  1.00  0.00     0.120 C 
HETATM   17  C   UNL     1      45.083 -18.741   5.594  1.00  0.00     0.040 C 
HETATM   18  C   UNL     1      44.644 -21.187   5.288  1.00  0.00     0.040 C 
ENDBRANCH  15  16
ENDBRANCH  12  15
ENDBRANCH   7   9
ENDBRANCH   1   7
BRANCH   2  19
HETATM   19  C   UNL     1      41.876 -14.528   3.663  1.00  0.00    -0.030 A 
HETATM   20  C   UNL     1      43.213 -14.543   4.105  1.00  0.00     0.012 A 
HETATM   21  C   UNL     1      43.579 -15.209   5.277  1.00  0.00     0.037 A 
HETATM   22  C   UNL     1      42.602 -15.876   6.024  1.00  0.00     0.102 A 
HETATM   23  C   UNL     1      41.266 -15.874   5.602  1.00  0.00     0.037 A 
HETATM   24  C   UNL     1      40.907 -15.197   4.431  1.00  0.00     0.012 A 
BRANCH  22  25
HETATM   25  N   UNL     1      42.979 -16.559   7.269  1.00  0.00    -0.116 N 
HETATM   26  O   UNL     1      43.836 -16.016   7.980  1.00  0.00    -0.532 OA
HETATM   27  O   UNL     1      42.394 -17.614   7.541  1.00  0.00    -0.532 OA
ENDBRANCH  22  25
ENDBRANCH   2  19
BRANCH   6  28
HETATM   28  O   UNL     1      38.987 -14.461  -0.193  1.00  0.00    -0.355 OA
HETATM   29  H   UNL     1      39.334 -15.329  -0.512  1.00  0.00     0.218 HD
ENDBRANCH   6  28
BRANCH   3  30
HETATM   30  C   UNL     1      40.680 -11.592   3.446  1.00  0.00     0.155 C 
BRANCH  30  31
HETATM   31  C   UNL     1      39.785 -11.538   4.719  1.00  0.00     0.254 C 
BRANCH  31  32
HETATM   32  N   UNL     1      40.355 -12.370   5.884  1.00  0.00    -0.066 N 
HETATM   33  H   UNL     1      40.462 -13.321   5.496  1.00  0.00     0.280 HD
HETATM   34  C   UNL     1      39.376 -12.519   7.056  1.00  0.00     0.262 C 
HETATM   35  C   UNL     1      39.375 -11.287   7.995  1.00  0.00     0.260 C 
HETATM   36  N   UNL     1      40.771 -10.953   8.456  1.00  0.00    -0.072 N 
HETATM   37  H   UNL     1      41.135 -11.662   9.113  1.00  0.00     0.277 HD
HETATM   38  H   UNL     1      40.737 -10.084   9.018  1.00  0.00     0.277 HD
HETATM   39  C   UNL     1      41.734 -10.727   7.314  1.00  0.00     0.260 C 
HETATM   40  C   UNL     1      41.757 -11.951   6.364  1.00  0.00     0.262 C 
ENDBRANCH  31  32
ENDBRANCH  30  31
ENDBRANCH   3  30
TORSDOF 10
ENDMDL
MODEL 5
REMARK VINA RESULT:      -7.6      3.732      6.970
REMARK  10 active torsions:
REMARK  status: ('A' for Active; 'I' for Inactive)
REMARK    1  A    between atoms: C_2  and  O_3 
REMARK    2  A    between atoms: O_3  and  C_4 
REMARK    3  A    between atoms: C_7  and  C_8 
REMARK    4  A    between atoms: C_8  and  C_9 
REMARK    5  A    between atoms: C_10  and  C_11 
REMARK    6  A    between atoms: C_14  and  N_15 
REMARK    7  A    between atoms: N_20  and  C_21 
REMARK    8  A    between atoms: C_21  and  C_22 
REMARK    9  A    between atoms: C_22  and  N_23 
REMARK   10  A    between atoms: C_34  and  O_35 
ROOT
HETATM    1  C   UNL     1      41.450 -13.300   2.713  1.00  0.00     0.059 C 
HETATM    2  C   UNL     1      42.048 -12.893   4.022  1.00  0.00     0.161 C 
HETATM    3  N   UNL     1      41.017 -11.993   4.546  1.00  0.00    -0.332 N 
HETATM    4  C   UNL     1      40.106 -11.684   3.550  1.00  0.00     0.278 C 
HETATM    5  O   UNL     1      39.287 -10.781   3.605  1.00  0.00    -0.265 OA
HETATM    6  C   UNL     1      40.325 -12.622   2.438  1.00  0.00     0.146 C 
ENDROOT
BRANCH   1   7
HETATM    7  C   UNL     1      41.900 -14.350   1.777  1.00  0.00     0.193 C 
HETATM    8  O   UNL     1      42.016 -14.063   0.586  1.00  0.00    -0.287 OA
BRANCH   7   9
HETATM    9  C   UNL     1      42.195 -15.729   2.225  1.00  0.00     0.015 A 
HETATM   10  C   UNL     1      41.192 -16.650   2.544  1.00  0.00     0.018 A 
HETATM   11  C   UNL     1      41.535 -17.923   3.015  1.00  0.00     0.038 A 
HETATM   12  C   UNL     1      42.875 -18.263   3.191  1.00  0.00     0.069 A 
HETATM   13  C   UNL     1      43.876 -17.334   2.922  1.00  0.00     0.038 A 
HETATM   14  C   UNL     1      43.539 -16.071   2.432  1.00  0.00     0.018 A 
BRANCH  12  15
HETATM   15  O   UNL     1      43.254 -19.446   3.756  1.00  0.00    -0.347 OA
BRANCH  15  16
HETATM   16  C   UNL     1      44.271 -20.148   3.026  1.00  0.00     0.120 C 
HETATM   17  C   UNL     1      43.628 -20.829   1.822  1.00  0.00     0.040 C 
HETATM   18  C   UNL     1      44.867 -21.190   3.968  1.00  0.00     0.040 C 
ENDBRANCH  15  16
ENDBRANCH  12  15
ENDBRANCH   7   9
ENDBRANCH   1   7
BRANCH   2  19
HETATM   19  C   UNL     1      42.384 -13.996   5.002  1.00  0.00    -0.030 A 
HETATM   20  C   UNL     1      41.353 -14.836   5.467  1.00  0.00     0.012 A 
HETATM   21  C   UNL     1      41.618 -15.876   6.361  1.00  0.00     0.037 A 
HETATM   22  C   UNL     1      42.928 -16.086   6.805  1.00  0.00     0.102 A 
HETATM   23  C   UNL     1      43.967 -15.261   6.356  1.00  0.00     0.037 A 
HETATM   24  C   UNL     1      43.694 -14.226   5.454  1.00  0.00     0.012 A 
BRANCH  22  25
HETATM   25  N   UNL     1      43.213 -17.193   7.728  1.00  0.00    -0.116 N 
HETATM   26  O   UNL     1      43.523 -16.899   8.891  1.00  0.00    -0.532 OA
HETATM   27  O   UNL     1      43.093 -18.345   7.293  1.00  0.00    -0.532 OA
ENDBRANCH  22  25
ENDBRANCH   2  19
BRANCH   6  28
HETATM   28  O   UNL     1      39.489 -12.723   1.365  1.00  0.00    -0.355 OA
HETATM   29  H   UNL     1      40.022 -12.543   0.554  1.00  0.00     0.218 HD
ENDBRANCH   6  28
BRANCH   3  30
HETATM   30  C   UNL     1      41.241 -11.110   5.686  1.00  0.00     0.155 C 
BRANCH  30  31
HETATM   31  C   UNL     1      40.293 -11.372   6.893  1.00  0.00     0.254 C 
BRANCH  31  32
HETATM   32  N   UNL     1      40.167 -10.153   7.827  1.00  0.00    -0.066 N 
HETATM   33  H   UNL     1      39.636  -9.458   7.277  1.00  0.00     0.280 HD
HETATM   34  C   UNL     1      41.514  -9.483   8.132  1.00  0.00     0.262 C 
HETATM   35  C   UNL     1      42.301 -10.206   9.253  1.00  0.00     0.260 C 
HETATM   36  N   UNL     1      41.456 -10.375  10.489  1.00  0.00    -0.072 N 
HETATM   37  H   UNL     1      41.285  -9.472  10.961  1.00  0.00     0.277 HD
HETATM   38  H   UNL     1      41.990 -10.925  11.185  1.00  0.00     0.277 HD
HETATM   39  C   UNL     1      40.157 -11.102  10.224  1.00  0.00     0.260 C 
HETATM   40  C   UNL     1      39.348 -10.391   9.109  1.00  0.00     0.262 C 
ENDBRANCH  31  32
ENDBRANCH  30  31
ENDBRANCH   3  30
TORSDOF 10
ENDMDL
MODEL 6
REMARK VINA RESULT:      -7.6      2.007      2.839
REMARK  10 active torsions:
REMARK  status: ('A' for Active; 'I' for Inactive)
REMARK    1  A    between atoms: C_2  and  O_3 
REMARK    2  A    between atoms: O_3  and  C_4 
REMARK    3  A    between atoms: C_7  and  C_8 
REMARK    4  A    between atoms: C_8  and  C_9 
REMARK    5  A    between atoms: C_10  and  C_11 
REMARK    6  A    between atoms: C_14  and  N_15 
REMARK    7  A    between atoms: N_20  and  C_21 
REMARK    8  A    between atoms: C_21  and  C_22 
REMARK    9  A    between atoms: C_22  and  N_23 
REMARK   10  A    between atoms: C_34  and  O_35 
ROOT
HETATM    1  C   UNL     1      39.604 -12.891   4.017  1.00  0.00     0.059 C 
HETATM    2  C   UNL     1      39.459 -13.699   2.767  1.00  0.00     0.161 C 
HETATM    3  N   UNL     1      39.469 -12.653   1.740  1.00  0.00    -0.332 N 
HETATM    4  C   UNL     1      39.326 -11.408   2.331  1.00  0.00     0.278 C 
HETATM    5  O   UNL     1      39.056 -10.377   1.737  1.00  0.00    -0.265 OA
HETATM    6  C   UNL     1      39.544 -11.572   3.777  1.00  0.00     0.146 C 
ENDROOT
BRANCH   1   7
HETATM    7  C   UNL     1      39.856 -13.357   5.395  1.00  0.00     0.193 C 
HETATM    8  O   UNL     1      39.221 -12.840   6.314  1.00  0.00    -0.287 OA
BRANCH   7   9
HETATM    9  C   UNL     1      40.854 -14.406   5.701  1.00  0.00     0.015 A 
HETATM   10  C   UNL     1      40.494 -15.721   6.016  1.00  0.00     0.018 A 
HETATM   11  C   UNL     1      41.481 -16.655   6.350  1.00  0.00     0.038 A 
HETATM   12  C   UNL     1      42.820 -16.269   6.395  1.00  0.00     0.069 A 
HETATM   13  C   UNL     1      43.179 -14.950   6.132  1.00  0.00     0.038 A 
HETATM   14  C   UNL     1      42.199 -14.020   5.777  1.00  0.00     0.018 A 
BRANCH  12  15
HETATM   15  O   UNL     1      43.803 -17.110   6.829  1.00  0.00    -0.347 OA
BRANCH  15  16
HETATM   16  C   UNL     1      43.665 -18.462   6.366  1.00  0.00     0.120 C 
HETATM   17  C   UNL     1      43.831 -19.406   7.553  1.00  0.00     0.040 C 
HETATM   18  C   UNL     1      44.768 -18.704   5.339  1.00  0.00     0.040 C 
ENDBRANCH  15  16
ENDBRANCH  12  15
ENDBRANCH   7   9
ENDBRANCH   1   7
BRANCH   2  19
HETATM   19  C   UNL     1      40.507 -14.757   2.501  1.00  0.00    -0.030 A 
HETATM   20  C   UNL     1      40.098 -16.090   2.301  1.00  0.00     0.012 A 
HETATM   21  C   UNL     1      41.029 -17.099   2.038  1.00  0.00     0.037 A 
HETATM   22  C   UNL     1      42.390 -16.781   1.973  1.00  0.00     0.102 A 
HETATM   23  C   UNL     1      42.817 -15.461   2.171  1.00  0.00     0.037 A 
HETATM   24  C   UNL     1      41.878 -14.456   2.426  1.00  0.00     0.012 A 
BRANCH  22  25
HETATM   25  N   UNL     1      43.369 -17.835   1.675  1.00  0.00    -0.116 N 
HETATM   26  O   UNL     1      42.999 -19.009   1.807  1.00  0.00    -0.532 OA
HETATM   27  O   UNL     1      44.486 -17.481   1.279  1.00  0.00    -0.532 OA
ENDBRANCH  22  25
ENDBRANCH   2  19
BRANCH   6  28
HETATM   28  O   UNL     1      39.657 -10.525   4.643  1.00  0.00    -0.355 OA
HETATM   29  H   UNL     1      39.621 -10.890   5.559  1.00  0.00     0.218 HD
ENDBRANCH   6  28
BRANCH   3  30
HETATM   30  C   UNL     1      39.079 -12.898   0.356  1.00  0.00     0.155 C 
BRANCH  30  31
HETATM   31  C   UNL     1      40.121 -12.412  -0.695  1.00  0.00     0.254 C 
BRANCH  31  32
HETATM   32  N   UNL     1      41.383 -13.295  -0.735  1.00  0.00    -0.066 N 
HETATM   33  H   UNL     1      41.688 -13.356   0.250  1.00  0.00     0.280 HD
HETATM   34  C   UNL     1      42.554 -12.642  -1.482  1.00  0.00     0.262 C 
HETATM   35  C   UNL     1      42.447 -12.802  -3.018  1.00  0.00     0.260 C 
HETATM   36  N   UNL     1      42.260 -14.248  -3.403  1.00  0.00    -0.072 N 
HETATM   37  H   UNL     1      43.117 -14.800  -3.237  1.00  0.00     0.277 HD
HETATM   38  H   UNL     1      42.119 -14.304  -4.427  1.00  0.00     0.277 HD
HETATM   39  C   UNL     1      41.065 -14.889  -2.736  1.00  0.00     0.260 C 
HETATM   40  C   UNL     1      41.154 -14.746  -1.195  1.00  0.00     0.262 C 
ENDBRANCH  31  32
ENDBRANCH  30  31
ENDBRANCH   3  30
TORSDOF 10
ENDMDL
MODEL 7
REMARK VINA RESULT:      -7.4      2.522      7.807
REMARK  10 active torsions:
REMARK  status: ('A' for Active; 'I' for Inactive)
REMARK    1  A    between atoms: C_2  and  O_3 
REMARK    2  A    between atoms: O_3  and  C_4 
REMARK    3  A    between atoms: C_7  and  C_8 
REMARK    4  A    between atoms: C_8  and  C_9 
REMARK    5  A    between atoms: C_10  and  C_11 
REMARK    6  A    between atoms: C_14  and  N_15 
REMARK    7  A    between atoms: N_20  and  C_21 
REMARK    8  A    between atoms: C_21  and  C_22 
REMARK    9  A    between atoms: C_22  and  N_23 
REMARK   10  A    between atoms: C_34  and  O_35 
ROOT
HETATM    1  C   UNL     1      40.537 -13.936   3.577  1.00  0.00     0.059 C 
HETATM    2  C   UNL     1      41.782 -14.190   2.788  1.00  0.00     0.161 C 
HETATM    3  N   UNL     1      42.333 -15.358   3.480  1.00  0.00    -0.332 N 
HETATM    4  C   UNL     1      41.668 -15.556   4.679  1.00  0.00     0.278 C 
HETATM    5  O   UNL     1      42.050 -16.285   5.580  1.00  0.00    -0.265 OA
HETATM    6  C   UNL     1      40.454 -14.725   4.658  1.00  0.00     0.146 C 
ENDROOT
BRANCH   1   7
HETATM    7  C   UNL     1      39.426 -13.011   3.278  1.00  0.00     0.193 C 
HETATM    8  O   UNL     1      39.008 -12.285   4.180  1.00  0.00    -0.287 OA
BRANCH   7   9
HETATM    9  C   UNL     1      38.794 -12.947   1.941  1.00  0.00     0.015 A 
HETATM   10  C   UNL     1      38.173 -14.050   1.345  1.00  0.00     0.018 A 
HETATM   11  C   UNL     1      37.642 -13.941   0.055  1.00  0.00     0.038 A 
HETATM   12  C   UNL     1      37.754 -12.741  -0.646  1.00  0.00     0.069 A 
HETATM   13  C   UNL     1      38.415 -11.656  -0.078  1.00  0.00     0.038 A 
HETATM   14  C   UNL     1      38.927 -11.754   1.217  1.00  0.00     0.018 A 
BRANCH  12  15
HETATM   15  O   UNL     1      37.358 -12.623  -1.946  1.00  0.00    -0.347 OA
BRANCH  15  16
HETATM   16  C   UNL     1      38.216 -13.288  -2.886  1.00  0.00     0.120 C 
HETATM   17  C   UNL     1      38.995 -12.236  -3.669  1.00  0.00     0.040 C 
HETATM   18  C   UNL     1      37.322 -14.092  -3.825  1.00  0.00     0.040 C 
ENDBRANCH  15  16
ENDBRANCH  12  15
ENDBRANCH   7   9
ENDBRANCH   1   7
BRANCH   2  19
HETATM   19  C   UNL     1      41.622 -14.439   1.304  1.00  0.00    -0.030 A 
HETATM   20  C   UNL     1      41.167 -15.698   0.866  1.00  0.00     0.012 A 
HETATM   21  C   UNL     1      40.990 -15.969  -0.493  1.00  0.00     0.037 A 
HETATM   22  C   UNL     1      41.272 -14.975  -1.436  1.00  0.00     0.102 A 
HETATM   23  C   UNL     1      41.727 -13.717  -1.022  1.00  0.00     0.037 A 
HETATM   24  C   UNL     1      41.894 -13.451   0.342  1.00  0.00     0.012 A 
BRANCH  22  25
HETATM   25  N   UNL     1      41.066 -15.250  -2.865  1.00  0.00    -0.116 N 
HETATM   26  O   UNL     1      40.296 -16.173  -3.162  1.00  0.00    -0.532 OA
HETATM   27  O   UNL     1      41.648 -14.520  -3.676  1.00  0.00    -0.532 OA
ENDBRANCH  22  25
ENDBRANCH   2  19
BRANCH   6  28
HETATM   28  O   UNL     1      39.472 -14.808   5.601  1.00  0.00    -0.355 OA
HETATM   29  H   UNL     1      39.004 -15.668   5.469  1.00  0.00     0.218 HD
ENDBRANCH   6  28
BRANCH   3  30
HETATM   30  C   UNL     1      43.695 -15.837   3.266  1.00  0.00     0.155 C 
BRANCH  30  31
HETATM   31  C   UNL     1      43.786 -17.150   2.435  1.00  0.00     0.254 C 
BRANCH  31  32
HETATM   32  N   UNL     1      43.004 -18.314   3.073  1.00  0.00    -0.066 N 
HETATM   33  H   UNL     1      42.103 -17.898   3.356  1.00  0.00     0.280 HD
HETATM   34  C   UNL     1      43.639 -18.828   4.373  1.00  0.00     0.262 C 
HETATM   35  C   UNL     1      44.809 -19.810   4.120  1.00  0.00     0.260 C 
HETATM   36  N   UNL     1      44.388 -20.934   3.207  1.00  0.00    -0.072 N 
HETATM   37  H   UNL     1      43.729 -21.578   3.674  1.00  0.00     0.277 HD
HETATM   38  H   UNL     1      45.214 -21.525   3.004  1.00  0.00     0.277 HD
HETATM   39  C   UNL     1      43.831 -20.450   1.888  1.00  0.00     0.260 C 
HETATM   40  C   UNL     1      42.652 -19.469   2.117  1.00  0.00     0.262 C 
ENDBRANCH  31  32
ENDBRANCH  30  31
ENDBRANCH   3  30
TORSDOF 10
ENDMDL
MODEL 8
REMARK VINA RESULT:      -7.2      2.422      3.573
REMARK  10 active torsions:
REMARK  status: ('A' for Active; 'I' for Inactive)
REMARK    1  A    between atoms: C_2  and  O_3 
REMARK    2  A    between atoms: O_3  and  C_4 
REMARK    3  A    between atoms: C_7  and  C_8 
REMARK    4  A    between atoms: C_8  and  C_9 
REMARK    5  A    between atoms: C_10  and  C_11 
REMARK    6  A    between atoms: C_14  and  N_15 
REMARK    7  A    between atoms: N_20  and  C_21 
REMARK    8  A    between atoms: C_21  and  C_22 
REMARK    9  A    between atoms: C_22  and  N_23 
REMARK   10  A    between atoms: C_34  and  O_35 
ROOT
HETATM    1  C   UNL     1      41.524 -14.136   3.437  1.00  0.00     0.059 C 
HETATM    2  C   UNL     1      41.470 -15.298   2.497  1.00  0.00     0.161 C 
HETATM    3  N   UNL     1      42.001 -14.704   1.267  1.00  0.00    -0.332 N 
HETATM    4  C   UNL     1      42.059 -13.326   1.393  1.00  0.00     0.278 C 
HETATM    5  O   UNL     1      42.221 -12.544   0.471  1.00  0.00    -0.265 OA
HETATM    6  C   UNL     1      41.875 -13.000   2.816  1.00  0.00     0.146 C 
ENDROOT
BRANCH   1   7
HETATM    7  C   UNL     1      41.308 -14.117   4.897  1.00  0.00     0.193 C 
HETATM    8  O   UNL     1      40.170 -14.308   5.324  1.00  0.00    -0.287 OA
BRANCH   7   9
HETATM    9  C   UNL     1      42.409 -13.859   5.852  1.00  0.00     0.015 A 
HETATM   10  C   UNL     1      43.396 -14.808   6.140  1.00  0.00     0.018 A 
HETATM   11  C   UNL     1      44.380 -14.526   7.094  1.00  0.00     0.038 A 
HETATM   12  C   UNL     1      44.362 -13.310   7.776  1.00  0.00     0.069 A 
HETATM   13  C   UNL     1      43.354 -12.383   7.529  1.00  0.00     0.038 A 
HETATM   14  C   UNL     1      42.382 -12.652   6.563  1.00  0.00     0.018 A 
BRANCH  12  15
HETATM   15  O   UNL     1      45.228 -13.038   8.795  1.00  0.00    -0.347 OA
BRANCH  15  16
HETATM   16  C   UNL     1      44.794 -11.986   9.669  1.00  0.00     0.120 C 
HETATM   17  C   UNL     1      45.901 -10.940   9.765  1.00  0.00     0.040 C 
HETATM   18  C   UNL     1      44.538 -12.611  11.037  1.00  0.00     0.040 C 
ENDBRANCH  15  16
ENDBRANCH  12  15
ENDBRANCH   7   9
ENDBRANCH   1   7
BRANCH   2  19
HETATM   19  C   UNL     1      42.232 -16.545   2.893  1.00  0.00    -0.030 A 
HETATM   20  C   UNL     1      43.412 -16.875   2.200  1.00  0.00     0.012 A 
HETATM   21  C   UNL     1      44.156 -18.007   2.540  1.00  0.00     0.037 A 
HETATM   22  C   UNL     1      43.721 -18.829   3.585  1.00  0.00     0.102 A 
HETATM   23  C   UNL     1      42.549 -18.519   4.287  1.00  0.00     0.037 A 
HETATM   24  C   UNL     1      41.814 -17.378   3.945  1.00  0.00     0.012 A 
BRANCH  22  25
HETATM   25  N   UNL     1      44.513 -20.009   3.961  1.00  0.00    -0.116 N 
HETATM   26  O   UNL     1      44.693 -20.873   3.092  1.00  0.00    -0.532 OA
HETATM   27  O   UNL     1      44.975 -20.045   5.107  1.00  0.00    -0.532 OA
ENDBRANCH  22  25
ENDBRANCH   2  19
BRANCH   6  28
HETATM   28  O   UNL     1      42.053 -11.748   3.328  1.00  0.00    -0.355 OA
HETATM   29  H   UNL     1      41.984 -11.107   2.581  1.00  0.00     0.218 HD
ENDBRANCH   6  28
BRANCH   3  30
HETATM   30  C   UNL     1      41.901 -15.355  -0.035  1.00  0.00     0.155 C 
BRANCH  30  31
HETATM   31  C   UNL     1      40.522 -15.174  -0.735  1.00  0.00     0.254 C 
BRANCH  31  32
HETATM   32  N   UNL     1      40.572 -14.162  -1.896  1.00  0.00    -0.066 N 
HETATM   33  H   UNL     1      41.423 -13.604  -1.718  1.00  0.00     0.280 HD
HETATM   34  C   UNL     1      39.415 -13.154  -1.870  1.00  0.00     0.262 C 
HETATM   35  C   UNL     1      38.111 -13.724  -2.481  1.00  0.00     0.260 C 
HETATM   36  N   UNL     1      38.354 -14.278  -3.862  1.00  0.00    -0.072 N 
HETATM   37  H   UNL     1      38.544 -13.528  -4.545  1.00  0.00     0.277 HD
HETATM   38  H   UNL     1      37.480 -14.715  -4.204  1.00  0.00     0.277 HD
HETATM   39  C   UNL     1      39.439 -15.330  -3.896  1.00  0.00     0.260 C 
HETATM   40  C   UNL     1      40.758 -14.778  -3.295  1.00  0.00     0.262 C 
ENDBRANCH  31  32
ENDBRANCH  30  31
ENDBRANCH   3  30
TORSDOF 10
ENDMDL
MODEL 9
REMARK VINA RESULT:      -7.2      4.300      7.865
REMARK  10 active torsions:
REMARK  status: ('A' for Active; 'I' for Inactive)
REMARK    1  A    between atoms: C_2  and  O_3 
REMARK    2  A    between atoms: O_3  and  C_4 
REMARK    3  A    between atoms: C_7  and  C_8 
REMARK    4  A    between atoms: C_8  and  C_9 
REMARK    5  A    between atoms: C_10  and  C_11 
REMARK    6  A    between atoms: C_14  and  N_15 
REMARK    7  A    between atoms: N_20  and  C_21 
REMARK    8  A    between atoms: C_21  and  C_22 
REMARK    9  A    between atoms: C_22  and  N_23 
REMARK   10  A    between atoms: C_34  and  O_35 
ROOT
HETATM    1  C   UNL     1      39.672 -11.880   3.909  1.00  0.00     0.059 C 
HETATM    2  C   UNL     1      40.947 -12.038   4.673  1.00  0.00     0.161 C 
HETATM    3  N   UNL     1      40.617 -11.372   5.936  1.00  0.00    -0.332 N 
HETATM    4  C   UNL     1      39.434 -10.663   5.801  1.00  0.00     0.278 C 
HETATM    5  O   UNL     1      39.029  -9.821   6.586  1.00  0.00    -0.265 OA
HETATM    6  C   UNL     1      38.789 -11.103   4.554  1.00  0.00     0.146 C 
ENDROOT
BRANCH   1   7
HETATM    7  C   UNL     1      39.278 -12.501   2.628  1.00  0.00     0.193 C 
HETATM    8  O   UNL     1      38.390 -11.964   1.965  1.00  0.00    -0.287 OA
BRANCH   7   9
HETATM    9  C   UNL     1      39.902 -13.748   2.134  1.00  0.00     0.015 A 
HETATM   10  C   UNL     1      39.460 -15.018   2.520  1.00  0.00     0.018 A 
HETATM   11  C   UNL     1      40.127 -16.160   2.062  1.00  0.00     0.038 A 
HETATM   12  C   UNL     1      41.246 -16.031   1.240  1.00  0.00     0.069 A 
HETATM   13  C   UNL     1      41.719 -14.770   0.893  1.00  0.00     0.038 A 
HETATM   14  C   UNL     1      41.044 -13.628   1.331  1.00  0.00     0.018 A 
BRANCH  12  15
HETATM   15  O   UNL     1      41.996 -17.107   0.865  1.00  0.00    -0.347 OA
BRANCH  15  16
HETATM   16  C   UNL     1      42.862 -17.608   1.894  1.00  0.00     0.120 C 
HETATM   17  C   UNL     1      44.296 -17.200   1.570  1.00  0.00     0.040 C 
HETATM   18  C   UNL     1      42.732 -19.128   1.895  1.00  0.00     0.040 C 
ENDBRANCH  15  16
ENDBRANCH  12  15
ENDBRANCH   7   9
ENDBRANCH   1   7
BRANCH   2  19
HETATM   19  C   UNL     1      41.451 -13.448   4.896  1.00  0.00    -0.030 A 
HETATM   20  C   UNL     1      40.659 -14.348   5.636  1.00  0.00     0.012 A 
HETATM   21  C   UNL     1      41.075 -15.664   5.854  1.00  0.00     0.037 A 
HETATM   22  C   UNL     1      42.300 -16.095   5.333  1.00  0.00     0.102 A 
HETATM   23  C   UNL     1      43.103 -15.215   4.596  1.00  0.00     0.037 A 
HETATM   24  C   UNL     1      42.674 -13.901   4.375  1.00  0.00     0.012 A 
BRANCH  22  25
HETATM   25  N   UNL     1      42.731 -17.484   5.542  1.00  0.00    -0.116 N 
HETATM   26  O   UNL     1      41.959 -18.380   5.176  1.00  0.00    -0.532 OA
HETATM   27  O   UNL     1      43.848 -17.666   6.040  1.00  0.00    -0.532 OA
ENDBRANCH  22  25
ENDBRANCH   2  19
BRANCH   6  28
HETATM   28  O   UNL     1      37.522 -10.746   4.198  1.00  0.00    -0.355 OA
HETATM   29  H   UNL     1      37.490  -9.760   4.160  1.00  0.00     0.218 HD
ENDBRANCH   6  28
BRANCH   3  30
HETATM   30  C   UNL     1      41.622 -11.011   6.929  1.00  0.00     0.155 C 
BRANCH  30  31
HETATM   31  C   UNL     1      41.120 -11.085   8.401  1.00  0.00     0.254 C 
BRANCH  31  32
HETATM   32  N   UNL     1      41.970 -10.233   9.363  1.00  0.00    -0.066 N 
HETATM   33  H   UNL     1      42.021  -9.305   8.912  1.00  0.00     0.280 HD
HETATM   34  C   UNL     1      43.424 -10.711   9.471  1.00  0.00     0.262 C 
HETATM   35  C   UNL     1      43.591 -11.901  10.448  1.00  0.00     0.260 C 
HETATM   36  N   UNL     1      42.992 -11.587  11.796  1.00  0.00    -0.072 N 
HETATM   37  H   UNL     1      43.545 -10.877  12.302  1.00  0.00     0.277 HD
HETATM   38  H   UNL     1      43.058 -12.430  12.394  1.00  0.00     0.277 HD
HETATM   39  C   UNL     1      41.537 -11.187  11.719  1.00  0.00     0.260 C 
HETATM   40  C   UNL     1      41.346  -9.992  10.750  1.00  0.00     0.262 C 
ENDBRANCH  31  32
ENDBRANCH  30  31
ENDBRANCH   3  30
TORSDOF 10
ENDMDL
MODEL 10
REMARK VINA RESULT:      -7.0      2.448      7.942
REMARK  10 active torsions:
REMARK  status: ('A' for Active; 'I' for Inactive)
REMARK    1  A    between atoms: C_2  and  O_3 
REMARK    2  A    between atoms: O_3  and  C_4 
REMARK    3  A    between atoms: C_7  and  C_8 
REMARK    4  A    between atoms: C_8  and  C_9 
REMARK    5  A    between atoms: C_10  and  C_11 
REMARK    6  A    between atoms: C_14  and  N_15 
REMARK    7  A    between atoms: N_20  and  C_21 
REMARK    8  A    between atoms: C_21  and  C_22 
REMARK    9  A    between atoms: C_22  and  N_23 
REMARK   10  A    between atoms: C_34  and  O_35 
ROOT
HETATM    1  C   UNL     1      41.062 -15.436   4.336  1.00  0.00     0.059 C 
HETATM    2  C   UNL     1      42.203 -15.702   3.407  1.00  0.00     0.161 C 
HETATM    3  N   UNL     1      42.557 -17.079   3.765  1.00  0.00    -0.332 N 
HETATM    4  C   UNL     1      41.917 -17.442   4.939  1.00  0.00     0.278 C 
HETATM    5  O   UNL     1      42.194 -18.420   5.614  1.00  0.00    -0.265 OA
HETATM    6  C   UNL     1      40.879 -16.436   5.212  1.00  0.00     0.146 C 
ENDROOT
BRANCH   1   7
HETATM    7  C   UNL     1      40.130 -14.292   4.351  1.00  0.00     0.193 C 
HETATM    8  O   UNL     1      39.916 -13.724   5.422  1.00  0.00    -0.287 OA
BRANCH   7   9
HETATM    9  C   UNL     1      39.438 -13.824   3.130  1.00  0.00     0.015 A 
HETATM   10  C   UNL     1      38.803 -14.697   2.240  1.00  0.00     0.018 A 
HETATM   11  C   UNL     1      38.214 -14.199   1.072  1.00  0.00     0.038 A 
HETATM   12  C   UNL     1      38.282 -12.837   0.783  1.00  0.00     0.069 A 
HETATM   13  C   UNL     1      38.955 -11.971   1.639  1.00  0.00     0.038 A 
HETATM   14  C   UNL     1      39.526 -12.461   2.815  1.00  0.00     0.018 A 
BRANCH  12  15
HETATM   15  O   UNL     1      37.826 -12.324  -0.396  1.00  0.00    -0.347 OA
BRANCH  15  16
HETATM   16  C   UNL     1      38.638 -12.653  -1.534  1.00  0.00     0.120 C 
HETATM   17  C   UNL     1      39.279 -11.375  -2.066  1.00  0.00     0.040 C 
HETATM   18  C   UNL     1      37.716 -13.261  -2.587  1.00  0.00     0.040 C 
ENDBRANCH  15  16
ENDBRANCH  12  15
ENDBRANCH   7   9
ENDBRANCH   1   7
BRANCH   2  19
HETATM   19  C   UNL     1      41.938 -15.557   1.925  1.00  0.00    -0.030 A 
HETATM   20  C   UNL     1      41.444 -16.663   1.206  1.00  0.00     0.012 A 
HETATM   21  C   UNL     1      41.170 -16.572  -0.161  1.00  0.00     0.037 A 
HETATM   22  C   UNL     1      41.393 -15.363  -0.829  1.00  0.00     0.102 A 
HETATM   23  C   UNL     1      41.885 -14.251  -0.133  1.00  0.00     0.037 A 
HETATM   24  C   UNL     1      42.149 -14.349   1.238  1.00  0.00     0.012 A 
BRANCH  22  25
HETATM   25  N   UNL     1      41.085 -15.257  -2.262  1.00  0.00    -0.116 N 
HETATM   26  O   UNL     1      41.486 -14.247  -2.857  1.00  0.00    -0.532 OA
HETATM   27  O   UNL     1      40.476 -16.197  -2.786  1.00  0.00    -0.532 OA
ENDBRANCH  22  25
ENDBRANCH   2  19
BRANCH   6  28
HETATM   28  O   UNL     1      39.939 -16.574   6.189  1.00  0.00    -0.355 OA
HETATM   29  H   UNL     1      40.207 -15.998   6.945  1.00  0.00     0.218 HD
ENDBRANCH   6  28
BRANCH   3  30
HETATM   30  C   UNL     1      43.795 -17.717   3.333  1.00  0.00     0.155 C 
BRANCH  30  31
HETATM   31  C   UNL     1      43.636 -19.213   2.931  1.00  0.00     0.254 C 
BRANCH  31  32
HETATM   32  N   UNL     1      44.943 -20.014   3.086  1.00  0.00    -0.066 N 
HETATM   33  H   UNL     1      45.672 -19.403   2.683  1.00  0.00     0.280 HD
HETATM   34  C   UNL     1      44.972 -21.293   2.238  1.00  0.00     0.262 C 
HETATM   35  C   UNL     1      44.222 -22.471   2.905  1.00  0.00     0.260 C 
HETATM   36  N   UNL     1      44.718 -22.707   4.309  1.00  0.00    -0.072 N 
HETATM   37  H   UNL     1      45.676 -23.094   4.315  1.00  0.00     0.277 HD
HETATM   38  H   UNL     1      44.144 -23.450   4.745  1.00  0.00     0.277 HD
HETATM   39  C   UNL     1      44.626 -21.478   5.185  1.00  0.00     0.260 C 
HETATM   40  C   UNL     1      45.377 -20.285   4.538  1.00  0.00     0.262 C 
ENDBRANCH  31  32
ENDBRANCH  30  31
ENDBRANCH   3  30
TORSDOF 10
ENDMDL
