MODEL 1
REMARK VINA RESULT:      -8.0      0.000      0.000
REMARK  5 active torsions:
REMARK  status: ('A' for Active; 'I' for Inactive)
REMARK    1  A    between atoms: C_2  and  C_3 
REMARK       I    between atoms: C_3  and  N_4 
REMARK    2  A    between atoms: N_4  and  C_5 
REMARK    3  A    between atoms: C_5  and  C_6 
REMARK    4  A    between atoms: C_5  and  C_17 
REMARK    5  A    between atoms: C_7  and  O_8 
ROOT
HETATM    1  C   UNL     1      43.922 -18.570   4.225  1.00  0.00     0.154 C 
ENDROOT
BRANCH   1   2
HETATM    2  N   UNL     1      43.697 -18.659   5.661  1.00  0.00    -0.348 N 
HETATM    3  C   UNL     1      44.685 -18.323   6.555  1.00  0.00     0.218 C 
HETATM    4  O   UNL     1      45.803 -17.953   6.200  1.00  0.00    -0.274 OA
HETATM    5  H   UNL     1      42.743 -18.593   5.979  1.00  0.00     0.163 HD
BRANCH   3   6
HETATM    6  C   UNL     1      44.277 -18.354   8.013  1.00  0.00     0.098 C 
HETATM    7  C   UNL     1      43.398 -17.187   8.431  1.00  0.00     0.014 C 
ENDBRANCH   3   6
ENDBRANCH   1   2
BRANCH   1   8
HETATM    8  C   UNL     1      42.826 -17.717   3.598  1.00  0.00     0.005 A 
HETATM    9  C   UNL     1      43.072 -16.926   2.456  1.00  0.00     0.103 A 
HETATM   10  C   UNL     1      42.083 -16.134   1.845  1.00  0.00     0.100 A 
HETATM   11  C   UNL     1      40.802 -16.128   2.438  1.00  0.00    -0.004 A 
HETATM   12  N   UNL     1      42.342 -15.392   0.742  1.00  0.00    -0.257 NA
HETATM   13  C   UNL     1      40.543 -16.886   3.590  1.00  0.00     0.014 A 
HETATM   14  C   UNL     1      39.796 -15.345   1.854  1.00  0.00     0.015 A 
HETATM   15  C   UNL     1      41.545 -17.666   4.166  1.00  0.00     0.013 A 
HETATM   16  C   UNL     1      40.071 -14.595   0.719  1.00  0.00     0.020 A 
HETATM   17  C   UNL     1      41.350 -14.652   0.205  1.00  0.00     0.117 A 
BRANCH   9  18
HETATM   18  O   UNL     1      44.331 -16.927   1.893  1.00  0.00    -0.358 OA
HETATM   19  H   UNL     1      44.994 -16.887   2.618  1.00  0.00     0.218 HD
ENDBRANCH   9  18
ENDBRANCH   1   8
BRANCH   1  20
HETATM   20  C   UNL     1      44.097 -19.936   3.557  1.00  0.00    -0.031 A 
HETATM   21  C   UNL     1      44.657 -20.981   4.316  1.00  0.00     0.009 A 
HETATM   22  C   UNL     1      44.849 -22.249   3.765  1.00  0.00     0.001 A 
HETATM   23  C   UNL     1      44.490 -22.493   2.443  1.00  0.00     0.000 A 
HETATM   24  C   UNL     1      43.941 -21.471   1.673  1.00  0.00     0.001 A 
HETATM   25  C   UNL     1      43.743 -20.201   2.225  1.00  0.00     0.009 A 
ENDBRANCH   1  20
TORSDOF 5
ENDMDL
MODEL 2
REMARK VINA RESULT:      -7.9      1.221      2.031
REMARK  5 active torsions:
REMARK  status: ('A' for Active; 'I' for Inactive)
REMARK    1  A    between atoms: C_2  and  C_3 
REMARK       I    between atoms: C_3  and  N_4 
REMARK    2  A    between atoms: N_4  and  C_5 
REMARK    3  A    between atoms: C_5  and  C_6 
REMARK    4  A    between atoms: C_5  and  C_17 
REMARK    5  A    between atoms: C_7  and  O_8 
ROOT
HETATM    1  C   UNL     1      44.276 -18.573   4.089  1.00  0.00     0.154 C 
ENDROOT
BRANCH   1   2
HETATM    2  N   UNL     1      43.756 -18.427   5.442  1.00  0.00    -0.348 N 
HETATM    3  C   UNL     1      44.591 -18.148   6.496  1.00  0.00     0.218 C 
HETATM    4  O   UNL     1      45.807 -18.026   6.365  1.00  0.00    -0.274 OA
HETATM    5  H   UNL     1      42.789 -18.156   5.533  1.00  0.00     0.163 HD
BRANCH   3   6
HETATM    6  C   UNL     1      43.901 -17.912   7.824  1.00  0.00     0.098 C 
HETATM    7  C   UNL     1      42.608 -17.120   7.713  1.00  0.00     0.014 C 
ENDBRANCH   3   6
ENDBRANCH   1   2
BRANCH   1   8
HETATM    8  C   UNL     1      43.487 -17.671   3.149  1.00  0.00     0.005 A 
HETATM    9  C   UNL     1      42.128 -17.373   3.383  1.00  0.00     0.103 A 
HETATM   10  C   UNL     1      41.371 -16.538   2.543  1.00  0.00     0.100 A 
HETATM   11  C   UNL     1      42.016 -16.008   1.405  1.00  0.00    -0.004 A 
HETATM   12  N   UNL     1      40.070 -16.258   2.796  1.00  0.00    -0.257 NA
HETATM   13  C   UNL     1      43.360 -16.313   1.138  1.00  0.00     0.014 A 
HETATM   14  C   UNL     1      41.287 -15.174   0.546  1.00  0.00     0.015 A 
HETATM   15  C   UNL     1      44.084 -17.139   1.997  1.00  0.00     0.013 A 
HETATM   16  C   UNL     1      39.956 -14.889   0.821  1.00  0.00     0.020 A 
HETATM   17  C   UNL     1      39.398 -15.450   1.950  1.00  0.00     0.117 A 
BRANCH   9  18
HETATM   18  O   UNL     1      41.501 -17.908   4.490  1.00  0.00    -0.358 OA
HETATM   19  H   UNL     1      41.277 -17.173   5.103  1.00  0.00     0.218 HD
ENDBRANCH   9  18
ENDBRANCH   1   8
BRANCH   1  20
HETATM   20  C   UNL     1      44.353 -20.029   3.627  1.00  0.00    -0.031 A 
HETATM   21  C   UNL     1      43.969 -20.330   2.307  1.00  0.00     0.009 A 
HETATM   22  C   UNL     1      44.009 -21.639   1.825  1.00  0.00     0.001 A 
HETATM   23  C   UNL     1      44.429 -22.673   2.657  1.00  0.00     0.000 A 
HETATM   24  C   UNL     1      44.806 -22.398   3.968  1.00  0.00     0.001 A 
HETATM   25  C   UNL     1      44.771 -21.086   4.452  1.00  0.00     0.009 A 
ENDBRANCH   1  20
TORSDOF 5
ENDMDL
MODEL 3
REMARK VINA RESULT:      -7.8      3.202      6.418
REMARK  5 active torsions:
REMARK  status: ('A' for Active; 'I' for Inactive)
REMARK    1  A    between atoms: C_2  and  C_3 
REMARK       I    between atoms: C_3  and  N_4 
REMARK    2  A    between atoms: N_4  and  C_5 
REMARK    3  A    between atoms: C_5  and  C_6 
REMARK    4  A    between atoms: C_5  and  C_17 
REMARK    5  A    between atoms: C_7  and  O_8 
ROOT
HETATM    1  C   UNL     1      43.079 -14.786   5.820  1.00  0.00     0.154 C 
ENDROOT
BRANCH   1   2
HETATM    2  N   UNL     1      44.304 -14.007   5.935  1.00  0.00    -0.348 N 
HETATM    3  C   UNL     1      44.925 -13.840   7.149  1.00  0.00     0.218 C 
HETATM    4  O   UNL     1      44.480 -14.314   8.193  1.00  0.00    -0.274 OA
HETATM    5  H   UNL     1      44.874 -13.927   5.108  1.00  0.00     0.163 HD
BRANCH   3   6
HETATM    6  C   UNL     1      46.248 -13.103   7.104  1.00  0.00     0.098 C 
HETATM    7  C   UNL     1      46.446 -12.123   8.249  1.00  0.00     0.014 C 
ENDBRANCH   3   6
ENDBRANCH   1   2
BRANCH   1   8
HETATM    8  C   UNL     1      43.352 -16.028   4.979  1.00  0.00     0.005 A 
HETATM    9  C   UNL     1      43.929 -17.184   5.542  1.00  0.00     0.103 A 
HETATM   10  C   UNL     1      44.187 -18.351   4.800  1.00  0.00     0.100 A 
HETATM   11  C   UNL     1      43.868 -18.327   3.426  1.00  0.00    -0.004 A 
HETATM   12  N   UNL     1      44.733 -19.453   5.367  1.00  0.00    -0.257 NA
HETATM   13  C   UNL     1      43.316 -17.177   2.839  1.00  0.00     0.014 A 
HETATM   14  C   UNL     1      44.116 -19.473   2.658  1.00  0.00     0.015 A 
HETATM   15  C   UNL     1      43.067 -16.040   3.606  1.00  0.00     0.013 A 
HETATM   16  C   UNL     1      44.668 -20.600   3.252  1.00  0.00     0.020 A 
HETATM   17  C   UNL     1      44.956 -20.540   4.599  1.00  0.00     0.117 A 
BRANCH   9  18
HETATM   18  O   UNL     1      44.253 -17.193   6.883  1.00  0.00    -0.358 OA
HETATM   19  H   UNL     1      45.230 -17.263   6.965  1.00  0.00     0.218 HD
ENDBRANCH   9  18
ENDBRANCH   1   8
BRANCH   1  20
HETATM   20  C   UNL     1      41.885 -13.962   5.332  1.00  0.00    -0.031 A 
HETATM   21  C   UNL     1      40.591 -14.394   5.679  1.00  0.00     0.009 A 
HETATM   22  C   UNL     1      39.460 -13.692   5.262  1.00  0.00     0.001 A 
HETATM   23  C   UNL     1      39.602 -12.546   4.484  1.00  0.00     0.000 A 
HETATM   24  C   UNL     1      40.872 -12.106   4.124  1.00  0.00     0.001 A 
HETATM   25  C   UNL     1      42.007 -12.806   4.545  1.00  0.00     0.009 A 
ENDBRANCH   1  20
TORSDOF 5
ENDMDL
MODEL 4
REMARK VINA RESULT:      -7.7      2.088      5.960
REMARK  5 active torsions:
REMARK  status: ('A' for Active; 'I' for Inactive)
REMARK    1  A    between atoms: C_2  and  C_3 
REMARK       I    between atoms: C_3  and  N_4 
REMARK    2  A    between atoms: N_4  and  C_5 
REMARK    3  A    between atoms: C_5  and  C_6 
REMARK    4  A    between atoms: C_5  and  C_17 
REMARK    5  A    between atoms: C_7  and  O_8 
ROOT
HETATM    1  C   UNL     1      42.393 -16.420   3.907  1.00  0.00     0.154 C 
ENDROOT
BRANCH   1   2
HETATM    2  N   UNL     1      43.483 -15.615   4.440  1.00  0.00    -0.348 N 
HETATM    3  C   UNL     1      43.265 -14.703   5.443  1.00  0.00     0.218 C 
HETATM    4  O   UNL     1      42.153 -14.503   5.928  1.00  0.00    -0.274 OA
HETATM    5  H   UNL     1      44.415 -15.989   4.348  1.00  0.00     0.163 HD
BRANCH   3   6
HETATM    6  C   UNL     1      44.507 -14.018   5.977  1.00  0.00     0.098 C 
HETATM    7  C   UNL     1      44.598 -14.009   7.495  1.00  0.00     0.014 C 
ENDBRANCH   3   6
ENDBRANCH   1   2
BRANCH   1   8
HETATM    8  C   UNL     1      42.921 -17.804   3.548  1.00  0.00     0.005 A 
HETATM    9  C   UNL     1      43.478 -18.654   4.526  1.00  0.00     0.103 A 
HETATM   10  C   UNL     1      43.966 -19.941   4.234  1.00  0.00     0.100 A 
HETATM   11  C   UNL     1      43.908 -20.365   2.890  1.00  0.00    -0.004 A 
HETATM   12  N   UNL     1      44.487 -20.742   5.193  1.00  0.00    -0.257 NA
HETATM   13  C   UNL     1      43.382 -19.525   1.896  1.00  0.00     0.014 A 
HETATM   14  C   UNL     1      44.390 -21.641   2.566  1.00  0.00     0.015 A 
HETATM   15  C   UNL     1      42.900 -18.258   2.221  1.00  0.00     0.013 A 
HETATM   16  C   UNL     1      44.914 -22.457   3.560  1.00  0.00     0.020 A 
HETATM   17  C   UNL     1      44.940 -21.966   4.848  1.00  0.00     0.117 A 
BRANCH   9  18
HETATM   18  O   UNL     1      43.545 -18.225   5.835  1.00  0.00    -0.358 OA
HETATM   19  H   UNL     1      42.629 -18.071   6.157  1.00  0.00     0.218 HD
ENDBRANCH   9  18
ENDBRANCH   1   8
BRANCH   1  20
HETATM   20  C   UNL     1      41.640 -15.734   2.766  1.00  0.00    -0.031 A 
HETATM   21  C   UNL     1      40.245 -15.908   2.688  1.00  0.00     0.009 A 
HETATM   22  C   UNL     1      39.499 -15.313   1.669  1.00  0.00     0.001 A 
HETATM   23  C   UNL     1      40.136 -14.539   0.704  1.00  0.00     0.000 A 
HETATM   24  C   UNL     1      41.516 -14.360   0.758  1.00  0.00     0.001 A 
HETATM   25  C   UNL     1      42.264 -14.950   1.781  1.00  0.00     0.009 A 
ENDBRANCH   1  20
TORSDOF 5
ENDMDL
MODEL 5
REMARK VINA RESULT:      -7.7      3.021      3.991
REMARK  5 active torsions:
REMARK  status: ('A' for Active; 'I' for Inactive)
REMARK    1  A    between atoms: C_2  and  C_3 
REMARK       I    between atoms: C_3  and  N_4 
REMARK    2  A    between atoms: N_4  and  C_5 
REMARK    3  A    between atoms: C_5  and  C_6 
REMARK    4  A    between atoms: C_5  and  C_17 
REMARK    5  A    between atoms: C_7  and  O_8 
ROOT
HETATM    1  C   UNL     1      43.973 -15.447   5.992  1.00  0.00     0.154 C 
ENDROOT
BRANCH   1   2
HETATM    2  N   UNL     1      43.972 -14.629   7.197  1.00  0.00    -0.348 N 
HETATM    3  C   UNL     1      44.917 -13.651   7.390  1.00  0.00     0.218 C 
HETATM    4  O   UNL     1      45.814 -13.425   6.578  1.00  0.00    -0.274 OA
HETATM    5  H   UNL     1      43.093 -14.524   7.678  1.00  0.00     0.163 HD
BRANCH   3   6
HETATM    6  C   UNL     1      44.729 -12.803   8.631  1.00  0.00     0.098 C 
HETATM    7  C   UNL     1      45.846 -11.798   8.864  1.00  0.00     0.014 C 
ENDBRANCH   3   6
ENDBRANCH   1   2
BRANCH   1   8
HETATM    8  C   UNL     1      42.862 -14.973   5.064  1.00  0.00     0.005 A 
HETATM    9  C   UNL     1      43.123 -14.092   3.995  1.00  0.00     0.103 A 
HETATM   10  C   UNL     1      42.125 -13.640   3.112  1.00  0.00     0.100 A 
HETATM   11  C   UNL     1      40.806 -14.083   3.346  1.00  0.00    -0.004 A 
HETATM   12  N   UNL     1      42.404 -12.802   2.085  1.00  0.00    -0.257 NA
HETATM   13  C   UNL     1      40.519 -14.939   4.421  1.00  0.00     0.014 A 
HETATM   14  C   UNL     1      39.788 -13.649   2.486  1.00  0.00     0.015 A 
HETATM   15  C   UNL     1      41.534 -15.374   5.272  1.00  0.00     0.013 A 
HETATM   16  C   UNL     1      40.088 -12.796   1.432  1.00  0.00     0.020 A 
HETATM   17  C   UNL     1      41.401 -12.405   1.275  1.00  0.00     0.117 A 
BRANCH   9  18
HETATM   18  O   UNL     1      44.413 -13.651   3.782  1.00  0.00    -0.358 OA
HETATM   19  H   UNL     1      44.979 -13.988   4.512  1.00  0.00     0.218 HD
ENDBRANCH   9  18
ENDBRANCH   1   8
BRANCH   1  20
HETATM   20  C   UNL     1      43.933 -16.948   6.284  1.00  0.00    -0.031 A 
HETATM   21  C   UNL     1      44.205 -17.840   5.229  1.00  0.00     0.009 A 
HETATM   22  C   UNL     1      44.180 -19.221   5.427  1.00  0.00     0.001 A 
HETATM   23  C   UNL     1      43.875 -19.737   6.683  1.00  0.00     0.000 A 
HETATM   24  C   UNL     1      43.596 -18.873   7.739  1.00  0.00     0.001 A 
HETATM   25  C   UNL     1      43.626 -17.488   7.544  1.00  0.00     0.009 A 
ENDBRANCH   1  20
TORSDOF 5
ENDMDL
MODEL 6
REMARK VINA RESULT:      -7.7      2.442      3.221
REMARK  5 active torsions:
REMARK  status: ('A' for Active; 'I' for Inactive)
REMARK    1  A    between atoms: C_2  and  C_3 
REMARK       I    between atoms: C_3  and  N_4 
REMARK    2  A    between atoms: N_4  and  C_5 
REMARK    3  A    between atoms: C_5  and  C_6 
REMARK    4  A    between atoms: C_5  and  C_17 
REMARK    5  A    between atoms: C_7  and  O_8 
ROOT
HETATM    1  C   UNL     1      43.134 -15.801   3.297  1.00  0.00     0.154 C 
ENDROOT
BRANCH   1   2
HETATM    2  N   UNL     1      43.167 -15.430   4.704  1.00  0.00    -0.348 N 
HETATM    3  C   UNL     1      43.850 -14.316   5.128  1.00  0.00     0.218 C 
HETATM    4  O   UNL     1      44.478 -13.590   4.359  1.00  0.00    -0.274 OA
HETATM    5  H   UNL     1      42.404 -15.752   5.280  1.00  0.00     0.163 HD
BRANCH   3   6
HETATM    6  C   UNL     1      43.706 -13.987   6.600  1.00  0.00     0.098 C 
HETATM    7  C   UNL     1      45.025 -13.690   7.296  1.00  0.00     0.014 C 
ENDBRANCH   3   6
ENDBRANCH   1   2
BRANCH   1   8
HETATM    8  C   UNL     1      41.795 -15.385   2.700  1.00  0.00     0.005 A 
HETATM    9  C   UNL     1      41.606 -14.106   2.137  1.00  0.00     0.103 A 
HETATM   10  C   UNL     1      40.388 -13.691   1.569  1.00  0.00     0.100 A 
HETATM   11  C   UNL     1      39.314 -14.606   1.602  1.00  0.00    -0.004 A 
HETATM   12  N   UNL     1      40.235 -12.461   1.024  1.00  0.00    -0.257 NA
HETATM   13  C   UNL     1      39.473 -15.875   2.181  1.00  0.00     0.014 A 
HETATM   14  C   UNL     1      38.086 -14.221   1.047  1.00  0.00     0.015 A 
HETATM   15  C   UNL     1      40.696 -16.256   2.729  1.00  0.00     0.013 A 
HETATM   16  C   UNL     1      37.944 -12.960   0.484  1.00  0.00     0.020 A 
HETATM   17  C   UNL     1      39.040 -12.123   0.497  1.00  0.00     0.117 A 
BRANCH   9  18
HETATM   18  O   UNL     1      42.656 -13.212   2.123  1.00  0.00    -0.358 OA
HETATM   19  H   UNL     1      43.389 -13.604   1.598  1.00  0.00     0.218 HD
ENDBRANCH   9  18
ENDBRANCH   1   8
BRANCH   1  20
HETATM   20  C   UNL     1      43.488 -17.269   3.052  1.00  0.00    -0.031 A 
HETATM   21  C   UNL     1      43.721 -18.093   4.170  1.00  0.00     0.009 A 
HETATM   22  C   UNL     1      44.054 -19.439   4.016  1.00  0.00     0.001 A 
HETATM   23  C   UNL     1      44.166 -19.985   2.741  1.00  0.00     0.000 A 
HETATM   24  C   UNL     1      43.946 -19.187   1.623  1.00  0.00     0.001 A 
HETATM   25  C   UNL     1      43.608 -17.838   1.774  1.00  0.00     0.009 A 
ENDBRANCH   1  20
TORSDOF 5
ENDMDL
MODEL 7
REMARK VINA RESULT:      -7.4      2.521      6.877
REMARK  5 active torsions:
REMARK  status: ('A' for Active; 'I' for Inactive)
REMARK    1  A    between atoms: C_2  and  C_3 
REMARK       I    between atoms: C_3  and  N_4 
REMARK    2  A    between atoms: N_4  and  C_5 
REMARK    3  A    between atoms: C_5  and  C_6 
REMARK    4  A    between atoms: C_5  and  C_17 
REMARK    5  A    between atoms: C_7  and  O_8 
ROOT
HETATM    1  C   UNL     1      40.717 -15.416   0.837  1.00  0.00     0.154 C 
ENDROOT
BRANCH   1   2
HETATM    2  N   UNL     1      40.586 -14.271   1.726  1.00  0.00    -0.348 N 
HETATM    3  C   UNL     1      39.360 -13.703   1.974  1.00  0.00     0.218 C 
HETATM    4  O   UNL     1      38.323 -14.111   1.454  1.00  0.00    -0.274 OA
HETATM    5  H   UNL     1      41.302 -14.150   2.425  1.00  0.00     0.163 HD
BRANCH   3   6
HETATM    6  C   UNL     1      39.356 -12.592   3.004  1.00  0.00     0.098 C 
HETATM    7  C   UNL     1      39.746 -13.048   4.401  1.00  0.00     0.014 C 
ENDBRANCH   3   6
ENDBRANCH   1   2
BRANCH   1   8
HETATM    8  C   UNL     1      41.694 -16.415   1.446  1.00  0.00     0.005 A 
HETATM    9  C   UNL     1      41.544 -16.874   2.771  1.00  0.00     0.103 A 
HETATM   10  C   UNL     1      42.419 -17.801   3.364  1.00  0.00     0.100 A 
HETATM   11  C   UNL     1      43.504 -18.257   2.585  1.00  0.00    -0.004 A 
HETATM   12  N   UNL     1      42.248 -18.235   4.636  1.00  0.00    -0.257 NA
HETATM   13  C   UNL     1      43.686 -17.793   1.273  1.00  0.00     0.014 A 
HETATM   14  C   UNL     1      44.396 -19.180   3.148  1.00  0.00     0.015 A 
HETATM   15  C   UNL     1      42.795 -16.879   0.713  1.00  0.00     0.013 A 
HETATM   16  C   UNL     1      44.205 -19.623   4.450  1.00  0.00     0.020 A 
HETATM   17  C   UNL     1      43.124 -19.125   5.147  1.00  0.00     0.117 A 
BRANCH   9  18
HETATM   18  O   UNL     1      40.490 -16.411   3.532  1.00  0.00    -0.358 OA
HETATM   19  H   UNL     1      40.855 -15.897   4.286  1.00  0.00     0.218 HD
ENDBRANCH   9  18
ENDBRANCH   1   8
BRANCH   1  20
HETATM   20  C   UNL     1      41.055 -15.025  -0.603  1.00  0.00    -0.031 A 
HETATM   21  C   UNL     1      41.668 -13.778  -0.829  1.00  0.00     0.009 A 
HETATM   22  C   UNL     1      41.997 -13.359  -2.119  1.00  0.00     0.001 A 
HETATM   23  C   UNL     1      41.712 -14.176  -3.208  1.00  0.00     0.000 A 
HETATM   24  C   UNL     1      41.100 -15.411  -3.008  1.00  0.00     0.001 A 
HETATM   25  C   UNL     1      40.774 -15.835  -1.716  1.00  0.00     0.009 A 
ENDBRANCH   1  20
TORSDOF 5
ENDMDL
MODEL 8
REMARK VINA RESULT:      -7.3      3.732      5.503
REMARK  5 active torsions:
REMARK  status: ('A' for Active; 'I' for Inactive)
REMARK    1  A    between atoms: C_2  and  C_3 
REMARK       I    between atoms: C_3  and  N_4 
REMARK    2  A    between atoms: N_4  and  C_5 
REMARK    3  A    between atoms: C_5  and  C_6 
REMARK    4  A    between atoms: C_5  and  C_17 
REMARK    5  A    between atoms: C_7  and  O_8 
ROOT
HETATM    1  C   UNL     1      41.901 -16.812   4.726  1.00  0.00     0.154 C 
ENDROOT
BRANCH   1   2
HETATM    2  N   UNL     1      42.445 -17.113   3.409  1.00  0.00    -0.348 N 
HETATM    3  C   UNL     1      41.626 -17.208   2.310  1.00  0.00     0.218 C 
HETATM    4  O   UNL     1      40.406 -17.067   2.377  1.00  0.00    -0.274 OA
HETATM    5  H   UNL     1      43.411 -16.873   3.247  1.00  0.00     0.163 HD
BRANCH   3   6
HETATM    6  C   UNL     1      42.337 -17.413   0.988  1.00  0.00     0.098 C 
HETATM    7  C   UNL     1      43.836 -17.628   1.123  1.00  0.00     0.014 C 
ENDBRANCH   3   6
ENDBRANCH   1   2
BRANCH   1   8
HETATM    8  C   UNL     1      41.786 -15.302   4.888  1.00  0.00     0.005 A 
HETATM    9  C   UNL     1      40.685 -14.715   5.546  1.00  0.00     0.103 A 
HETATM   10  C   UNL     1      40.550 -13.326   5.723  1.00  0.00     0.100 A 
HETATM   11  C   UNL     1      41.563 -12.503   5.184  1.00  0.00    -0.004 A 
HETATM   12  N   UNL     1      39.488 -12.787   6.368  1.00  0.00    -0.257 NA
HETATM   13  C   UNL     1      42.653 -13.066   4.503  1.00  0.00     0.014 A 
HETATM   14  C   UNL     1      41.455 -11.115   5.341  1.00  0.00     0.015 A 
HETATM   15  C   UNL     1      42.760 -14.447   4.352  1.00  0.00     0.013 A 
HETATM   16  C   UNL     1      40.366 -10.575   6.011  1.00  0.00     0.020 A 
HETATM   17  C   UNL     1      39.417 -11.446   6.503  1.00  0.00     0.117 A 
BRANCH   9  18
HETATM   18  O   UNL     1      39.692 -15.525   6.056  1.00  0.00    -0.358 OA
HETATM   19  H   UNL     1      40.044 -15.980   6.854  1.00  0.00     0.218 HD
ENDBRANCH   9  18
ENDBRANCH   1   8
BRANCH   1  20
HETATM   20  C   UNL     1      42.663 -17.498   5.862  1.00  0.00    -0.031 A 
HETATM   21  C   UNL     1      43.269 -18.742   5.603  1.00  0.00     0.009 A 
HETATM   22  C   UNL     1      43.974 -19.422   6.597  1.00  0.00     0.001 A 
HETATM   23  C   UNL     1      44.081 -18.873   7.871  1.00  0.00     0.000 A 
HETATM   24  C   UNL     1      43.483 -17.647   8.151  1.00  0.00     0.001 A 
HETATM   25  C   UNL     1      42.781 -16.961   7.155  1.00  0.00     0.009 A 
ENDBRANCH   1  20
TORSDOF 5
ENDMDL
MODEL 9
REMARK VINA RESULT:      -7.3      3.102      3.759
REMARK  5 active torsions:
REMARK  status: ('A' for Active; 'I' for Inactive)
REMARK    1  A    between atoms: C_2  and  C_3 
REMARK       I    between atoms: C_3  and  N_4 
REMARK    2  A    between atoms: N_4  and  C_5 
REMARK    3  A    between atoms: C_5  and  C_6 
REMARK    4  A    between atoms: C_5  and  C_17 
REMARK    5  A    between atoms: C_7  and  O_8 
ROOT
HETATM    1  C   UNL     1      43.193 -16.037   4.618  1.00  0.00     0.154 C 
ENDROOT
BRANCH   1   2
HETATM    2  N   UNL     1      43.005 -16.714   5.894  1.00  0.00    -0.348 N 
HETATM    3  C   UNL     1      43.794 -16.415   6.977  1.00  0.00     0.218 C 
HETATM    4  O   UNL     1      44.702 -15.587   6.929  1.00  0.00    -0.274 OA
HETATM    5  H   UNL     1      42.090 -17.096   6.078  1.00  0.00     0.163 HD
BRANCH   3   6
HETATM    6  C   UNL     1      43.415 -17.113   8.268  1.00  0.00     0.098 C 
HETATM    7  C   UNL     1      44.019 -18.500   8.417  1.00  0.00     0.014 C 
ENDBRANCH   3   6
ENDBRANCH   1   2
BRANCH   1   8
HETATM    8  C   UNL     1      42.081 -15.012   4.426  1.00  0.00     0.005 A 
HETATM    9  C   UNL     1      42.182 -13.710   4.957  1.00  0.00     0.103 A 
HETATM   10  C   UNL     1      41.181 -12.735   4.792  1.00  0.00     0.100 A 
HETATM   11  C   UNL     1      40.021 -13.113   4.082  1.00  0.00    -0.004 A 
HETATM   12  N   UNL     1      41.306 -11.487   5.302  1.00  0.00    -0.257 NA
HETATM   13  C   UNL     1      39.889 -14.413   3.568  1.00  0.00     0.014 A 
HETATM   14  C   UNL     1      39.004 -12.166   3.903  1.00  0.00     0.015 A 
HETATM   15  C   UNL     1      40.904 -15.352   3.744  1.00  0.00     0.013 A 
HETATM   16  C   UNL     1      39.148 -10.887   4.424  1.00  0.00     0.020 A 
HETATM   17  C   UNL     1      40.309 -10.599   5.110  1.00  0.00     0.117 A 
BRANCH   9  18
HETATM   18  O   UNL     1      43.312 -13.354   5.663  1.00  0.00    -0.358 OA
HETATM   19  H   UNL     1      43.991 -14.053   5.534  1.00  0.00     0.218 HD
ENDBRANCH   9  18
ENDBRANCH   1   8
BRANCH   1  20
HETATM   20  C   UNL     1      43.351 -17.002   3.442  1.00  0.00    -0.031 A 
HETATM   21  C   UNL     1      43.073 -18.365   3.656  1.00  0.00     0.009 A 
HETATM   22  C   UNL     1      43.203 -19.298   2.627  1.00  0.00     0.001 A 
HETATM   23  C   UNL     1      43.620 -18.886   1.365  1.00  0.00     0.000 A 
HETATM   24  C   UNL     1      43.906 -17.544   1.133  1.00  0.00     0.001 A 
HETATM   25  C   UNL     1      43.772 -16.606   2.162  1.00  0.00     0.009 A 
ENDBRANCH   1  20
TORSDOF 5
ENDMDL
MODEL 10
REMARK VINA RESULT:      -7.1      3.624      6.162
REMARK  5 active torsions:
REMARK  status: ('A' for Active; 'I' for Inactive)
REMARK    1  A    between atoms: C_2  and  C_3 
REMARK       I    between atoms: C_3  and  N_4 
REMARK    2  A    between atoms: N_4  and  C_5 
REMARK    3  A    between atoms: C_5  and  C_6 
REMARK    4  A    between atoms: C_5  and  C_17 
REMARK    5  A    between atoms: C_7  and  O_8 
ROOT
HETATM    1  C   UNL     1      42.828 -14.509   6.149  1.00  0.00     0.154 C 
ENDROOT
BRANCH   1   2
HETATM    2  N   UNL     1      44.117 -13.832   6.120  1.00  0.00    -0.348 N 
HETATM    3  C   UNL     1      44.865 -13.683   7.262  1.00  0.00     0.218 C 
HETATM    4  O   UNL     1      44.487 -14.089   8.360  1.00  0.00    -0.274 OA
HETATM    5  H   UNL     1      44.609 -13.822   5.240  1.00  0.00     0.163 HD
BRANCH   3   6
HETATM    6  C   UNL     1      46.232 -13.061   7.066  1.00  0.00     0.098 C 
HETATM    7  C   UNL     1      46.618 -12.067   8.150  1.00  0.00     0.014 C 
ENDBRANCH   3   6
ENDBRANCH   1   2
BRANCH   1   8
HETATM    8  C   UNL     1      42.896 -15.754   5.273  1.00  0.00     0.005 A 
HETATM    9  C   UNL     1      43.297 -15.682   3.923  1.00  0.00     0.103 A 
HETATM   10  C   UNL     1      43.381 -16.811   3.088  1.00  0.00     0.100 A 
HETATM   11  C   UNL     1      43.017 -18.055   3.644  1.00  0.00    -0.004 A 
HETATM   12  N   UNL     1      43.779 -16.717   1.797  1.00  0.00    -0.257 NA
HETATM   13  C   UNL     1      42.590 -18.145   4.978  1.00  0.00     0.014 A 
HETATM   14  C   UNL     1      43.087 -19.199   2.836  1.00  0.00     0.015 A 
HETATM   15  C   UNL     1      42.525 -17.008   5.780  1.00  0.00     0.013 A 
HETATM   16  C   UNL     1      43.504 -19.091   1.516  1.00  0.00     0.020 A 
HETATM   17  C   UNL     1      43.837 -17.838   1.048  1.00  0.00     0.117 A 
BRANCH   9  18
HETATM   18  O   UNL     1      43.636 -14.459   3.383  1.00  0.00    -0.358 OA
HETATM   19  H   UNL     1      42.926 -13.816   3.604  1.00  0.00     0.218 HD
ENDBRANCH   9  18
ENDBRANCH   1   8
BRANCH   1  20
HETATM   20  C   UNL     1      41.655 -13.584   5.816  1.00  0.00    -0.031 A 
HETATM   21  C   UNL     1      41.936 -12.250   5.467  1.00  0.00     0.009 A 
HETATM   22  C   UNL     1      40.912 -11.354   5.157  1.00  0.00     0.001 A 
HETATM   23  C   UNL     1      39.586 -11.775   5.197  1.00  0.00     0.000 A 
HETATM   24  C   UNL     1      39.286 -13.088   5.546  1.00  0.00     0.001 A 
HETATM   25  C   UNL     1      40.311 -13.989   5.852  1.00  0.00     0.009 A 
ENDBRANCH   1  20
TORSDOF 5
ENDMDL
