MODEL 1
REMARK VINA RESULT:      -9.1      0.000      0.000
REMARK  4 active torsions:
REMARK  status: ('A' for Active; 'I' for Inactive)
REMARK    1  A    between atoms: C_8  and  C_9 
REMARK       I    between atoms: C_9  and  N_10 
REMARK    2  A    between atoms: N_10  and  N_11 
REMARK       I    between atoms: N_11  and  C_12 
REMARK    3  A    between atoms: C_12  and  C_13 
REMARK    4  A    between atoms: C_13  and  C_14 
ROOT
HETATM    1  N   UNL     1      44.267 -12.262   9.450  1.00  0.00    -0.267 N 
HETATM    2  C   UNL     1      43.822 -10.967   9.643  1.00  0.00     0.236 C 
HETATM    3  O   UNL     1      43.186 -10.356   8.790  1.00  0.00    -0.272 OA
HETATM    4  H   UNL     1      44.594 -12.850  10.215  1.00  0.00     0.190 HD
ENDROOT
BRANCH   1   5
HETATM    5  N   UNL     1      43.855 -12.926   8.291  1.00  0.00    -0.262 N 
HETATM    6  C   UNL     1      44.795 -13.413   7.404  1.00  0.00     0.291 C 
HETATM    7  O   UNL     1      45.996 -13.170   7.511  1.00  0.00    -0.264 OA
HETATM    8  H   UNL     1      42.895 -13.276   8.247  1.00  0.00     0.190 HD
BRANCH   6   9
HETATM    9  C   UNL     1      44.212 -14.240   6.338  1.00  0.00     0.158 A 
HETATM   10  C   UNL     1      43.728 -15.577   6.443  1.00  0.00     0.028 A 
HETATM   11  C   UNL     1      43.614 -16.539   7.465  1.00  0.00     0.016 A 
HETATM   12  C   UNL     1      43.291 -15.906   5.165  1.00  0.00     0.063 A 
HETATM   13  C   UNL     1      43.068 -17.792   7.163  1.00  0.00     0.001 A 
HETATM   14  C   UNL     1      42.641 -18.091   5.869  1.00  0.00     0.002 A 
HETATM   15  C   UNL     1      42.743 -17.150   4.839  1.00  0.00     0.032 A 
HETATM   16  N   UNL     1      43.524 -14.792   4.407  1.00  0.00    -0.277 N 
HETATM   17  H   UNL     1      43.327 -14.669   3.420  1.00  0.00     0.189 HD
HETATM   18  N   UNL     1      44.079 -13.769   5.078  1.00  0.00    -0.168 NA
ENDBRANCH   6   9
ENDBRANCH   1   5
BRANCH   2  19
HETATM   19  C   UNL     1      44.232 -10.408  10.998  1.00  0.00     0.114 C 
BRANCH  19  20
HETATM   20  C   UNL     1      43.101 -10.008  11.971  1.00  0.00    -0.031 C 
HETATM   21  C   UNL     1      42.194 -11.213  12.330  1.00  0.00     0.014 C 
HETATM   22  C   UNL     1      41.115 -10.799  13.346  1.00  0.00    -0.013 C 
HETATM   23  C   UNL     1      40.262  -9.669  12.747  1.00  0.00     0.009 C 
HETATM   24  C   UNL     1      41.792 -10.297  14.631  1.00  0.00     0.009 C 
HETATM   25  C   UNL     1      41.145  -8.450  12.429  1.00  0.00    -0.013 C 
HETATM   26  C   UNL     1      42.225  -8.858  11.411  1.00  0.00     0.014 C 
HETATM   27  C   UNL     1      41.821  -7.963  13.721  1.00  0.00     0.009 C 
HETATM   28  C   UNL     1      42.683  -9.087  14.315  1.00  0.00    -0.013 C 
HETATM   29  C   UNL     1      43.753  -9.500  13.291  1.00  0.00     0.014 C 
ENDBRANCH  19  20
ENDBRANCH   2  19
TORSDOF 4
ENDMDL
MODEL 2
REMARK VINA RESULT:      -8.8      9.460     11.444
REMARK  4 active torsions:
REMARK  status: ('A' for Active; 'I' for Inactive)
REMARK    1  A    between atoms: C_8  and  C_9 
REMARK       I    between atoms: C_9  and  N_10 
REMARK    2  A    between atoms: N_10  and  N_11 
REMARK       I    between atoms: N_11  and  C_12 
REMARK    3  A    between atoms: C_12  and  C_13 
REMARK    4  A    between atoms: C_13  and  C_14 
ROOT
HETATM    1  N   UNL     1      42.098 -15.514   2.091  1.00  0.00    -0.267 N 
HETATM    2  C   UNL     1      40.815 -15.512   1.575  1.00  0.00     0.236 C 
HETATM    3  O   UNL     1      40.080 -16.493   1.637  1.00  0.00    -0.272 OA
HETATM    4  H   UNL     1      42.628 -14.658   2.245  1.00  0.00     0.190 HD
ENDROOT
BRANCH   1   5
HETATM    5  N   UNL     1      42.505 -16.635   2.819  1.00  0.00    -0.262 N 
HETATM    6  C   UNL     1      43.607 -17.361   2.408  1.00  0.00     0.291 C 
HETATM    7  O   UNL     1      44.179 -17.150   1.339  1.00  0.00    -0.264 OA
HETATM    8  H   UNL     1      42.159 -16.747   3.774  1.00  0.00     0.190 HD
BRANCH   6   9
HETATM    9  C   UNL     1      44.014 -18.393   3.373  1.00  0.00     0.158 A 
HETATM   10  C   UNL     1      44.152 -19.792   3.140  1.00  0.00     0.028 A 
HETATM   11  C   UNL     1      43.987 -20.662   2.045  1.00  0.00     0.016 A 
HETATM   12  C   UNL     1      44.548 -20.325   4.362  1.00  0.00     0.063 A 
HETATM   13  C   UNL     1      44.223 -22.031   2.221  1.00  0.00     0.001 A 
HETATM   14  C   UNL     1      44.617 -22.533   3.460  1.00  0.00     0.002 A 
HETATM   15  C   UNL     1      44.789 -21.688   4.562  1.00  0.00     0.032 A 
HETATM   16  N   UNL     1      44.624 -19.258   5.212  1.00  0.00    -0.277 N 
HETATM   17  H   UNL     1      44.886 -19.271   6.193  1.00  0.00     0.189 HD
HETATM   18  N   UNL     1      44.309 -18.078   4.654  1.00  0.00    -0.168 NA
ENDBRANCH   6   9
ENDBRANCH   1   5
BRANCH   2  19
HETATM   19  C   UNL     1      40.453 -14.186   0.922  1.00  0.00     0.114 C 
BRANCH  19  20
HETATM   20  C   UNL     1      40.385 -14.152  -0.621  1.00  0.00    -0.031 C 
HETATM   21  C   UNL     1      38.929 -14.002  -1.132  1.00  0.00     0.014 C 
HETATM   22  C   UNL     1      38.898 -13.910  -2.668  1.00  0.00    -0.013 C 
HETATM   23  C   UNL     1      39.528 -15.180  -3.265  1.00  0.00     0.009 C 
HETATM   24  C   UNL     1      39.703 -12.683  -3.121  1.00  0.00     0.009 C 
HETATM   25  C   UNL     1      40.989 -15.314  -2.800  1.00  0.00    -0.013 C 
HETATM   26  C   UNL     1      41.026 -15.408  -1.264  1.00  0.00     0.014 C 
HETATM   27  C   UNL     1      41.781 -14.078  -3.253  1.00  0.00     0.009 C 
HETATM   28  C   UNL     1      41.160 -12.809  -2.650  1.00  0.00    -0.013 C 
HETATM   29  C   UNL     1      41.188 -12.912  -1.116  1.00  0.00     0.014 C 
ENDBRANCH  19  20
ENDBRANCH   2  19
TORSDOF 4
ENDMDL
MODEL 3
REMARK VINA RESULT:      -8.7      9.043     11.401
REMARK  4 active torsions:
REMARK  status: ('A' for Active; 'I' for Inactive)
REMARK    1  A    between atoms: C_8  and  C_9 
REMARK       I    between atoms: C_9  and  N_10 
REMARK    2  A    between atoms: N_10  and  N_11 
REMARK       I    between atoms: N_11  and  C_12 
REMARK    3  A    between atoms: C_12  and  C_13 
REMARK    4  A    between atoms: C_13  and  C_14 
ROOT
HETATM    1  N   UNL     1      39.342 -15.953   1.857  1.00  0.00    -0.267 N 
HETATM    2  C   UNL     1      39.525 -14.597   1.661  1.00  0.00     0.236 C 
HETATM    3  O   UNL     1      40.333 -13.941   2.311  1.00  0.00    -0.272 OA
HETATM    4  H   UNL     1      38.849 -16.542   1.188  1.00  0.00     0.190 HD
ENDROOT
BRANCH   1   5
HETATM    5  N   UNL     1      40.209 -16.607   2.736  1.00  0.00    -0.262 N 
HETATM    6  C   UNL     1      41.333 -17.246   2.250  1.00  0.00     0.291 C 
HETATM    7  O   UNL     1      41.544 -17.391   1.046  1.00  0.00    -0.264 OA
HETATM    8  H   UNL     1      40.153 -16.381   3.732  1.00  0.00     0.190 HD
BRANCH   6   9
HETATM    9  C   UNL     1      42.232 -17.724   3.309  1.00  0.00     0.158 A 
HETATM   10  C   UNL     1      43.128 -18.832   3.253  1.00  0.00     0.028 A 
HETATM   11  C   UNL     1      43.487 -19.802   2.296  1.00  0.00     0.016 A 
HETATM   12  C   UNL     1      43.738 -18.868   4.502  1.00  0.00     0.063 A 
HETATM   13  C   UNL     1      44.441 -20.769   2.633  1.00  0.00     0.001 A 
HETATM   14  C   UNL     1      45.033 -20.778   3.895  1.00  0.00     0.002 A 
HETATM   15  C   UNL     1      44.694 -19.824   4.860  1.00  0.00     0.032 A 
HETATM   16  N   UNL     1      43.199 -17.822   5.196  1.00  0.00    -0.277 N 
HETATM   17  H   UNL     1      43.412 -17.541   6.148  1.00  0.00     0.189 HD
HETATM   18  N   UNL     1      42.288 -17.111   4.512  1.00  0.00    -0.168 NA
ENDBRANCH   6   9
ENDBRANCH   1   5
BRANCH   2  19
HETATM   19  C   UNL     1      38.605 -14.036   0.585  1.00  0.00     0.114 C 
BRANCH  19  20
HETATM   20  C   UNL     1      39.203 -13.841  -0.826  1.00  0.00    -0.031 C 
HETATM   21  C   UNL     1      38.149 -14.079  -1.938  1.00  0.00     0.014 C 
HETATM   22  C   UNL     1      38.755 -13.819  -3.328  1.00  0.00    -0.013 C 
HETATM   23  C   UNL     1      39.955 -14.757  -3.542  1.00  0.00     0.009 C 
HETATM   24  C   UNL     1      39.231 -12.361  -3.411  1.00  0.00     0.009 C 
HETATM   25  C   UNL     1      41.028 -14.498  -2.470  1.00  0.00    -0.013 C 
HETATM   26  C   UNL     1      40.427 -14.758  -1.077  1.00  0.00     0.014 C 
HETATM   27  C   UNL     1      41.489 -13.035  -2.559  1.00  0.00     0.009 C 
HETATM   28  C   UNL     1      40.295 -12.095  -2.335  1.00  0.00    -0.013 C 
HETATM   29  C   UNL     1      39.690 -12.367  -0.948  1.00  0.00     0.014 C 
ENDBRANCH  19  20
ENDBRANCH   2  19
TORSDOF 4
ENDMDL
MODEL 4
REMARK VINA RESULT:      -8.6      7.191      9.869
REMARK  4 active torsions:
REMARK  status: ('A' for Active; 'I' for Inactive)
REMARK    1  A    between atoms: C_8  and  C_9 
REMARK       I    between atoms: C_9  and  N_10 
REMARK    2  A    between atoms: N_10  and  N_11 
REMARK       I    between atoms: N_11  and  C_12 
REMARK    3  A    between atoms: C_12  and  C_13 
REMARK    4  A    between atoms: C_13  and  C_14 
ROOT
HETATM    1  N   UNL     1      41.797 -17.270   1.013  1.00  0.00    -0.267 N 
HETATM    2  C   UNL     1      43.014 -17.562   1.600  1.00  0.00     0.236 C 
HETATM    3  O   UNL     1      44.084 -17.268   1.076  1.00  0.00    -0.272 OA
HETATM    4  H   UNL     1      40.918 -17.304   1.527  1.00  0.00     0.190 HD
ENDROOT
BRANCH   1   5
HETATM    5  N   UNL     1      41.804 -16.497  -0.152  1.00  0.00    -0.262 N 
HETATM    6  C   UNL     1      41.239 -15.237  -0.147  1.00  0.00     0.291 C 
HETATM    7  O   UNL     1      40.596 -14.802   0.809  1.00  0.00    -0.264 OA
HETATM    8  H   UNL     1      42.450 -16.754  -0.902  1.00  0.00     0.190 HD
BRANCH   6   9
HETATM    9  C   UNL     1      41.488 -14.485  -1.385  1.00  0.00     0.158 A 
HETATM   10  C   UNL     1      41.973 -13.150  -1.506  1.00  0.00     0.028 A 
HETATM   11  C   UNL     1      42.368 -12.128  -0.622  1.00  0.00     0.016 A 
HETATM   12  C   UNL     1      42.024 -12.907  -2.874  1.00  0.00     0.063 A 
HETATM   13  C   UNL     1      42.797 -10.902  -1.147  1.00  0.00     0.001 A 
HETATM   14  C   UNL     1      42.835 -10.690  -2.525  1.00  0.00     0.002 A 
HETATM   15  C   UNL     1      42.448 -11.692  -3.421  1.00  0.00     0.032 A 
HETATM   16  N   UNL     1      41.591 -14.062  -3.462  1.00  0.00    -0.277 N 
HETATM   17  H   UNL     1      41.499 -14.250  -4.455  1.00  0.00     0.189 HD
HETATM   18  N   UNL     1      41.258 -15.035  -2.598  1.00  0.00    -0.168 NA
ENDBRANCH   6   9
ENDBRANCH   1   5
BRANCH   2  19
HETATM   19  C   UNL     1      42.859 -18.293   2.925  1.00  0.00     0.114 C 
BRANCH  19  20
HETATM   20  C   UNL     1      42.698 -17.429   4.196  1.00  0.00    -0.031 C 
HETATM   21  C   UNL     1      41.349 -17.698   4.911  1.00  0.00     0.014 C 
HETATM   22  C   UNL     1      41.243 -16.870   6.203  1.00  0.00    -0.013 C 
HETATM   23  C   UNL     1      41.357 -15.375   5.859  1.00  0.00     0.009 C 
HETATM   24  C   UNL     1      42.385 -17.260   7.154  1.00  0.00     0.009 C 
HETATM   25  C   UNL     1      42.712 -15.088   5.190  1.00  0.00    -0.013 C 
HETATM   26  C   UNL     1      42.823 -15.914   3.895  1.00  0.00     0.014 C 
HETATM   27  C   UNL     1      43.845 -15.490   6.147  1.00  0.00     0.009 C 
HETATM   28  C   UNL     1      43.740 -16.984   6.485  1.00  0.00    -0.013 C 
HETATM   29  C   UNL     1      43.839 -17.805   5.187  1.00  0.00     0.014 C 
ENDBRANCH  19  20
ENDBRANCH   2  19
TORSDOF 4
ENDMDL
MODEL 5
REMARK VINA RESULT:      -8.4      1.996      8.807
REMARK  4 active torsions:
REMARK  status: ('A' for Active; 'I' for Inactive)
REMARK    1  A    between atoms: C_8  and  C_9 
REMARK       I    between atoms: C_9  and  N_10 
REMARK    2  A    between atoms: N_10  and  N_11 
REMARK       I    between atoms: N_11  and  C_12 
REMARK    3  A    between atoms: C_12  and  C_13 
REMARK    4  A    between atoms: C_13  and  C_14 
ROOT
HETATM    1  N   UNL     1      42.791 -12.452   7.179  1.00  0.00    -0.267 N 
HETATM    2  C   UNL     1      42.035 -12.688   6.045  1.00  0.00     0.236 C 
HETATM    3  O   UNL     1      40.904 -12.233   5.903  1.00  0.00    -0.272 OA
HETATM    4  H   UNL     1      43.793 -12.631   7.216  1.00  0.00     0.190 HD
ENDROOT
BRANCH   1   5
HETATM    5  N   UNL     1      42.285 -11.556   8.124  1.00  0.00    -0.262 N 
HETATM    6  C   UNL     1      43.145 -10.911   8.992  1.00  0.00     0.291 C 
HETATM    7  O   UNL     1      44.341 -11.189   9.069  1.00  0.00    -0.264 OA
HETATM    8  H   UNL     1      41.340 -11.189   7.990  1.00  0.00     0.190 HD
BRANCH   6   9
HETATM    9  C   UNL     1      42.486  -9.871   9.795  1.00  0.00     0.158 A 
HETATM   10  C   UNL     1      42.719  -9.555  11.165  1.00  0.00     0.028 A 
HETATM   11  C   UNL     1      43.561 -10.031  12.189  1.00  0.00     0.016 A 
HETATM   12  C   UNL     1      41.845  -8.512  11.450  1.00  0.00     0.063 A 
HETATM   13  C   UNL     1      43.490  -9.443  13.458  1.00  0.00     0.001 A 
HETATM   14  C   UNL     1      42.601  -8.398  13.711  1.00  0.00     0.002 A 
HETATM   15  C   UNL     1      41.757  -7.908  12.709  1.00  0.00     0.032 A 
HETATM   16  N   UNL     1      41.176  -8.274  10.283  1.00  0.00    -0.277 N 
HETATM   17  H   UNL     1      40.459  -7.575  10.117  1.00  0.00     0.189 HD
HETATM   18  N   UNL     1      41.533  -9.072   9.264  1.00  0.00    -0.168 NA
ENDBRANCH   6   9
ENDBRANCH   1   5
BRANCH   2  19
HETATM   19  C   UNL     1      42.755 -13.576   5.041  1.00  0.00     0.114 C 
BRANCH  19  20
HETATM   20  C   UNL     1      42.807 -15.090   5.343  1.00  0.00    -0.031 C 
HETATM   21  C   UNL     1      43.910 -15.435   6.376  1.00  0.00     0.014 C 
HETATM   22  C   UNL     1      43.899 -16.940   6.702  1.00  0.00    -0.013 C 
HETATM   23  C   UNL     1      44.130 -17.740   5.410  1.00  0.00     0.009 C 
HETATM   24  C   UNL     1      42.535 -17.321   7.298  1.00  0.00     0.009 C 
HETATM   25  C   UNL     1      43.015 -17.440   4.394  1.00  0.00    -0.013 C 
HETATM   26  C   UNL     1      43.022 -15.936   4.062  1.00  0.00     0.014 C 
HETATM   27  C   UNL     1      41.656 -17.818   5.005  1.00  0.00     0.009 C 
HETATM   28  C   UNL     1      41.418 -17.012   6.291  1.00  0.00    -0.013 C 
HETATM   29  C   UNL     1      41.439 -15.510   5.957  1.00  0.00     0.014 C 
ENDBRANCH  19  20
ENDBRANCH   2  19
TORSDOF 4
ENDMDL
MODEL 6
REMARK VINA RESULT:      -8.4      9.949     11.769
REMARK  4 active torsions:
REMARK  status: ('A' for Active; 'I' for Inactive)
REMARK    1  A    between atoms: C_8  and  C_9 
REMARK       I    between atoms: C_9  and  N_10 
REMARK    2  A    between atoms: N_10  and  N_11 
REMARK       I    between atoms: N_11  and  C_12 
REMARK    3  A    between atoms: C_12  and  C_13 
REMARK    4  A    between atoms: C_13  and  C_14 
ROOT
HETATM    1  N   UNL     1      41.803 -16.013  -0.585  1.00  0.00    -0.267 N 
HETATM    2  C   UNL     1      41.187 -14.780  -0.476  1.00  0.00     0.236 C 
HETATM    3  O   UNL     1      41.126 -14.167   0.585  1.00  0.00    -0.272 OA
HETATM    4  H   UNL     1      42.054 -16.423  -1.483  1.00  0.00     0.190 HD
ENDROOT
BRANCH   1   5
HETATM    5  N   UNL     1      42.490 -16.498   0.531  1.00  0.00    -0.262 N 
HETATM    6  C   UNL     1      41.908 -17.460   1.335  1.00  0.00     0.291 C 
HETATM    7  O   UNL     1      40.740 -17.821   1.196  1.00  0.00    -0.264 OA
HETATM    8  H   UNL     1      43.499 -16.341   0.588  1.00  0.00     0.190 HD
BRANCH   6   9
HETATM    9  C   UNL     1      42.823 -17.996   2.352  1.00  0.00     0.158 A 
HETATM   10  C   UNL     1      43.348 -19.319   2.437  1.00  0.00     0.028 A 
HETATM   11  C   UNL     1      43.234 -20.507   1.690  1.00  0.00     0.016 A 
HETATM   12  C   UNL     1      44.148 -19.318   3.574  1.00  0.00     0.063 A 
HETATM   13  C   UNL     1      43.928 -21.647   2.115  1.00  0.00     0.001 A 
HETATM   14  C   UNL     1      44.722 -21.613   3.261  1.00  0.00     0.002 A 
HETATM   15  C   UNL     1      44.850 -20.444   4.018  1.00  0.00     0.032 A 
HETATM   16  N   UNL     1      44.063 -18.049   4.075  1.00  0.00    -0.277 N 
HETATM   17  H   UNL     1      44.522 -17.683   4.902  1.00  0.00     0.189 HD
HETATM   18  N   UNL     1      43.273 -17.225   3.367  1.00  0.00    -0.168 NA
ENDBRANCH   6   9
ENDBRANCH   1   5
BRANCH   2  19
HETATM   19  C   UNL     1      40.591 -14.311  -1.795  1.00  0.00     0.114 C 
BRANCH  19  20
HETATM   20  C   UNL     1      40.940 -12.879  -2.261  1.00  0.00    -0.031 C 
HETATM   21  C   UNL     1      42.460 -12.595  -2.166  1.00  0.00     0.014 C 
HETATM   22  C   UNL     1      42.785 -11.185  -2.692  1.00  0.00    -0.013 C 
HETATM   23  C   UNL     1      42.011 -10.145  -1.865  1.00  0.00     0.009 C 
HETATM   24  C   UNL     1      42.359 -11.081  -4.164  1.00  0.00     0.009 C 
HETATM   25  C   UNL     1      40.497 -10.390  -1.988  1.00  0.00    -0.013 C 
HETATM   26  C   UNL     1      40.167 -11.799  -1.462  1.00  0.00     0.014 C 
HETATM   27  C   UNL     1      40.086 -10.291  -3.466  1.00  0.00     0.009 C 
HETATM   28  C   UNL     1      40.850 -11.336  -4.292  1.00  0.00    -0.013 C 
HETATM   29  C   UNL     1      40.526 -12.740  -3.756  1.00  0.00     0.014 C 
ENDBRANCH  19  20
ENDBRANCH   2  19
TORSDOF 4
ENDMDL
MODEL 7
REMARK VINA RESULT:      -8.1      2.017      8.709
REMARK  4 active torsions:
REMARK  status: ('A' for Active; 'I' for Inactive)
REMARK    1  A    between atoms: C_8  and  C_9 
REMARK       I    between atoms: C_9  and  N_10 
REMARK    2  A    between atoms: N_10  and  N_11 
REMARK       I    between atoms: N_11  and  C_12 
REMARK    3  A    between atoms: C_12  and  C_13 
REMARK    4  A    between atoms: C_13  and  C_14 
ROOT
HETATM    1  N   UNL     1      42.470 -12.327   6.830  1.00  0.00    -0.267 N 
HETATM    2  C   UNL     1      43.576 -13.156   6.766  1.00  0.00     0.236 C 
HETATM    3  O   UNL     1      44.430 -13.180   7.646  1.00  0.00    -0.272 OA
HETATM    4  H   UNL     1      41.655 -12.453   6.232  1.00  0.00     0.190 HD
ENDROOT
BRANCH   1   5
HETATM    5  N   UNL     1      42.269 -11.599   8.006  1.00  0.00    -0.262 N 
HETATM    6  C   UNL     1      41.942 -10.259   7.939  1.00  0.00     0.291 C 
HETATM    7  O   UNL     1      41.951  -9.625   6.884  1.00  0.00    -0.264 OA
HETATM    8  H   UNL     1      42.103 -12.113   8.874  1.00  0.00     0.190 HD
BRANCH   6   9
HETATM    9  C   UNL     1      41.586  -9.683   9.244  1.00  0.00     0.158 A 
HETATM   10  C   UNL     1      42.325  -9.767  10.460  1.00  0.00     0.028 A 
HETATM   11  C   UNL     1      43.539 -10.349  10.874  1.00  0.00     0.016 A 
HETATM   12  C   UNL     1      41.564  -9.073  11.395  1.00  0.00     0.063 A 
HETATM   13  C   UNL     1      43.939 -10.213  12.209  1.00  0.00     0.001 A 
HETATM   14  C   UNL     1      43.152  -9.511  13.121  1.00  0.00     0.002 A 
HETATM   15  C   UNL     1      41.944  -8.923  12.732  1.00  0.00     0.032 A 
HETATM   16  N   UNL     1      40.468  -8.630  10.709  1.00  0.00    -0.277 N 
HETATM   17  H   UNL     1      39.695  -8.083  11.073  1.00  0.00     0.189 HD
HETATM   18  N   UNL     1      40.445  -8.979   9.412  1.00  0.00    -0.168 NA
ENDBRANCH   6   9
ENDBRANCH   1   5
BRANCH   2  19
HETATM   19  C   UNL     1      43.605 -13.987   5.492  1.00  0.00     0.114 C 
BRANCH  19  20
HETATM   20  C   UNL     1      43.322 -15.500   5.626  1.00  0.00    -0.031 C 
HETATM   21  C   UNL     1      43.316 -16.211   4.249  1.00  0.00     0.014 C 
HETATM   22  C   UNL     1      43.092 -17.725   4.419  1.00  0.00    -0.013 C 
HETATM   23  C   UNL     1      41.748 -17.961   5.130  1.00  0.00     0.009 C 
HETATM   24  C   UNL     1      44.226 -18.315   5.269  1.00  0.00     0.009 C 
HETATM   25  C   UNL     1      41.759 -17.297   6.517  1.00  0.00    -0.013 C 
HETATM   26  C   UNL     1      41.982 -15.783   6.354  1.00  0.00     0.014 C 
HETATM   27  C   UNL     1      42.903 -17.891   7.355  1.00  0.00     0.009 C 
HETATM   28  C   UNL     1      44.247 -17.647   6.652  1.00  0.00    -0.013 C 
HETATM   29  C   UNL     1      44.460 -16.134   6.480  1.00  0.00     0.014 C 
ENDBRANCH  19  20
ENDBRANCH   2  19
TORSDOF 4
ENDMDL
MODEL 8
REMARK VINA RESULT:      -8.0      2.807      9.509
REMARK  4 active torsions:
REMARK  status: ('A' for Active; 'I' for Inactive)
REMARK    1  A    between atoms: C_8  and  C_9 
REMARK       I    between atoms: C_9  and  N_10 
REMARK    2  A    between atoms: N_10  and  N_11 
REMARK       I    between atoms: N_11  and  C_12 
REMARK    3  A    between atoms: C_12  and  C_13 
REMARK    4  A    between atoms: C_13  and  C_14 
ROOT
HETATM    1  N   UNL     1      41.586 -12.233   5.655  1.00  0.00    -0.267 N 
HETATM    2  C   UNL     1      42.558 -13.100   5.189  1.00  0.00     0.236 C 
HETATM    3  O   UNL     1      43.357 -13.655   5.937  1.00  0.00    -0.272 OA
HETATM    4  H   UNL     1      40.790 -11.945   5.088  1.00  0.00     0.190 HD
ENDROOT
BRANCH   1   5
HETATM    5  N   UNL     1      41.442 -12.100   7.039  1.00  0.00    -0.262 N 
HETATM    6  C   UNL     1      41.568 -10.858   7.629  1.00  0.00     0.291 C 
HETATM    7  O   UNL     1      41.942  -9.863   7.008  1.00  0.00    -0.264 OA
HETATM    8  H   UNL     1      40.987 -12.857   7.555  1.00  0.00     0.190 HD
BRANCH   6   9
HETATM    9  C   UNL     1      41.209 -10.854   9.054  1.00  0.00     0.158 A 
HETATM   10  C   UNL     1      42.083 -10.691  10.169  1.00  0.00     0.028 A 
HETATM   11  C   UNL     1      43.464 -10.489  10.357  1.00  0.00     0.016 A 
HETATM   12  C   UNL     1      41.262 -10.772  11.288  1.00  0.00     0.063 A 
HETATM   13  C   UNL     1      43.965 -10.378  11.659  1.00  0.00     0.001 A 
HETATM   14  C   UNL     1      43.114 -10.465  12.761  1.00  0.00     0.002 A 
HETATM   15  C   UNL     1      41.739 -10.664  12.598  1.00  0.00     0.032 A 
HETATM   16  N   UNL     1      40.001 -10.964  10.797  1.00  0.00    -0.277 N 
HETATM   17  H   UNL     1      39.143 -11.066  11.328  1.00  0.00     0.189 HD
HETATM   18  N   UNL     1      39.929 -11.020   9.456  1.00  0.00    -0.168 NA
ENDBRANCH   6   9
ENDBRANCH   1   5
BRANCH   2  19
HETATM   19  C   UNL     1      42.522 -13.252   3.676  1.00  0.00     0.114 C 
BRANCH  19  20
HETATM   20  C   UNL     1      42.241 -14.663   3.111  1.00  0.00    -0.031 C 
HETATM   21  C   UNL     1      41.634 -14.605   1.687  1.00  0.00     0.014 C 
HETATM   22  C   UNL     1      41.421 -16.023   1.127  1.00  0.00    -0.013 C 
HETATM   23  C   UNL     1      40.478 -16.800   2.061  1.00  0.00     0.009 C 
HETATM   24  C   UNL     1      42.773 -16.749   1.052  1.00  0.00     0.009 C 
HETATM   25  C   UNL     1      41.093 -16.903   3.468  1.00  0.00    -0.013 C 
HETATM   26  C   UNL     1      41.307 -15.487   4.033  1.00  0.00     0.014 C 
HETATM   27  C   UNL     1      42.447 -17.624   3.378  1.00  0.00     0.009 C 
HETATM   28  C   UNL     1      43.394 -16.844   2.454  1.00  0.00    -0.013 C 
HETATM   29  C   UNL     1      43.595 -15.426   3.015  1.00  0.00     0.014 C 
ENDBRANCH  19  20
ENDBRANCH   2  19
TORSDOF 4
ENDMDL
MODEL 9
REMARK VINA RESULT:      -8.0      2.357      3.073
REMARK  4 active torsions:
REMARK  status: ('A' for Active; 'I' for Inactive)
REMARK    1  A    between atoms: C_8  and  C_9 
REMARK       I    between atoms: C_9  and  N_10 
REMARK    2  A    between atoms: N_10  and  N_11 
REMARK       I    between atoms: N_11  and  C_12 
REMARK    3  A    between atoms: C_12  and  C_13 
REMARK    4  A    between atoms: C_13  and  C_14 
ROOT
HETATM    1  N   UNL     1      41.427 -11.671   7.198  1.00  0.00    -0.267 N 
HETATM    2  C   UNL     1      40.395 -11.010   7.839  1.00  0.00     0.236 C 
HETATM    3  O   UNL     1      39.232 -11.396   7.784  1.00  0.00    -0.272 OA
HETATM    4  H   UNL     1      42.407 -11.497   7.414  1.00  0.00     0.190 HD
ENDROOT
BRANCH   1   5
HETATM    5  N   UNL     1      41.135 -12.891   6.582  1.00  0.00    -0.262 N 
HETATM    6  C   UNL     1      41.634 -13.165   5.323  1.00  0.00     0.291 C 
HETATM    7  O   UNL     1      42.221 -12.322   4.645  1.00  0.00    -0.264 OA
HETATM    8  H   UNL     1      40.790 -13.659   7.162  1.00  0.00     0.190 HD
BRANCH   6   9
HETATM    9  C   UNL     1      41.393 -14.549   4.892  1.00  0.00     0.158 A 
HETATM   10  C   UNL     1      42.205 -15.692   5.151  1.00  0.00     0.028 A 
HETATM   11  C   UNL     1      43.410 -15.950   5.833  1.00  0.00     0.016 A 
HETATM   12  C   UNL     1      41.552 -16.749   4.527  1.00  0.00     0.063 A 
HETATM   13  C   UNL     1      43.911 -17.257   5.859  1.00  0.00     0.001 A 
HETATM   14  C   UNL     1      43.231 -18.294   5.222  1.00  0.00     0.002 A 
HETATM   15  C   UNL     1      42.033 -18.062   4.540  1.00  0.00     0.032 A 
HETATM   16  N   UNL     1      40.435 -16.199   3.963  1.00  0.00    -0.277 N 
HETATM   17  H   UNL     1      39.718 -16.677   3.427  1.00  0.00     0.189 HD
HETATM   18  N   UNL     1      40.305 -14.877   4.161  1.00  0.00    -0.168 NA
ENDBRANCH   6   9
ENDBRANCH   1   5
BRANCH   2  19
HETATM   19  C   UNL     1      40.872  -9.768   8.578  1.00  0.00     0.114 C 
BRANCH  19  20
HETATM   20  C   UNL     1      41.377  -9.955  10.026  1.00  0.00    -0.031 C 
HETATM   21  C   UNL     1      42.893 -10.279  10.072  1.00  0.00     0.014 C 
HETATM   22  C   UNL     1      43.380 -10.400  11.527  1.00  0.00    -0.013 C 
HETATM   23  C   UNL     1      42.591 -11.515  12.235  1.00  0.00     0.009 C 
HETATM   24  C   UNL     1      43.142  -9.069  12.256  1.00  0.00     0.009 C 
HETATM   25  C   UNL     1      41.089 -11.182  12.235  1.00  0.00    -0.013 C 
HETATM   26  C   UNL     1      40.595 -11.060  10.782  1.00  0.00     0.014 C 
HETATM   27  C   UNL     1      40.866  -9.845  12.960  1.00  0.00     0.009 C 
HETATM   28  C   UNL     1      41.645  -8.728  12.249  1.00  0.00    -0.013 C 
HETATM   29  C   UNL     1      41.158  -8.619  10.794  1.00  0.00     0.014 C 
ENDBRANCH  19  20
ENDBRANCH   2  19
TORSDOF 4
ENDMDL
MODEL 10
REMARK VINA RESULT:      -8.0      2.438      2.949
REMARK  4 active torsions:
REMARK  status: ('A' for Active; 'I' for Inactive)
REMARK    1  A    between atoms: C_8  and  C_9 
REMARK       I    between atoms: C_9  and  N_10 
REMARK    2  A    between atoms: N_10  and  N_11 
REMARK       I    between atoms: N_11  and  C_12 
REMARK    3  A    between atoms: C_12  and  C_13 
REMARK    4  A    between atoms: C_13  and  C_14 
ROOT
HETATM    1  N   UNL     1      41.024 -11.109   7.903  1.00  0.00    -0.267 N 
HETATM    2  C   UNL     1      40.041 -10.555   8.702  1.00  0.00     0.236 C 
HETATM    3  O   UNL     1      38.879 -10.950   8.685  1.00  0.00    -0.272 OA
HETATM    4  H   UNL     1      42.017 -10.948   8.064  1.00  0.00     0.190 HD
ENDROOT
BRANCH   1   5
HETATM    5  N   UNL     1      40.693 -12.242   7.155  1.00  0.00    -0.262 N 
HETATM    6  C   UNL     1      41.182 -12.388   5.871  1.00  0.00     0.291 C 
HETATM    7  O   UNL     1      41.795 -11.493   5.289  1.00  0.00    -0.264 OA
HETATM    8  H   UNL     1      40.325 -13.059   7.647  1.00  0.00     0.190 HD
BRANCH   6   9
HETATM    9  C   UNL     1      40.898 -13.707   5.289  1.00  0.00     0.158 A 
HETATM   10  C   UNL     1      41.655 -14.905   5.443  1.00  0.00     0.028 A 
HETATM   11  C   UNL     1      42.828 -15.286   6.123  1.00  0.00     0.016 A 
HETATM   12  C   UNL     1      40.978 -15.861   4.694  1.00  0.00     0.063 A 
HETATM   13  C   UNL     1      43.274 -16.609   6.022  1.00  0.00     0.001 A 
HETATM   14  C   UNL     1      42.572 -17.543   5.261  1.00  0.00     0.002 A 
HETATM   15  C   UNL     1      41.404 -17.187   4.578  1.00  0.00     0.032 A 
HETATM   16  N   UNL     1      39.901 -15.206   4.165  1.00  0.00    -0.277 N 
HETATM   17  H   UNL     1      39.181 -15.593   3.563  1.00  0.00     0.189 HD
HETATM   18  N   UNL     1      39.819 -13.908   4.500  1.00  0.00    -0.168 NA
ENDBRANCH   6   9
ENDBRANCH   1   5
BRANCH   2  19
HETATM   19  C   UNL     1      40.565  -9.413   9.560  1.00  0.00     0.114 C 
BRANCH  19  20
HETATM   20  C   UNL     1      41.251  -9.785  10.894  1.00  0.00    -0.031 C 
HETATM   21  C   UNL     1      40.762 -11.154  11.433  1.00  0.00     0.014 C 
HETATM   22  C   UNL     1      41.505 -11.525  12.728  1.00  0.00    -0.013 C 
HETATM   23  C   UNL     1      41.259 -10.435  13.785  1.00  0.00     0.009 C 
HETATM   24  C   UNL     1      43.011 -11.623  12.441  1.00  0.00     0.009 C 
HETATM   25  C   UNL     1      41.782  -9.080  13.278  1.00  0.00    -0.013 C 
HETATM   26  C   UNL     1      41.041  -8.702  11.983  1.00  0.00     0.014 C 
HETATM   27  C   UNL     1      43.287  -9.193  12.987  1.00  0.00     0.009 C 
HETATM   28  C   UNL     1      43.534 -10.275  11.925  1.00  0.00    -0.013 C 
HETATM   29  C   UNL     1      42.783  -9.900  10.637  1.00  0.00     0.014 C 
ENDBRANCH  19  20
ENDBRANCH   2  19
TORSDOF 4
ENDMDL
