MODEL 1
REMARK VINA RESULT:      -9.0      0.000      0.000
REMARK  7 active torsions:
REMARK  status: ('A' for Active; 'I' for Inactive)
REMARK    1  A    between atoms: C_7  and  C_8 
REMARK    2  A    between atoms: C_8  and  C_9 
REMARK    3  A    between atoms: C_9  and  C_10 
REMARK    4  A    between atoms: C_10  and  O_11 
REMARK    5  A    between atoms: C_13  and  C_14 
REMARK    6  A    between atoms: C_21  and  C_22 
REMARK       I    between atoms: C_22  and  N_23 
REMARK    7  A    between atoms: N_23  and  C_24 
ROOT
HETATM    1  C   UNL     1      40.569 -15.433   6.078  1.00  0.00     0.070 C 
HETATM    2  C   UNL     1      41.261 -15.864   4.808  1.00  0.00     0.037 C 
HETATM    3  N   UNL     1      40.433 -16.002   3.692  1.00  0.00    -0.192 N 
HETATM    4  C   UNL     1      40.925 -16.084   2.438  1.00  0.00     0.726 A 
HETATM    5  N   UNL     1      42.255 -16.340   2.268  1.00  0.00    -0.083 N 
HETATM    6  N   UNL     1      42.615 -16.273   0.971  1.00  0.00    -0.140 NA
HETATM    7  C   UNL     1      41.431 -15.999   0.401  1.00  0.00     0.166 A 
HETATM    8  N   UNL     1      40.368 -15.890   1.270  1.00  0.00    -0.046 NA
HETATM    9  C   UNL     1      43.188 -16.566   3.370  1.00  0.00     0.202 C 
HETATM   10  C   UNL     1      42.597 -16.096   4.697  1.00  0.00     0.062 C 
HETATM   11  H   UNL     1      39.477 -15.666   3.794  1.00  0.00     0.184 HD
ENDROOT
BRANCH  10  12
HETATM   12  C   UNL     1      43.545 -15.669   5.777  1.00  0.00     0.256 C 
HETATM   13  N   UNL     1      43.970 -14.361   5.692  1.00  0.00    -0.323 N 
HETATM   14  H   UNL     1      43.735 -13.828   4.866  1.00  0.00     0.169 HD
HETATM   15  O   UNL     1      43.821 -16.456   6.676  1.00  0.00    -0.267 OA
BRANCH  13  16
HETATM   16  C   UNL     1      44.708 -13.639   6.657  1.00  0.00     0.035 A 
HETATM   17  C   UNL     1      46.079 -13.386   6.573  1.00  0.00     0.029 A 
HETATM   18  C   UNL     1      46.736 -12.686   7.591  1.00  0.00     0.002 A 
HETATM   19  C   UNL     1      46.030 -12.242   8.706  1.00  0.00     0.000 A 
HETATM   20  C   UNL     1      44.664 -12.488   8.801  1.00  0.00     0.002 A 
HETATM   21  C   UNL     1      44.005 -13.176   7.779  1.00  0.00     0.029 A 
ENDBRANCH  13  16
ENDBRANCH  10  12
BRANCH   9  22
HETATM   22  C   UNL     1      43.597 -18.043   3.372  1.00  0.00    -0.028 A 
HETATM   23  C   UNL     1      43.392 -18.823   2.220  1.00  0.00     0.011 A 
HETATM   24  C   UNL     1      43.754 -20.172   2.197  1.00  0.00     0.019 A 
HETATM   25  C   UNL     1      44.318 -20.757   3.328  1.00  0.00     0.011 A 
HETATM   26 BR   UNL     1      44.807 -22.582   3.297  1.00  0.00    -0.051 Br
HETATM   27  C   UNL     1      44.517 -20.008   4.484  1.00  0.00     0.019 A 
HETATM   28  C   UNL     1      44.152 -18.660   4.510  1.00  0.00     0.011 A 
ENDBRANCH   9  22
BRANCH   7  29
HETATM   29  C   UNL     1      41.289 -15.771  -1.059  1.00  0.00     0.085 C 
BRANCH  29  30
HETATM   30  C   UNL     1      41.311 -14.292  -1.440  1.00  0.00     0.034 C 
BRANCH  30  31
HETATM   31  C   UNL     1      41.283 -14.058  -2.947  1.00  0.00     0.164 C 
BRANCH  31  32
HETATM   32  O   UNL     1      42.150 -14.987  -3.592  1.00  0.00    -0.401 OA
HETATM   33  H   UNL     1      42.934 -15.097  -3.027  1.00  0.00     0.209 HD
ENDBRANCH  31  32
ENDBRANCH  30  31
ENDBRANCH  29  30
ENDBRANCH   7  29
TORSDOF 7
ENDMDL
MODEL 2
REMARK VINA RESULT:      -8.7      3.803      8.090
REMARK  7 active torsions:
REMARK  status: ('A' for Active; 'I' for Inactive)
REMARK    1  A    between atoms: C_7  and  C_8 
REMARK    2  A    between atoms: C_8  and  C_9 
REMARK    3  A    between atoms: C_9  and  C_10 
REMARK    4  A    between atoms: C_10  and  O_11 
REMARK    5  A    between atoms: C_13  and  C_14 
REMARK    6  A    between atoms: C_21  and  C_22 
REMARK       I    between atoms: C_22  and  N_23 
REMARK    7  A    between atoms: N_23  and  C_24 
ROOT
HETATM    1  C   UNL     1      42.487 -18.423   7.050  1.00  0.00     0.070 C 
HETATM    2  C   UNL     1      42.962 -17.058   6.617  1.00  0.00     0.037 C 
HETATM    3  N   UNL     1      43.253 -16.167   7.653  1.00  0.00    -0.192 N 
HETATM    4  C   UNL     1      43.960 -15.036   7.450  1.00  0.00     0.726 A 
HETATM    5  N   UNL     1      44.140 -14.591   6.172  1.00  0.00    -0.083 N 
HETATM    6  N   UNL     1      44.963 -13.525   6.125  1.00  0.00    -0.140 NA
HETATM    7  C   UNL     1      45.221 -13.356   7.431  1.00  0.00     0.166 A 
HETATM    8  N   UNL     1      44.611 -14.257   8.276  1.00  0.00    -0.046 NA
HETATM    9  C   UNL     1      43.583 -15.253   4.994  1.00  0.00     0.202 C 
HETATM   10  C   UNL     1      43.132 -16.675   5.322  1.00  0.00     0.062 C 
HETATM   11  H   UNL     1      43.258 -16.556   8.594  1.00  0.00     0.184 HD
ENDROOT
BRANCH  10  12
HETATM   12  C   UNL     1      43.124 -17.683   4.213  1.00  0.00     0.256 C 
HETATM   13  N   UNL     1      44.084 -18.666   4.316  1.00  0.00    -0.323 N 
HETATM   14  H   UNL     1      44.794 -18.577   5.029  1.00  0.00     0.169 HD
HETATM   15  O   UNL     1      42.254 -17.618   3.352  1.00  0.00    -0.267 OA
BRANCH  13  16
HETATM   16  C   UNL     1      44.196 -19.835   3.529  1.00  0.00     0.035 A 
HETATM   17  C   UNL     1      43.860 -19.909   2.176  1.00  0.00     0.029 A 
HETATM   18  C   UNL     1      43.974 -21.117   1.480  1.00  0.00     0.002 A 
HETATM   19  C   UNL     1      44.417 -22.264   2.133  1.00  0.00     0.000 A 
HETATM   20  C   UNL     1      44.756 -22.203   3.481  1.00  0.00     0.002 A 
HETATM   21  C   UNL     1      44.654 -20.993   4.174  1.00  0.00     0.029 A 
ENDBRANCH  13  16
ENDBRANCH  10  12
BRANCH   9  22
HETATM   22  C   UNL     1      42.466 -14.374   4.421  1.00  0.00    -0.028 A 
HETATM   23  C   UNL     1      41.177 -14.434   4.981  1.00  0.00     0.011 A 
HETATM   24  C   UNL     1      40.142 -13.646   4.475  1.00  0.00     0.019 A 
HETATM   25  C   UNL     1      40.381 -12.794   3.399  1.00  0.00     0.011 A 
HETATM   26 BR   UNL     1      38.979 -11.728   2.714  1.00  0.00    -0.051 Br
HETATM   27  C   UNL     1      41.644 -12.729   2.820  1.00  0.00     0.019 A 
HETATM   28  C   UNL     1      42.680 -13.521   3.321  1.00  0.00     0.011 A 
ENDBRANCH   9  22
BRANCH   7  29
HETATM   29  C   UNL     1      46.148 -12.308   7.926  1.00  0.00     0.085 C 
BRANCH  29  30
HETATM   30  C   UNL     1      45.728 -11.721   9.273  1.00  0.00     0.034 C 
BRANCH  30  31
HETATM   31  C   UNL     1      44.254 -11.333   9.327  1.00  0.00     0.164 C 
BRANCH  31  32
HETATM   32  O   UNL     1      43.570 -12.178  10.248  1.00  0.00    -0.401 OA
HETATM   33  H   UNL     1      43.939 -12.010  11.131  1.00  0.00     0.209 HD
ENDBRANCH  31  32
ENDBRANCH  30  31
ENDBRANCH  29  30
ENDBRANCH   7  29
TORSDOF 7
ENDMDL
MODEL 3
REMARK VINA RESULT:      -8.6      4.361      7.156
REMARK  7 active torsions:
REMARK  status: ('A' for Active; 'I' for Inactive)
REMARK    1  A    between atoms: C_7  and  C_8 
REMARK    2  A    between atoms: C_8  and  C_9 
REMARK    3  A    between atoms: C_9  and  C_10 
REMARK    4  A    between atoms: C_10  and  O_11 
REMARK    5  A    between atoms: C_13  and  C_14 
REMARK    6  A    between atoms: C_21  and  C_22 
REMARK       I    between atoms: C_22  and  N_23 
REMARK    7  A    between atoms: N_23  and  C_24 
ROOT
HETATM    1  C   UNL     1      40.958 -13.860   3.522  1.00  0.00     0.070 C 
HETATM    2  C   UNL     1      41.284 -13.524   2.087  1.00  0.00     0.037 C 
HETATM    3  N   UNL     1      41.400 -12.162   1.802  1.00  0.00    -0.192 N 
HETATM    4  C   UNL     1      41.971 -11.713   0.665  1.00  0.00     0.726 A 
HETATM    5  N   UNL     1      42.171 -12.587  -0.363  1.00  0.00    -0.083 N 
HETATM    6  N   UNL     1      42.856 -12.021  -1.376  1.00  0.00    -0.140 NA
HETATM    7  C   UNL     1      43.012 -10.775  -0.901  1.00  0.00     0.166 A 
HETATM    8  N   UNL     1      42.470 -10.545   0.345  1.00  0.00    -0.046 NA
HETATM    9  C   UNL     1      41.772 -13.993  -0.325  1.00  0.00     0.202 C 
HETATM   10  C   UNL     1      41.483 -14.445   1.105  1.00  0.00     0.062 C 
HETATM   11  H   UNL     1      41.397 -11.531   2.601  1.00  0.00     0.184 HD
ENDROOT
BRANCH  10  12
HETATM   12  C   UNL     1      41.666 -15.895   1.434  1.00  0.00     0.256 C 
HETATM   13  N   UNL     1      42.948 -16.251   1.792  1.00  0.00    -0.323 N 
HETATM   14  H   UNL     1      43.688 -15.571   1.686  1.00  0.00     0.169 HD
HETATM   15  O   UNL     1      40.690 -16.637   1.434  1.00  0.00    -0.267 OA
BRANCH  13  16
HETATM   16  C   UNL     1      43.373 -17.490   2.325  1.00  0.00     0.035 A 
HETATM   17  C   UNL     1      43.562 -18.648   1.569  1.00  0.00     0.029 A 
HETATM   18  C   UNL     1      43.957 -19.842   2.183  1.00  0.00     0.002 A 
HETATM   19  C   UNL     1      44.157 -19.889   3.560  1.00  0.00     0.000 A 
HETATM   20  C   UNL     1      43.973 -18.741   4.324  1.00  0.00     0.002 A 
HETATM   21  C   UNL     1      43.590 -17.546   3.709  1.00  0.00     0.029 A 
ENDBRANCH  13  16
ENDBRANCH  10  12
BRANCH   9  22
HETATM   22  C   UNL     1      40.590 -14.193  -1.280  1.00  0.00    -0.028 A 
HETATM   23  C   UNL     1      39.319 -13.706  -0.926  1.00  0.00     0.011 A 
HETATM   24  C   UNL     1      38.226 -13.879  -1.777  1.00  0.00     0.019 A 
HETATM   25  C   UNL     1      38.389 -14.545  -2.990  1.00  0.00     0.011 A 
HETATM   26 BR   UNL     1      36.910 -14.778  -4.141  1.00  0.00    -0.051 Br
HETATM   27  C   UNL     1      39.635 -15.047  -3.354  1.00  0.00     0.019 A 
HETATM   28  C   UNL     1      40.728 -14.880  -2.501  1.00  0.00     0.011 A 
ENDBRANCH   9  22
BRANCH   7  29
HETATM   29  C   UNL     1      43.771  -9.735  -1.639  1.00  0.00     0.085 C 
BRANCH  29  30
HETATM   30  C   UNL     1      43.292  -8.316  -1.339  1.00  0.00     0.034 C 
BRANCH  30  31
HETATM   31  C   UNL     1      44.215  -7.558  -0.389  1.00  0.00     0.164 C 
BRANCH  31  32
HETATM   32  O   UNL     1      43.821  -7.804   0.958  1.00  0.00    -0.401 OA
HETATM   33  H   UNL     1      43.982  -8.744   1.143  1.00  0.00     0.209 HD
ENDBRANCH  31  32
ENDBRANCH  30  31
ENDBRANCH  29  30
ENDBRANCH   7  29
TORSDOF 7
ENDMDL
MODEL 4
REMARK VINA RESULT:      -8.5      3.847      7.209
REMARK  7 active torsions:
REMARK  status: ('A' for Active; 'I' for Inactive)
REMARK    1  A    between atoms: C_7  and  C_8 
REMARK    2  A    between atoms: C_8  and  C_9 
REMARK    3  A    between atoms: C_9  and  C_10 
REMARK    4  A    between atoms: C_10  and  O_11 
REMARK    5  A    between atoms: C_13  and  C_14 
REMARK    6  A    between atoms: C_21  and  C_22 
REMARK       I    between atoms: C_22  and  N_23 
REMARK    7  A    between atoms: N_23  and  C_24 
ROOT
HETATM    1  C   UNL     1      40.468 -16.916   6.672  1.00  0.00     0.070 C 
HETATM    2  C   UNL     1      40.742 -15.633   5.926  1.00  0.00     0.037 C 
HETATM    3  N   UNL     1      39.980 -14.532   6.324  1.00  0.00    -0.192 N 
HETATM    4  C   UNL     1      40.306 -13.270   5.976  1.00  0.00     0.726 A 
HETATM    5  N   UNL     1      41.213 -13.075   4.975  1.00  0.00    -0.083 N 
HETATM    6  N   UNL     1      41.522 -11.772   4.827  1.00  0.00    -0.140 NA
HETATM    7  C   UNL     1      40.730 -11.224   5.762  1.00  0.00     0.166 A 
HETATM    8  N   UNL     1      39.959 -12.112   6.478  1.00  0.00    -0.046 NA
HETATM    9  C   UNL     1      41.841 -14.160   4.223  1.00  0.00     0.202 C 
HETATM   10  C   UNL     1      41.671 -15.498   4.940  1.00  0.00     0.062 C 
HETATM   11  H   UNL     1      39.419 -14.653   7.165  1.00  0.00     0.184 HD
ENDROOT
BRANCH  10  12
HETATM   12  C   UNL     1      42.701 -16.560   4.702  1.00  0.00     0.256 C 
HETATM   13  N   UNL     1      42.246 -17.664   4.015  1.00  0.00    -0.323 N 
HETATM   14  H   UNL     1      41.256 -17.751   3.837  1.00  0.00     0.169 HD
HETATM   15  O   UNL     1      43.858 -16.361   5.056  1.00  0.00    -0.267 OA
BRANCH  13  16
HETATM   16  C   UNL     1      43.023 -18.724   3.493  1.00  0.00     0.035 A 
HETATM   17  C   UNL     1      42.919 -19.208   2.188  1.00  0.00     0.029 A 
HETATM   18  C   UNL     1      43.709 -20.282   1.763  1.00  0.00     0.002 A 
HETATM   19  C   UNL     1      44.602 -20.887   2.643  1.00  0.00     0.000 A 
HETATM   20  C   UNL     1      44.716 -20.414   3.946  1.00  0.00     0.002 A 
HETATM   21  C   UNL     1      43.936 -19.333   4.367  1.00  0.00     0.029 A 
ENDBRANCH  13  16
ENDBRANCH  10  12
BRANCH   9  22
HETATM   22  C   UNL     1      41.282 -14.155   2.796  1.00  0.00    -0.028 A 
HETATM   23  C   UNL     1      42.064 -13.645   1.745  1.00  0.00     0.011 A 
HETATM   24  C   UNL     1      41.577 -13.628   0.436  1.00  0.00     0.019 A 
HETATM   25  C   UNL     1      40.299 -14.114   0.165  1.00  0.00     0.011 A 
HETATM   26 BR   UNL     1      39.640 -14.089  -1.605  1.00  0.00    -0.051 Br
HETATM   27  C   UNL     1      39.503 -14.610   1.193  1.00  0.00     0.019 A 
HETATM   28  C   UNL     1      39.987 -14.624   2.503  1.00  0.00     0.011 A 
ENDBRANCH   9  22
BRANCH   7  29
HETATM   29  C   UNL     1      40.732  -9.767   6.046  1.00  0.00     0.085 C 
BRANCH  29  30
HETATM   30  C   UNL     1      39.328  -9.169   6.127  1.00  0.00     0.034 C 
BRANCH  30  31
HETATM   31  C   UNL     1      38.909  -8.807   7.548  1.00  0.00     0.164 C 
BRANCH  31  32
HETATM   32  O   UNL     1      38.541  -9.987   8.255  1.00  0.00    -0.401 OA
HETATM   33  H   UNL     1      38.706  -9.828   9.199  1.00  0.00     0.209 HD
ENDBRANCH  31  32
ENDBRANCH  30  31
ENDBRANCH  29  30
ENDBRANCH   7  29
TORSDOF 7
ENDMDL
MODEL 5
REMARK VINA RESULT:      -8.0      3.828      5.703
REMARK  7 active torsions:
REMARK  status: ('A' for Active; 'I' for Inactive)
REMARK    1  A    between atoms: C_7  and  C_8 
REMARK    2  A    between atoms: C_8  and  C_9 
REMARK    3  A    between atoms: C_9  and  C_10 
REMARK    4  A    between atoms: C_10  and  O_11 
REMARK    5  A    between atoms: C_13  and  C_14 
REMARK    6  A    between atoms: C_21  and  C_22 
REMARK       I    between atoms: C_22  and  N_23 
REMARK    7  A    between atoms: N_23  and  C_24 
ROOT
HETATM    1  C   UNL     1      43.709 -16.940   1.299  1.00  0.00     0.070 C 
HETATM    2  C   UNL     1      42.463 -16.092   1.374  1.00  0.00     0.037 C 
HETATM    3  N   UNL     1      42.109 -15.440   0.190  1.00  0.00    -0.192 N 
HETATM    4  C   UNL     1      40.887 -14.899   0.007  1.00  0.00     0.726 A 
HETATM    5  N   UNL     1      40.078 -14.713   1.090  1.00  0.00    -0.083 N 
HETATM    6  N   UNL     1      38.854 -14.279   0.732  1.00  0.00    -0.140 NA
HETATM    7  C   UNL     1      39.004 -14.192  -0.599  1.00  0.00     0.166 A 
HETATM    8  N   UNL     1      40.244 -14.552  -1.079  1.00  0.00    -0.046 NA
HETATM    9  C   UNL     1      40.467 -15.038   2.461  1.00  0.00     0.202 C 
HETATM   10  C   UNL     1      41.689 -15.954   2.485  1.00  0.00     0.062 C 
HETATM   11  H   UNL     1      42.631 -15.703  -0.643  1.00  0.00     0.184 HD
ENDROOT
BRANCH  10  12
HETATM   12  C   UNL     1      41.863 -16.864   3.663  1.00  0.00     0.256 C 
HETATM   13  N   UNL     1      42.957 -16.585   4.454  1.00  0.00    -0.323 N 
HETATM   14  H   UNL     1      43.625 -15.899   4.133  1.00  0.00     0.169 HD
HETATM   15  O   UNL     1      41.018 -17.724   3.884  1.00  0.00    -0.267 OA
BRANCH  13  16
HETATM   16  C   UNL     1      43.265 -17.149   5.713  1.00  0.00     0.035 A 
HETATM   17  C   UNL     1      42.871 -16.606   6.937  1.00  0.00     0.029 A 
HETATM   18  C   UNL     1      43.245 -17.215   8.139  1.00  0.00     0.002 A 
HETATM   19  C   UNL     1      44.025 -18.369   8.128  1.00  0.00     0.000 A 
HETATM   20  C   UNL     1      44.424 -18.920   6.915  1.00  0.00     0.002 A 
HETATM   21  C   UNL     1      44.040 -18.318   5.713  1.00  0.00     0.029 A 
ENDBRANCH  13  16
ENDBRANCH  10  12
BRANCH   9  22
HETATM   22  C   UNL     1      40.667 -13.732   3.237  1.00  0.00    -0.028 A 
HETATM   23  C   UNL     1      40.233 -13.642   4.572  1.00  0.00     0.011 A 
HETATM   24  C   UNL     1      40.401 -12.462   5.300  1.00  0.00     0.019 A 
HETATM   25  C   UNL     1      40.999 -11.357   4.699  1.00  0.00     0.011 A 
HETATM   26 BR   UNL     1      41.226  -9.760   5.684  1.00  0.00    -0.051 Br
HETATM   27  C   UNL     1      41.423 -11.418   3.375  1.00  0.00     0.019 A 
HETATM   28  C   UNL     1      41.251 -12.596   2.645  1.00  0.00     0.011 A 
ENDBRANCH   9  22
BRANCH   7  29
HETATM   29  C   UNL     1      37.891 -13.794  -1.496  1.00  0.00     0.085 C 
BRANCH  29  30
HETATM   30  C   UNL     1      38.225 -13.960  -2.978  1.00  0.00     0.034 C 
BRANCH  30  31
HETATM   31  C   UNL     1      37.681 -15.253  -3.577  1.00  0.00     0.164 C 
BRANCH  31  32
HETATM   32  O   UNL     1      38.641 -16.294  -3.420  1.00  0.00    -0.401 OA
HETATM   33  H   UNL     1      39.167 -16.092  -2.627  1.00  0.00     0.209 HD
ENDBRANCH  31  32
ENDBRANCH  30  31
ENDBRANCH  29  30
ENDBRANCH   7  29
TORSDOF 7
ENDMDL
MODEL 6
REMARK VINA RESULT:      -7.9      4.022      8.078
REMARK  7 active torsions:
REMARK  status: ('A' for Active; 'I' for Inactive)
REMARK    1  A    between atoms: C_7  and  C_8 
REMARK    2  A    between atoms: C_8  and  C_9 
REMARK    3  A    between atoms: C_9  and  C_10 
REMARK    4  A    between atoms: C_10  and  O_11 
REMARK    5  A    between atoms: C_13  and  C_14 
REMARK    6  A    between atoms: C_21  and  C_22 
REMARK       I    between atoms: C_22  and  N_23 
REMARK    7  A    between atoms: N_23  and  C_24 
ROOT
HETATM    1  C   UNL     1      39.163 -14.793   0.843  1.00  0.00     0.070 C 
HETATM    2  C   UNL     1      40.063 -14.790   2.054  1.00  0.00     0.037 C 
HETATM    3  N   UNL     1      40.122 -15.994   2.761  1.00  0.00    -0.192 N 
HETATM    4  C   UNL     1      41.088 -16.247   3.668  1.00  0.00     0.726 A 
HETATM    5  N   UNL     1      41.845 -15.211   4.132  1.00  0.00    -0.083 N 
HETATM    6  N   UNL     1      42.840 -15.638   4.935  1.00  0.00    -0.140 NA
HETATM    7  C   UNL     1      42.602 -16.958   4.939  1.00  0.00     0.166 A 
HETATM    8  N   UNL     1      41.526 -17.368   4.183  1.00  0.00    -0.046 NA
HETATM    9  C   UNL     1      41.655 -13.819   3.728  1.00  0.00     0.202 C 
HETATM   10  C   UNL     1      40.804 -13.724   2.463  1.00  0.00     0.062 C 
HETATM   11  H   UNL     1      39.674 -16.796   2.322  1.00  0.00     0.184 HD
ENDROOT
BRANCH  10  12
HETATM   12  C   UNL     1      40.999 -12.535   1.572  1.00  0.00     0.256 C 
HETATM   13  N   UNL     1      42.038 -12.647   0.673  1.00  0.00    -0.323 N 
HETATM   14  H   UNL     1      42.665 -13.435   0.754  1.00  0.00     0.169 HD
HETATM   15  O   UNL     1      40.211 -11.598   1.644  1.00  0.00    -0.267 OA
BRANCH  13  16
HETATM   16  C   UNL     1      42.337 -11.775  -0.398  1.00  0.00     0.035 A 
HETATM   17  C   UNL     1      42.771 -10.458  -0.243  1.00  0.00     0.029 A 
HETATM   18  C   UNL     1      43.018  -9.654  -1.362  1.00  0.00     0.002 A 
HETATM   19  C   UNL     1      42.823 -10.158  -2.645  1.00  0.00     0.000 A 
HETATM   20  C   UNL     1      42.391 -11.470  -2.812  1.00  0.00     0.002 A 
HETATM   21  C   UNL     1      42.156 -12.277  -1.695  1.00  0.00     0.029 A 
ENDBRANCH  13  16
ENDBRANCH  10  12
BRANCH   9  22
HETATM   22  C   UNL     1      41.077 -13.038   4.913  1.00  0.00    -0.028 A 
HETATM   23  C   UNL     1      41.855 -12.048   5.539  1.00  0.00     0.011 A 
HETATM   24  C   UNL     1      41.353 -11.324   6.623  1.00  0.00     0.019 A 
HETATM   25  C   UNL     1      40.069 -11.587   7.097  1.00  0.00     0.011 A 
HETATM   26 BR   UNL     1      39.390 -10.608   8.563  1.00  0.00    -0.051 Br
HETATM   27  C   UNL     1      39.287 -12.573   6.501  1.00  0.00     0.019 A 
HETATM   28  C   UNL     1      39.791 -13.300   5.421  1.00  0.00     0.011 A 
ENDBRANCH   9  22
BRANCH   7  29
HETATM   29  C   UNL     1      43.475 -17.918   5.660  1.00  0.00     0.085 C 
BRANCH  29  30
HETATM   30  C   UNL     1      44.121 -17.321   6.910  1.00  0.00     0.034 C 
BRANCH  30  31
HETATM   31  C   UNL     1      43.164 -17.225   8.094  1.00  0.00     0.164 C 
BRANCH  31  32
HETATM   32  O   UNL     1      43.795 -17.741   9.262  1.00  0.00    -0.401 OA
HETATM   33  H   UNL     1      43.095 -17.965   9.899  1.00  0.00     0.209 HD
ENDBRANCH  31  32
ENDBRANCH  30  31
ENDBRANCH  29  30
ENDBRANCH   7  29
TORSDOF 7
ENDMDL
MODEL 7
REMARK VINA RESULT:      -7.8      3.897      7.869
REMARK  7 active torsions:
REMARK  status: ('A' for Active; 'I' for Inactive)
REMARK    1  A    between atoms: C_7  and  C_8 
REMARK    2  A    between atoms: C_8  and  C_9 
REMARK    3  A    between atoms: C_9  and  C_10 
REMARK    4  A    between atoms: C_10  and  O_11 
REMARK    5  A    between atoms: C_13  and  C_14 
REMARK    6  A    between atoms: C_21  and  C_22 
REMARK       I    between atoms: C_22  and  N_23 
REMARK    7  A    between atoms: N_23  and  C_24 
ROOT
HETATM    1  C   UNL     1      39.682 -14.554  -1.393  1.00  0.00     0.070 C 
HETATM    2  C   UNL     1      40.551 -14.817  -0.187  1.00  0.00     0.037 C 
HETATM    3  N   UNL     1      40.596 -16.145   0.242  1.00  0.00    -0.192 N 
HETATM    4  C   UNL     1      41.539 -16.591   1.097  1.00  0.00     0.726 A 
HETATM    5  N   UNL     1      42.281 -15.683   1.794  1.00  0.00    -0.083 N 
HETATM    6  N   UNL     1      43.256 -16.276   2.511  1.00  0.00    -0.140 NA
HETATM    7  C   UNL     1      43.023 -17.566   2.222  1.00  0.00     0.166 A 
HETATM    8  N   UNL     1      41.967 -17.799   1.367  1.00  0.00    -0.046 NA
HETATM    9  C   UNL     1      42.097 -14.236   1.697  1.00  0.00     0.202 C 
HETATM   10  C   UNL     1      41.278 -13.867   0.461  1.00  0.00     0.062 C 
HETATM   11  H   UNL     1      40.162 -16.832  -0.372  1.00  0.00     0.184 HD
ENDROOT
BRANCH  10  12
HETATM   12  C   UNL     1      41.491 -12.513  -0.145  1.00  0.00     0.256 C 
HETATM   13  N   UNL     1      42.292 -12.499  -1.266  1.00  0.00    -0.323 N 
HETATM   14  H   UNL     1      42.777 -13.347  -1.526  1.00  0.00     0.169 HD
HETATM   15  O   UNL     1      40.909 -11.545   0.333  1.00  0.00    -0.267 OA
BRANCH  13  16
HETATM   16  C   UNL     1      42.515 -11.412  -2.142  1.00  0.00     0.035 A 
HETATM   17  C   UNL     1      42.923 -10.142  -1.732  1.00  0.00     0.029 A 
HETATM   18  C   UNL     1      43.092  -9.114  -2.666  1.00  0.00     0.002 A 
HETATM   19  C   UNL     1      42.846  -9.345  -4.017  1.00  0.00     0.000 A 
HETATM   20  C   UNL     1      42.440 -10.608  -4.438  1.00  0.00     0.002 A 
HETATM   21  C   UNL     1      42.283 -11.638  -3.507  1.00  0.00     0.029 A 
ENDBRANCH  13  16
ENDBRANCH  10  12
BRANCH   9  22
HETATM   22  C   UNL     1      41.486 -13.730   3.009  1.00  0.00    -0.028 A 
HETATM   23  C   UNL     1      42.247 -12.907   3.858  1.00  0.00     0.011 A 
HETATM   24  C   UNL     1      41.715 -12.435   5.060  1.00  0.00     0.019 A 
HETATM   25  C   UNL     1      40.418 -12.786   5.429  1.00  0.00     0.011 A 
HETATM   26 BR   UNL     1      39.698 -12.148   7.055  1.00  0.00    -0.051 Br
HETATM   27  C   UNL     1      39.652 -13.611   4.610  1.00  0.00     0.019 A 
HETATM   28  C   UNL     1      40.185 -14.088   3.411  1.00  0.00     0.011 A 
ENDBRANCH   9  22
BRANCH   7  29
HETATM   29  C   UNL     1      43.880 -18.661   2.739  1.00  0.00     0.085 C 
BRANCH  29  30
HETATM   30  C   UNL     1      43.598 -20.009   2.078  1.00  0.00     0.034 C 
BRANCH  30  31
HETATM   31  C   UNL     1      44.548 -21.113   2.532  1.00  0.00     0.164 C 
BRANCH  31  32
HETATM   32  O   UNL     1      44.346 -22.276   1.735  1.00  0.00    -0.401 OA
HETATM   33  H   UNL     1      44.430 -22.012   0.803  1.00  0.00     0.209 HD
ENDBRANCH  31  32
ENDBRANCH  30  31
ENDBRANCH  29  30
ENDBRANCH   7  29
TORSDOF 7
ENDMDL
MODEL 8
REMARK VINA RESULT:      -7.8      3.670      6.168
REMARK  7 active torsions:
REMARK  status: ('A' for Active; 'I' for Inactive)
REMARK    1  A    between atoms: C_7  and  C_8 
REMARK    2  A    between atoms: C_8  and  C_9 
REMARK    3  A    between atoms: C_9  and  C_10 
REMARK    4  A    between atoms: C_10  and  O_11 
REMARK    5  A    between atoms: C_13  and  C_14 
REMARK    6  A    between atoms: C_21  and  C_22 
REMARK       I    between atoms: C_22  and  N_23 
REMARK    7  A    between atoms: N_23  and  C_24 
ROOT
HETATM    1  C   UNL     1      43.750 -17.265   0.925  1.00  0.00     0.070 C 
HETATM    2  C   UNL     1      42.527 -16.448   1.262  1.00  0.00     0.037 C 
HETATM    3  N   UNL     1      42.123 -15.541   0.279  1.00  0.00    -0.192 N 
HETATM    4  C   UNL     1      40.903 -14.965   0.293  1.00  0.00     0.726 A 
HETATM    5  N   UNL     1      40.157 -15.025   1.434  1.00  0.00    -0.083 N 
HETATM    6  N   UNL     1      38.924 -14.513   1.254  1.00  0.00    -0.140 NA
HETATM    7  C   UNL     1      39.004 -14.126  -0.029  1.00  0.00     0.166 A 
HETATM    8  N   UNL     1      40.209 -14.375  -0.648  1.00  0.00    -0.046 NA
HETATM    9  C   UNL     1      40.613 -15.656   2.671  1.00  0.00     0.202 C 
HETATM   10  C   UNL     1      41.817 -16.562   2.417  1.00  0.00     0.062 C 
HETATM   11  H   UNL     1      42.594 -15.611  -0.621  1.00  0.00     0.184 HD
ENDROOT
BRANCH  10  12
HETATM   12  C   UNL     1      42.036 -17.717   3.345  1.00  0.00     0.256 C 
HETATM   13  N   UNL     1      43.124 -18.507   3.041  1.00  0.00    -0.323 N 
HETATM   14  H   UNL     1      43.610 -18.348   2.169  1.00  0.00     0.169 HD
HETATM   15  O   UNL     1      41.307 -17.847   4.322  1.00  0.00    -0.267 OA
BRANCH  13  16
HETATM   16  C   UNL     1      43.676 -19.541   3.831  1.00  0.00     0.035 A 
HETATM   17  C   UNL     1      43.769 -19.503   5.224  1.00  0.00     0.029 A 
HETATM   18  C   UNL     1      44.358 -20.560   5.926  1.00  0.00     0.002 A 
HETATM   19  C   UNL     1      44.866 -21.660   5.241  1.00  0.00     0.000 A 
HETATM   20  C   UNL     1      44.779 -21.710   3.853  1.00  0.00     0.002 A 
HETATM   21  C   UNL     1      44.180 -20.660   3.153  1.00  0.00     0.029 A 
ENDBRANCH  13  16
ENDBRANCH  10  12
BRANCH   9  22
HETATM   22  C   UNL     1      40.879 -14.563   3.711  1.00  0.00    -0.028 A 
HETATM   23  C   UNL     1      39.985 -14.389   4.782  1.00  0.00     0.011 A 
HETATM   24  C   UNL     1      40.204 -13.398   5.741  1.00  0.00     0.019 A 
HETATM   25  C   UNL     1      41.315 -12.565   5.637  1.00  0.00     0.011 A 
HETATM   26 BR   UNL     1      41.611 -11.224   6.934  1.00  0.00    -0.051 Br
HETATM   27  C   UNL     1      42.205 -12.709   4.577  1.00  0.00     0.019 A 
HETATM   28  C   UNL     1      41.985 -13.697   3.614  1.00  0.00     0.011 A 
ENDBRANCH   9  22
BRANCH   7  29
HETATM   29  C   UNL     1      37.852 -13.527  -0.748  1.00  0.00     0.085 C 
BRANCH  29  30
HETATM   30  C   UNL     1      38.203 -13.057  -2.159  1.00  0.00     0.034 C 
BRANCH  30  31
HETATM   31  C   UNL     1      37.652 -13.968  -3.251  1.00  0.00     0.164 C 
BRANCH  31  32
HETATM   32  O   UNL     1      37.651 -15.317  -2.794  1.00  0.00    -0.401 OA
HETATM   33  H   UNL     1      37.360 -15.878  -3.534  1.00  0.00     0.209 HD
ENDBRANCH  31  32
ENDBRANCH  30  31
ENDBRANCH  29  30
ENDBRANCH   7  29
TORSDOF 7
ENDMDL
MODEL 9
REMARK VINA RESULT:      -7.6      3.814      5.611
REMARK  7 active torsions:
REMARK  status: ('A' for Active; 'I' for Inactive)
REMARK    1  A    between atoms: C_7  and  C_8 
REMARK    2  A    between atoms: C_8  and  C_9 
REMARK    3  A    between atoms: C_9  and  C_10 
REMARK    4  A    between atoms: C_10  and  O_11 
REMARK    5  A    between atoms: C_13  and  C_14 
REMARK    6  A    between atoms: C_21  and  C_22 
REMARK       I    between atoms: C_22  and  N_23 
REMARK    7  A    between atoms: N_23  and  C_24 
ROOT
HETATM    1  C   UNL     1      43.769 -17.013   1.411  1.00  0.00     0.070 C 
HETATM    2  C   UNL     1      42.514 -16.188   1.557  1.00  0.00     0.037 C 
HETATM    3  N   UNL     1      42.163 -15.427   0.439  1.00  0.00    -0.192 N 
HETATM    4  C   UNL     1      40.937 -14.883   0.299  1.00  0.00     0.726 A 
HETATM    5  N   UNL     1      40.117 -14.811   1.388  1.00  0.00    -0.083 N 
HETATM    6  N   UNL     1      38.891 -14.355   1.063  1.00  0.00    -0.140 NA
HETATM    7  C   UNL     1      39.051 -14.138  -0.252  1.00  0.00     0.166 A 
HETATM    8  N   UNL     1      40.298 -14.438  -0.754  1.00  0.00    -0.046 NA
HETATM    9  C   UNL     1      40.499 -15.263   2.724  1.00  0.00     0.202 C 
HETATM   10  C   UNL     1      41.730 -16.166   2.669  1.00  0.00     0.062 C 
HETATM   11  H   UNL     1      42.693 -15.604  -0.411  1.00  0.00     0.184 HD
ENDROOT
BRANCH  10  12
HETATM   12  C   UNL     1      41.904 -17.184   3.755  1.00  0.00     0.256 C 
HETATM   13  N   UNL     1      43.038 -17.025   4.523  1.00  0.00    -0.323 N 
HETATM   14  H   UNL     1      43.725 -16.341   4.237  1.00  0.00     0.169 HD
HETATM   15  O   UNL     1      41.029 -18.024   3.934  1.00  0.00    -0.267 OA
BRANCH  13  16
HETATM   16  C   UNL     1      43.364 -17.712   5.714  1.00  0.00     0.035 A 
HETATM   17  C   UNL     1      43.679 -19.071   5.778  1.00  0.00     0.029 A 
HETATM   18  C   UNL     1      43.962 -19.678   7.007  1.00  0.00     0.002 A 
HETATM   19  C   UNL     1      43.925 -18.933   8.183  1.00  0.00     0.000 A 
HETATM   20  C   UNL     1      43.613 -17.578   8.132  1.00  0.00     0.002 A 
HETATM   21  C   UNL     1      43.342 -16.969   6.903  1.00  0.00     0.029 A 
ENDBRANCH  13  16
ENDBRANCH  10  12
BRANCH   9  22
HETATM   22  C   UNL     1      40.679 -14.037   3.625  1.00  0.00    -0.028 A 
HETATM   23  C   UNL     1      41.549 -13.005   3.229  1.00  0.00     0.011 A 
HETATM   24  C   UNL     1      41.733 -11.878   4.033  1.00  0.00     0.019 A 
HETATM   25  C   UNL     1      41.055 -11.773   5.245  1.00  0.00     0.011 A 
HETATM   26 BR   UNL     1      41.304 -10.249   6.333  1.00  0.00    -0.051 Br
HETATM   27  C   UNL     1      40.200 -12.789   5.664  1.00  0.00     0.019 A 
HETATM   28  C   UNL     1      40.019 -13.919   4.863  1.00  0.00     0.011 A 
ENDBRANCH   9  22
BRANCH   7  29
HETATM   29  C   UNL     1      37.941 -13.665  -1.116  1.00  0.00     0.085 C 
BRANCH  29  30
HETATM   30  C   UNL     1      37.977 -14.262  -2.522  1.00  0.00     0.034 C 
BRANCH  30  31
HETATM   31  C   UNL     1      37.623 -13.256  -3.613  1.00  0.00     0.164 C 
BRANCH  31  32
HETATM   32  O   UNL     1      38.813 -12.649  -4.109  1.00  0.00    -0.401 OA
HETATM   33  H   UNL     1      39.177 -12.094  -3.399  1.00  0.00     0.209 HD
ENDBRANCH  31  32
ENDBRANCH  30  31
ENDBRANCH  29  30
ENDBRANCH   7  29
TORSDOF 7
ENDMDL
MODEL 10
REMARK VINA RESULT:      -7.5      4.017      7.616
REMARK  7 active torsions:
REMARK  status: ('A' for Active; 'I' for Inactive)
REMARK    1  A    between atoms: C_7  and  C_8 
REMARK    2  A    between atoms: C_8  and  C_9 
REMARK    3  A    between atoms: C_9  and  C_10 
REMARK    4  A    between atoms: C_10  and  O_11 
REMARK    5  A    between atoms: C_13  and  C_14 
REMARK    6  A    between atoms: C_21  and  C_22 
REMARK       I    between atoms: C_22  and  N_23 
REMARK    7  A    between atoms: N_23  and  C_24 
ROOT
HETATM    1  C   UNL     1      38.791 -14.361   0.501  1.00  0.00     0.070 C 
HETATM    2  C   UNL     1      39.716 -14.519   1.683  1.00  0.00     0.037 C 
HETATM    3  N   UNL     1      39.658 -15.757   2.328  1.00  0.00    -0.192 N 
HETATM    4  C   UNL     1      40.612 -16.161   3.192  1.00  0.00     0.726 A 
HETATM    5  N   UNL     1      41.492 -15.240   3.682  1.00  0.00    -0.083 N 
HETATM    6  N   UNL     1      42.451 -15.815   4.433  1.00  0.00    -0.140 NA
HETATM    7  C   UNL     1      42.068 -17.100   4.381  1.00  0.00     0.166 A 
HETATM    8  N   UNL     1      40.934 -17.349   3.639  1.00  0.00    -0.046 NA
HETATM    9  C   UNL     1      41.448 -13.817   3.352  1.00  0.00     0.202 C 
HETATM   10  C   UNL     1      40.581 -13.564   2.119  1.00  0.00     0.062 C 
HETATM   11  H   UNL     1      39.113 -16.482   1.865  1.00  0.00     0.184 HD
ENDROOT
BRANCH  10  12
HETATM   12  C   UNL     1      40.885 -12.359   1.281  1.00  0.00     0.256 C 
HETATM   13  N   UNL     1      41.904 -12.530   0.368  1.00  0.00    -0.323 N 
HETATM   14  H   UNL     1      42.453 -13.377   0.407  1.00  0.00     0.169 HD
HETATM   15  O   UNL     1      40.193 -11.355   1.403  1.00  0.00    -0.267 OA
BRANCH  13  16
HETATM   16  C   UNL     1      42.280 -11.642  -0.666  1.00  0.00     0.035 A 
HETATM   17  C   UNL     1      43.010 -10.469  -0.469  1.00  0.00     0.029 A 
HETATM   18  C   UNL     1      43.315  -9.632  -1.547  1.00  0.00     0.002 A 
HETATM   19  C   UNL     1      42.885  -9.957  -2.831  1.00  0.00     0.000 A 
HETATM   20  C   UNL     1      42.158 -11.124  -3.041  1.00  0.00     0.002 A 
HETATM   21  C   UNL     1      41.863 -11.967  -1.965  1.00  0.00     0.029 A 
ENDBRANCH  13  16
ENDBRANCH  10  12
BRANCH   9  22
HETATM   22  C   UNL     1      40.990 -13.039   4.590  1.00  0.00    -0.028 A 
HETATM   23  C   UNL     1      39.822 -13.433   5.266  1.00  0.00     0.011 A 
HETATM   24  C   UNL     1      39.383 -12.739   6.396  1.00  0.00     0.019 A 
HETATM   25  C   UNL     1      40.103 -11.640   6.858  1.00  0.00     0.011 A 
HETATM   26 BR   UNL     1      39.508 -10.701   8.386  1.00  0.00    -0.051 Br
HETATM   27  C   UNL     1      41.254 -11.224   6.197  1.00  0.00     0.019 A 
HETATM   28  C   UNL     1      41.692 -11.914   5.064  1.00  0.00     0.011 A 
ENDBRANCH   9  22
BRANCH   7  29
HETATM   29  C   UNL     1      42.846 -18.185   5.028  1.00  0.00     0.085 C 
BRANCH  29  30
HETATM   30  C   UNL     1      44.132 -18.532   4.278  1.00  0.00     0.034 C 
BRANCH  30  31
HETATM   31  C   UNL     1      43.881 -19.168   2.915  1.00  0.00     0.164 C 
BRANCH  31  32
HETATM   32  O   UNL     1      44.285 -18.270   1.886  1.00  0.00    -0.401 OA
HETATM   33  H   UNL     1      44.457 -18.796   1.087  1.00  0.00     0.209 HD
ENDBRANCH  31  32
ENDBRANCH  30  31
ENDBRANCH  29  30
ENDBRANCH   7  29
TORSDOF 7
ENDMDL
