MODEL 1
REMARK VINA RESULT:      -8.7      0.000      0.000
REMARK  5 active torsions:
REMARK  status: ('A' for Active; 'I' for Inactive)
REMARK    1  A    between atoms: C_2  and  O_3 
REMARK    2  A    between atoms: O_3  and  C_4 
REMARK    3  A    between atoms: C_7  and  C_8 
REMARK       I    between atoms: C_8  and  N_9 
REMARK    4  A    between atoms: N_9  and  N_10 
REMARK    5  A    between atoms: C_11  and  C_12 
ROOT
HETATM    1  C   UNL     1      44.985 -13.291   7.720  1.00  0.00     0.271 C 
HETATM    2  N   UNL     1      44.056 -14.291   7.471  1.00  0.00    -0.243 N 
HETATM    3  O   UNL     1      46.078 -13.190   7.168  1.00  0.00    -0.266 OA
HETATM    4  H   UNL     1      43.222 -14.384   8.035  1.00  0.00     0.192 HD
ENDROOT
BRANCH   2   5
HETATM    5  N   UNL     1      44.375 -15.293   6.597  1.00  0.00    -0.183 NA
HETATM    6  C   UNL     1      43.791 -16.429   6.791  1.00  0.00     0.152 C 
BRANCH   6   7
HETATM    7  C   UNL     1      44.112 -17.547   5.928  1.00  0.00     0.011 A 
HETATM    8  C   UNL     1      43.572 -17.842   4.634  1.00  0.00     0.005 A 
HETATM    9  C   UNL     1      44.168 -19.026   4.193  1.00  0.00     0.043 A 
HETATM   10  C   UNL     1      42.632 -17.210   3.790  1.00  0.00     0.033 A 
HETATM   11  C   UNL     1      43.871 -19.615   2.958  1.00  0.00     0.031 A 
HETATM   12  N   UNL     1      45.039 -19.434   5.177  1.00  0.00    -0.364 N 
HETATM   13  C   UNL     1      42.939 -18.972   2.139  1.00  0.00     0.021 A 
HETATM   14  C   UNL     1      42.333 -17.788   2.552  1.00  0.00     0.012 A 
HETATM   15 BR   UNL     1      41.080 -16.939   1.415  1.00  0.00    -0.051 Br
HETATM   16  H   UNL     1      45.613 -20.265   5.132  1.00  0.00     0.165 HD
HETATM   17  C   UNL     1      45.016 -18.551   6.219  1.00  0.00     0.102 A 
ENDBRANCH   6   7
ENDBRANCH   2   5
BRANCH   1  18
HETATM   18  C   UNL     1      44.616 -12.300   8.773  1.00  0.00     0.033 A 
HETATM   19  C   UNL     1      43.446 -11.535   8.721  1.00  0.00     0.020 A 
HETATM   20  C   UNL     1      43.153 -10.641   9.758  1.00  0.00     0.038 A 
HETATM   21  C   UNL     1      44.020 -10.491  10.845  1.00  0.00     0.068 A 
HETATM   22  C   UNL     1      45.200 -11.230  10.880  1.00  0.00     0.038 A 
HETATM   23  C   UNL     1      45.497 -12.129   9.849  1.00  0.00     0.020 A 
BRANCH  21  24
HETATM   24  O   UNL     1      43.603  -9.593  11.788  1.00  0.00    -0.352 OA
BRANCH  24  25
HETATM   25  C   UNL     1      43.054 -10.129  12.992  1.00  0.00     0.171 C 
HETATM   26  C   UNL     1      43.243  -9.102  14.093  1.00  0.00     0.034 C 
ENDBRANCH  24  25
ENDBRANCH  21  24
ENDBRANCH   1  18
TORSDOF 5
ENDMDL
MODEL 2
REMARK VINA RESULT:      -7.9      2.013      2.445
REMARK  5 active torsions:
REMARK  status: ('A' for Active; 'I' for Inactive)
REMARK    1  A    between atoms: C_2  and  O_3 
REMARK    2  A    between atoms: O_3  and  C_4 
REMARK    3  A    between atoms: C_7  and  C_8 
REMARK       I    between atoms: C_8  and  N_9 
REMARK    4  A    between atoms: N_9  and  N_10 
REMARK    5  A    between atoms: C_11  and  C_12 
ROOT
HETATM    1  C   UNL     1      44.675 -12.785   7.936  1.00  0.00     0.271 C 
HETATM    2  N   UNL     1      43.640 -13.374   7.224  1.00  0.00    -0.243 N 
HETATM    3  O   UNL     1      45.869 -13.016   7.766  1.00  0.00    -0.266 OA
HETATM    4  H   UNL     1      42.674 -13.225   7.483  1.00  0.00     0.192 HD
ENDROOT
BRANCH   2   5
HETATM    5  N   UNL     1      43.933 -14.336   6.297  1.00  0.00    -0.183 NA
HETATM    6  C   UNL     1      43.089 -14.474   5.329  1.00  0.00     0.152 C 
BRANCH   6   7
HETATM    7  C   UNL     1      43.315 -15.503   4.334  1.00  0.00     0.011 A 
HETATM    8  C   UNL     1      43.500 -16.907   4.549  1.00  0.00     0.005 A 
HETATM    9  C   UNL     1      43.699 -17.497   3.298  1.00  0.00     0.043 A 
HETATM   10  C   UNL     1      43.513 -17.737   5.691  1.00  0.00     0.033 A 
HETATM   11  C   UNL     1      43.916 -18.870   3.129  1.00  0.00     0.031 A 
HETATM   12  N   UNL     1      43.634 -16.493   2.359  1.00  0.00    -0.364 N 
HETATM   13  C   UNL     1      43.924 -19.672   4.274  1.00  0.00     0.021 A 
HETATM   14  C   UNL     1      43.724 -19.111   5.532  1.00  0.00     0.012 A 
HETATM   15 BR   UNL     1      43.733 -20.227   7.061  1.00  0.00    -0.051 Br
HETATM   16  H   UNL     1      43.742 -16.626   1.363  1.00  0.00     0.165 HD
HETATM   17  C   UNL     1      43.399 -15.294   2.970  1.00  0.00     0.102 A 
ENDBRANCH   6   7
ENDBRANCH   2   5
BRANCH   1  18
HETATM   18  C   UNL     1      44.271 -11.832   9.012  1.00  0.00     0.033 A 
HETATM   19  C   UNL     1      43.049 -11.152   9.007  1.00  0.00     0.020 A 
HETATM   20  C   UNL     1      42.728 -10.290  10.062  1.00  0.00     0.038 A 
HETATM   21  C   UNL     1      43.618 -10.089  11.122  1.00  0.00     0.068 A 
HETATM   22  C   UNL     1      44.848 -10.743  11.111  1.00  0.00     0.038 A 
HETATM   23  C   UNL     1      45.173 -11.609  10.061  1.00  0.00     0.020 A 
BRANCH  21  24
HETATM   24  O   UNL     1      43.170  -9.232  12.089  1.00  0.00    -0.352 OA
BRANCH  24  25
HETATM   25  C   UNL     1      43.417  -9.602  13.446  1.00  0.00     0.171 C 
HETATM   26  C   UNL     1      42.307 -10.538  13.888  1.00  0.00     0.034 C 
ENDBRANCH  24  25
ENDBRANCH  21  24
ENDBRANCH   1  18
TORSDOF 5
ENDMDL
MODEL 3
REMARK VINA RESULT:      -7.6      6.505      9.788
REMARK  5 active torsions:
REMARK  status: ('A' for Active; 'I' for Inactive)
REMARK    1  A    between atoms: C_2  and  O_3 
REMARK    2  A    between atoms: O_3  and  C_4 
REMARK    3  A    between atoms: C_7  and  C_8 
REMARK       I    between atoms: C_8  and  N_9 
REMARK    4  A    between atoms: N_9  and  N_10 
REMARK    5  A    between atoms: C_11  and  C_12 
ROOT
HETATM    1  C   UNL     1      41.419 -15.817   0.247  1.00  0.00     0.271 C 
HETATM    2  N   UNL     1      42.526 -16.654   0.248  1.00  0.00    -0.243 N 
HETATM    3  O   UNL     1      40.552 -15.793   1.115  1.00  0.00    -0.266 OA
HETATM    4  H   UNL     1      43.147 -16.704  -0.548  1.00  0.00     0.192 HD
ENDROOT
BRANCH   2   5
HETATM    5  N   UNL     1      42.658 -17.579   1.247  1.00  0.00    -0.183 NA
HETATM    6  C   UNL     1      43.853 -18.023   1.461  1.00  0.00     0.152 C 
BRANCH   6   7
HETATM    7  C   UNL     1      44.061 -19.035   2.476  1.00  0.00     0.011 A 
HETATM    8  C   UNL     1      44.028 -18.872   3.899  1.00  0.00     0.005 A 
HETATM    9  C   UNL     1      44.301 -20.119   4.468  1.00  0.00     0.043 A 
HETATM   10  C   UNL     1      43.788 -17.780   4.761  1.00  0.00     0.033 A 
HETATM   11  C   UNL     1      44.351 -20.332   5.851  1.00  0.00     0.031 A 
HETATM   12  N   UNL     1      44.488 -21.006   3.433  1.00  0.00    -0.364 N 
HETATM   13  C   UNL     1      44.109 -19.236   6.685  1.00  0.00     0.021 A 
HETATM   14  C   UNL     1      43.831 -17.983   6.145  1.00  0.00     0.012 A 
HETATM   15 BR   UNL     1      43.499 -16.524   7.304  1.00  0.00    -0.051 Br
HETATM   16  H   UNL     1      44.700 -21.988   3.545  1.00  0.00     0.165 HD
HETATM   17  C   UNL     1      44.342 -20.367   2.234  1.00  0.00     0.102 A 
ENDBRANCH   6   7
ENDBRANCH   2   5
BRANCH   1  18
HETATM   18  C   UNL     1      41.280 -14.917  -0.936  1.00  0.00     0.033 A 
HETATM   19  C   UNL     1      40.876 -15.373  -2.196  1.00  0.00     0.020 A 
HETATM   20  C   UNL     1      40.745 -14.466  -3.254  1.00  0.00     0.038 A 
HETATM   21  C   UNL     1      41.025 -13.108  -3.077  1.00  0.00     0.068 A 
HETATM   22  C   UNL     1      41.457 -12.660  -1.830  1.00  0.00     0.038 A 
HETATM   23  C   UNL     1      41.586 -13.560  -0.767  1.00  0.00     0.020 A 
BRANCH  21  24
HETATM   24  O   UNL     1      40.843 -12.337  -4.190  1.00  0.00    -0.352 OA
BRANCH  24  25
HETATM   25  C   UNL     1      41.144 -10.946  -4.071  1.00  0.00     0.171 C 
HETATM   26  C   UNL     1      42.373 -10.656  -4.913  1.00  0.00     0.034 C 
ENDBRANCH  24  25
ENDBRANCH  21  24
ENDBRANCH   1  18
TORSDOF 5
ENDMDL
MODEL 4
REMARK VINA RESULT:      -7.6      6.376     10.506
REMARK  5 active torsions:
REMARK  status: ('A' for Active; 'I' for Inactive)
REMARK    1  A    between atoms: C_2  and  O_3 
REMARK    2  A    between atoms: O_3  and  C_4 
REMARK    3  A    between atoms: C_7  and  C_8 
REMARK       I    between atoms: C_8  and  N_9 
REMARK    4  A    between atoms: N_9  and  N_10 
REMARK    5  A    between atoms: C_11  and  C_12 
ROOT
HETATM    1  C   UNL     1      41.048 -14.857  -0.439  1.00  0.00     0.271 C 
HETATM    2  N   UNL     1      41.006 -16.179  -0.019  1.00  0.00    -0.243 N 
HETATM    3  O   UNL     1      41.884 -14.031  -0.085  1.00  0.00    -0.266 OA
HETATM    4  H   UNL     1      40.230 -16.781  -0.260  1.00  0.00     0.192 HD
ENDROOT
BRANCH   2   5
HETATM    5  N   UNL     1      41.912 -16.611   0.910  1.00  0.00    -0.183 NA
HETATM    6  C   UNL     1      41.504 -16.645   2.135  1.00  0.00     0.152 C 
BRANCH   6   7
HETATM    7  C   UNL     1      42.424 -17.053   3.177  1.00  0.00     0.011 A 
HETATM    8  C   UNL     1      43.169 -18.275   3.262  1.00  0.00     0.005 A 
HETATM    9  C   UNL     1      43.908 -18.230   4.447  1.00  0.00     0.043 A 
HETATM   10  C   UNL     1      43.288 -19.416   2.440  1.00  0.00     0.033 A 
HETATM   11  C   UNL     1      44.755 -19.267   4.857  1.00  0.00     0.031 A 
HETATM   12  N   UNL     1      43.627 -17.028   5.057  1.00  0.00    -0.364 N 
HETATM   13  C   UNL     1      44.858 -20.387   4.026  1.00  0.00     0.021 A 
HETATM   14  C   UNL     1      44.137 -20.455   2.838  1.00  0.00     0.012 A 
HETATM   15 BR   UNL     1      44.307 -21.983   1.733  1.00  0.00    -0.051 Br
HETATM   16  H   UNL     1      44.022 -16.720   5.935  1.00  0.00     0.165 HD
HETATM   17  C   UNL     1      42.743 -16.314   4.301  1.00  0.00     0.102 A 
ENDBRANCH   6   7
ENDBRANCH   2   5
BRANCH   1  18
HETATM   18  C   UNL     1      39.955 -14.427  -1.361  1.00  0.00     0.033 A 
HETATM   19  C   UNL     1      39.832 -14.905  -2.670  1.00  0.00     0.020 A 
HETATM   20  C   UNL     1      38.767 -14.474  -3.470  1.00  0.00     0.038 A 
HETATM   21  C   UNL     1      37.826 -13.562  -2.984  1.00  0.00     0.068 A 
HETATM   22  C   UNL     1      37.966 -13.063  -1.691  1.00  0.00     0.038 A 
HETATM   23  C   UNL     1      39.027 -13.492  -0.885  1.00  0.00     0.020 A 
BRANCH  21  24
HETATM   24  O   UNL     1      36.834 -13.239  -3.868  1.00  0.00    -0.352 OA
BRANCH  24  25
HETATM   25  C   UNL     1      36.350 -14.286  -4.709  1.00  0.00     0.171 C 
HETATM   26  C   UNL     1      35.197 -13.738  -5.529  1.00  0.00     0.034 C 
ENDBRANCH  24  25
ENDBRANCH  21  24
ENDBRANCH   1  18
TORSDOF 5
ENDMDL
MODEL 5
REMARK VINA RESULT:      -7.6      7.422     10.364
REMARK  5 active torsions:
REMARK  status: ('A' for Active; 'I' for Inactive)
REMARK    1  A    between atoms: C_2  and  O_3 
REMARK    2  A    between atoms: O_3  and  C_4 
REMARK    3  A    between atoms: C_7  and  C_8 
REMARK       I    between atoms: C_8  and  N_9 
REMARK    4  A    between atoms: N_9  and  N_10 
REMARK    5  A    between atoms: C_11  and  C_12 
ROOT
HETATM    1  C   UNL     1      41.589 -17.083   1.429  1.00  0.00     0.271 C 
HETATM    2  N   UNL     1      42.166 -16.385   0.378  1.00  0.00    -0.243 N 
HETATM    3  O   UNL     1      40.407 -17.019   1.753  1.00  0.00    -0.266 OA
HETATM    4  H   UNL     1      43.167 -16.395   0.229  1.00  0.00     0.192 HD
ENDROOT
BRANCH   2   5
HETATM    5  N   UNL     1      41.402 -15.501  -0.333  1.00  0.00    -0.183 NA
HETATM    6  C   UNL     1      41.328 -15.705  -1.606  1.00  0.00     0.152 C 
BRANCH   6   7
HETATM    7  C   UNL     1      40.569 -14.784  -2.428  1.00  0.00     0.011 A 
HETATM    8  C   UNL     1      40.826 -13.392  -2.653  1.00  0.00     0.005 A 
HETATM    9  C   UNL     1      39.822 -12.915  -3.500  1.00  0.00     0.043 A 
HETATM   10  C   UNL     1      41.822 -12.490  -2.219  1.00  0.00     0.033 A 
HETATM   11  C   UNL     1      39.757 -11.585  -3.932  1.00  0.00     0.031 A 
HETATM   12  N   UNL     1      38.990 -13.974  -3.782  1.00  0.00    -0.364 N 
HETATM   13  C   UNL     1      40.754 -10.710  -3.490  1.00  0.00     0.021 A 
HETATM   14  C   UNL     1      41.768 -11.160  -2.649  1.00  0.00     0.012 A 
HETATM   15 BR   UNL     1      43.107  -9.950  -2.077  1.00  0.00    -0.051 Br
HETATM   16  H   UNL     1      38.173 -13.925  -4.375  1.00  0.00     0.165 HD
HETATM   17  C   UNL     1      39.433 -15.100  -3.148  1.00  0.00     0.102 A 
ENDBRANCH   6   7
ENDBRANCH   2   5
BRANCH   1  18
HETATM   18  C   UNL     1      42.512 -17.937   2.234  1.00  0.00     0.033 A 
HETATM   19  C   UNL     1      43.404 -18.846   1.656  1.00  0.00     0.020 A 
HETATM   20  C   UNL     1      44.257 -19.599   2.473  1.00  0.00     0.038 A 
HETATM   21  C   UNL     1      44.223 -19.464   3.865  1.00  0.00     0.068 A 
HETATM   22  C   UNL     1      43.312 -18.581   4.441  1.00  0.00     0.038 A 
HETATM   23  C   UNL     1      42.460 -17.823   3.629  1.00  0.00     0.020 A 
BRANCH  21  24
HETATM   24  O   UNL     1      45.117 -20.250   4.537  1.00  0.00    -0.352 OA
BRANCH  24  25
HETATM   25  C   UNL     1      44.578 -21.268   5.380  1.00  0.00     0.171 C 
HETATM   26  C   UNL     1      44.785 -22.606   4.695  1.00  0.00     0.034 C 
ENDBRANCH  24  25
ENDBRANCH  21  24
ENDBRANCH   1  18
TORSDOF 5
ENDMDL
MODEL 6
REMARK VINA RESULT:      -7.5      3.159      9.535
REMARK  5 active torsions:
REMARK  status: ('A' for Active; 'I' for Inactive)
REMARK    1  A    between atoms: C_2  and  O_3 
REMARK    2  A    between atoms: O_3  and  C_4 
REMARK    3  A    between atoms: C_7  and  C_8 
REMARK       I    between atoms: C_8  and  N_9 
REMARK    4  A    between atoms: N_9  and  N_10 
REMARK    5  A    between atoms: C_11  and  C_12 
ROOT
HETATM    1  C   UNL     1      43.360 -15.420   5.970  1.00  0.00     0.271 C 
HETATM    2  N   UNL     1      44.443 -15.275   6.825  1.00  0.00    -0.243 N 
HETATM    3  O   UNL     1      42.298 -14.811   6.068  1.00  0.00    -0.266 OA
HETATM    4  H   UNL     1      45.249 -15.884   6.758  1.00  0.00     0.192 HD
ENDROOT
BRANCH   2   5
HETATM    5  N   UNL     1      44.331 -14.447   7.907  1.00  0.00    -0.183 NA
HETATM    6  C   UNL     1      44.792 -13.249   7.760  1.00  0.00     0.152 C 
BRANCH   6   7
HETATM    7  C   UNL     1      44.744 -12.329   8.879  1.00  0.00     0.011 A 
HETATM    8  C   UNL     1      43.720 -11.376   9.188  1.00  0.00     0.005 A 
HETATM    9  C   UNL     1      44.113 -10.705  10.349  1.00  0.00     0.043 A 
HETATM   10  C   UNL     1      42.490 -11.021   8.593  1.00  0.00     0.033 A 
HETATM   11  C   UNL     1      43.346  -9.695  10.943  1.00  0.00     0.031 A 
HETATM   12  N   UNL     1      45.326 -11.231  10.733  1.00  0.00    -0.364 N 
HETATM   13  C   UNL     1      42.131  -9.361  10.337  1.00  0.00     0.021 A 
HETATM   14  C   UNL     1      41.714 -10.017   9.182  1.00  0.00     0.012 A 
HETATM   15 BR   UNL     1      40.059  -9.546   8.391  1.00  0.00    -0.051 Br
HETATM   16  H   UNL     1      45.852 -10.937  11.544  1.00  0.00     0.165 HD
HETATM   17  C   UNL     1      45.710 -12.209   9.860  1.00  0.00     0.102 A 
ENDBRANCH   6   7
ENDBRANCH   2   5
BRANCH   1  18
HETATM   18  C   UNL     1      43.514 -16.430   4.882  1.00  0.00     0.033 A 
HETATM   19  C   UNL     1      43.274 -16.141   3.535  1.00  0.00     0.020 A 
HETATM   20  C   UNL     1      43.461 -17.134   2.566  1.00  0.00     0.038 A 
HETATM   21  C   UNL     1      43.875 -18.420   2.925  1.00  0.00     0.068 A 
HETATM   22  C   UNL     1      44.084 -18.717   4.270  1.00  0.00     0.038 A 
HETATM   23  C   UNL     1      43.903 -17.727   5.243  1.00  0.00     0.020 A 
BRANCH  21  24
HETATM   24  O   UNL     1      44.029 -19.284   1.877  1.00  0.00    -0.352 OA
BRANCH  24  25
HETATM   25  C   UNL     1      43.309 -20.515   1.942  1.00  0.00     0.171 C 
HETATM   26  C   UNL     1      44.316 -21.651   1.920  1.00  0.00     0.034 C 
ENDBRANCH  24  25
ENDBRANCH  21  24
ENDBRANCH   1  18
TORSDOF 5
ENDMDL
MODEL 7
REMARK VINA RESULT:      -7.0      3.509      4.294
REMARK  5 active torsions:
REMARK  status: ('A' for Active; 'I' for Inactive)
REMARK    1  A    between atoms: C_2  and  O_3 
REMARK    2  A    between atoms: O_3  and  C_4 
REMARK    3  A    between atoms: C_7  and  C_8 
REMARK       I    between atoms: C_8  and  N_9 
REMARK    4  A    between atoms: N_9  and  N_10 
REMARK    5  A    between atoms: C_11  and  C_12 
ROOT
HETATM    1  C   UNL     1      39.781 -11.689   6.824  1.00  0.00     0.271 C 
HETATM    2  N   UNL     1      40.249 -12.974   6.589  1.00  0.00    -0.243 N 
HETATM    3  O   UNL     1      39.057 -11.052   6.064  1.00  0.00    -0.266 OA
HETATM    4  H   UNL     1      40.931 -13.404   7.201  1.00  0.00     0.192 HD
ENDROOT
BRANCH   2   5
HETATM    5  N   UNL     1      39.953 -13.583   5.401  1.00  0.00    -0.183 NA
HETATM    6  C   UNL     1      40.765 -14.511   5.015  1.00  0.00     0.152 C 
BRANCH   6   7
HETATM    7  C   UNL     1      40.535 -15.171   3.746  1.00  0.00     0.011 A 
HETATM    8  C   UNL     1      41.220 -16.310   3.211  1.00  0.00     0.005 A 
HETATM    9  C   UNL     1      40.668 -16.577   1.956  1.00  0.00     0.043 A 
HETATM   10  C   UNL     1      42.259 -17.144   3.678  1.00  0.00     0.033 A 
HETATM   11  C   UNL     1      41.101 -17.630   1.141  1.00  0.00     0.031 A 
HETATM   12  N   UNL     1      39.682 -15.641   1.737  1.00  0.00    -0.364 N 
HETATM   13  C   UNL     1      42.130 -18.443   1.624  1.00  0.00     0.021 A 
HETATM   14  C   UNL     1      42.696 -18.202   2.873  1.00  0.00     0.012 A 
HETATM   15 BR   UNL     1      44.082 -19.329   3.500  1.00  0.00    -0.051 Br
HETATM   16  H   UNL     1      39.109 -15.590   0.907  1.00  0.00     0.165 HD
HETATM   17  C   UNL     1      39.592 -14.796   2.807  1.00  0.00     0.102 A 
ENDBRANCH   6   7
ENDBRANCH   2   5
BRANCH   1  18
HETATM   18  C   UNL     1      40.244 -11.044   8.088  1.00  0.00     0.033 A 
HETATM   19  C   UNL     1      39.411 -10.856   9.196  1.00  0.00     0.020 A 
HETATM   20  C   UNL     1      39.921 -10.264  10.357  1.00  0.00     0.038 A 
HETATM   21  C   UNL     1      41.253  -9.844  10.425  1.00  0.00     0.068 A 
HETATM   22  C   UNL     1      42.074 -10.003   9.311  1.00  0.00     0.038 A 
HETATM   23  C   UNL     1      41.571 -10.598   8.148  1.00  0.00     0.020 A 
BRANCH  21  24
HETATM   24  O   UNL     1      41.619  -9.294  11.622  1.00  0.00    -0.352 OA
BRANCH  24  25
HETATM   25  C   UNL     1      42.048 -10.195  12.644  1.00  0.00     0.171 C 
HETATM   26  C   UNL     1      43.352  -9.670  13.217  1.00  0.00     0.034 C 
ENDBRANCH  24  25
ENDBRANCH  21  24
ENDBRANCH   1  18
TORSDOF 5
ENDMDL
MODEL 8
REMARK VINA RESULT:      -7.0      6.585     10.077
REMARK  5 active torsions:
REMARK  status: ('A' for Active; 'I' for Inactive)
REMARK    1  A    between atoms: C_2  and  O_3 
REMARK    2  A    between atoms: O_3  and  C_4 
REMARK    3  A    between atoms: C_7  and  C_8 
REMARK       I    between atoms: C_8  and  N_9 
REMARK    4  A    between atoms: N_9  and  N_10 
REMARK    5  A    between atoms: C_11  and  C_12 
ROOT
HETATM    1  C   UNL     1      40.972 -16.508   3.285  1.00  0.00     0.271 C 
HETATM    2  N   UNL     1      40.110 -16.567   2.200  1.00  0.00    -0.243 N 
HETATM    3  O   UNL     1      40.939 -15.655   4.168  1.00  0.00    -0.266 OA
HETATM    4  H   UNL     1      40.256 -17.229   1.449  1.00  0.00     0.192 HD
ENDROOT
BRANCH   2   5
HETATM    5  N   UNL     1      39.179 -15.579   2.036  1.00  0.00    -0.183 NA
HETATM    6  C   UNL     1      39.481 -14.642   1.199  1.00  0.00     0.152 C 
BRANCH   6   7
HETATM    7  C   UNL     1      38.559 -13.541   1.006  1.00  0.00     0.011 A 
HETATM    8  C   UNL     1      38.369 -12.397   1.848  1.00  0.00     0.005 A 
HETATM    9  C   UNL     1      37.366 -11.616   1.268  1.00  0.00     0.043 A 
HETATM   10  C   UNL     1      38.959 -11.948   3.049  1.00  0.00     0.033 A 
HETATM   11  C   UNL     1      36.918 -10.413   1.828  1.00  0.00     0.031 A 
HETATM   12  N   UNL     1      36.964 -12.256   0.118  1.00  0.00    -0.364 N 
HETATM   13  C   UNL     1      37.517  -9.987   3.017  1.00  0.00     0.021 A 
HETATM   14  C   UNL     1      38.522 -10.744   3.613  1.00  0.00     0.012 A 
HETATM   15 BR   UNL     1      39.318 -10.134   5.219  1.00  0.00    -0.051 Br
HETATM   16  H   UNL     1      36.248 -11.920  -0.510  1.00  0.00     0.165 HD
HETATM   17  C   UNL     1      37.677 -13.409  -0.050  1.00  0.00     0.102 A 
ENDBRANCH   6   7
ENDBRANCH   2   5
BRANCH   1  18
HETATM   18  C   UNL     1      42.038 -17.553   3.333  1.00  0.00     0.033 A 
HETATM   19  C   UNL     1      42.758 -17.853   4.494  1.00  0.00     0.020 A 
HETATM   20  C   UNL     1      43.728 -18.862   4.470  1.00  0.00     0.038 A 
HETATM   21  C   UNL     1      43.998 -19.572   3.296  1.00  0.00     0.068 A 
HETATM   22  C   UNL     1      43.303 -19.251   2.132  1.00  0.00     0.038 A 
HETATM   23  C   UNL     1      42.329 -18.246   2.150  1.00  0.00     0.020 A 
BRANCH  21  24
HETATM   24  O   UNL     1      44.959 -20.536   3.419  1.00  0.00    -0.352 OA
BRANCH  24  25
HETATM   25  C   UNL     1      45.023 -21.231   4.665  1.00  0.00     0.171 C 
HETATM   26  C   UNL     1      44.655 -22.682   4.415  1.00  0.00     0.034 C 
ENDBRANCH  24  25
ENDBRANCH  21  24
ENDBRANCH   1  18
TORSDOF 5
ENDMDL
MODEL 9
REMARK VINA RESULT:      -7.0      6.040      9.700
REMARK  5 active torsions:
REMARK  status: ('A' for Active; 'I' for Inactive)
REMARK    1  A    between atoms: C_2  and  O_3 
REMARK    2  A    between atoms: O_3  and  C_4 
REMARK    3  A    between atoms: C_7  and  C_8 
REMARK       I    between atoms: C_8  and  N_9 
REMARK    4  A    between atoms: N_9  and  N_10 
REMARK    5  A    between atoms: C_11  and  C_12 
ROOT
HETATM    1  C   UNL     1      41.413 -15.802   0.096  1.00  0.00     0.271 C 
HETATM    2  N   UNL     1      42.234 -15.219   1.051  1.00  0.00    -0.243 N 
HETATM    3  O   UNL     1      41.174 -17.003   0.009  1.00  0.00    -0.266 OA
HETATM    4  H   UNL     1      42.479 -14.239   1.005  1.00  0.00     0.192 HD
ENDROOT
BRANCH   2   5
HETATM    5  N   UNL     1      42.894 -16.022   1.939  1.00  0.00    -0.183 NA
HETATM    6  C   UNL     1      42.470 -15.995   3.160  1.00  0.00     0.152 C 
BRANCH   6   7
HETATM    7  C   UNL     1      43.149 -16.790   4.163  1.00  0.00     0.011 A 
HETATM    8  C   UNL     1      43.617 -18.139   4.046  1.00  0.00     0.005 A 
HETATM    9  C   UNL     1      44.191 -18.488   5.271  1.00  0.00     0.043 A 
HETATM   10  C   UNL     1      43.609 -19.099   3.011  1.00  0.00     0.033 A 
HETATM   11  C   UNL     1      44.754 -19.746   5.518  1.00  0.00     0.031 A 
HETATM   12  N   UNL     1      44.082 -17.394   6.099  1.00  0.00    -0.364 N 
HETATM   13  C   UNL     1      44.737 -20.681   4.478  1.00  0.00     0.021 A 
HETATM   14  C   UNL     1      44.174 -20.358   3.247  1.00  0.00     0.012 A 
HETATM   15 BR   UNL     1      44.174 -21.644   1.858  1.00  0.00    -0.051 Br
HETATM   16  H   UNL     1      44.415 -17.356   7.052  1.00  0.00     0.165 HD
HETATM   17  C   UNL     1      43.463 -16.369   5.442  1.00  0.00     0.102 A 
ENDBRANCH   6   7
ENDBRANCH   2   5
BRANCH   1  18
HETATM   18  C   UNL     1      40.822 -14.874  -0.913  1.00  0.00     0.033 A 
HETATM   19  C   UNL     1      40.384 -13.584  -0.596  1.00  0.00     0.020 A 
HETATM   20  C   UNL     1      39.861 -12.761  -1.600  1.00  0.00     0.038 A 
HETATM   21  C   UNL     1      39.757 -13.213  -2.920  1.00  0.00     0.068 A 
HETATM   22  C   UNL     1      40.164 -14.509  -3.229  1.00  0.00     0.038 A 
HETATM   23  C   UNL     1      40.692 -15.335  -2.230  1.00  0.00     0.020 A 
BRANCH  21  24
HETATM   24  O   UNL     1      39.240 -12.301  -3.797  1.00  0.00    -0.352 OA
BRANCH  24  25
HETATM   25  C   UNL     1      38.039 -11.636  -3.406  1.00  0.00     0.171 C 
HETATM   26  C   UNL     1      36.885 -12.608  -3.573  1.00  0.00     0.034 C 
ENDBRANCH  24  25
ENDBRANCH  21  24
ENDBRANCH   1  18
TORSDOF 5
ENDMDL
MODEL 10
REMARK VINA RESULT:      -7.0      6.968     10.317
REMARK  5 active torsions:
REMARK  status: ('A' for Active; 'I' for Inactive)
REMARK    1  A    between atoms: C_2  and  O_3 
REMARK    2  A    between atoms: O_3  and  C_4 
REMARK    3  A    between atoms: C_7  and  C_8 
REMARK       I    between atoms: C_8  and  N_9 
REMARK    4  A    between atoms: N_9  and  N_10 
REMARK    5  A    between atoms: C_11  and  C_12 
ROOT
HETATM    1  C   UNL     1      42.522 -15.803   1.533  1.00  0.00     0.271 C 
HETATM    2  N   UNL     1      42.088 -16.015   0.232  1.00  0.00    -0.243 N 
HETATM    3  O   UNL     1      42.509 -14.722   2.114  1.00  0.00    -0.266 OA
HETATM    4  H   UNL     1      42.226 -16.905  -0.228  1.00  0.00     0.192 HD
ENDROOT
BRANCH   2   5
HETATM    5  N   UNL     1      41.667 -14.947  -0.510  1.00  0.00    -0.183 NA
HETATM    6  C   UNL     1      40.747 -15.186  -1.385  1.00  0.00     0.152 C 
BRANCH   6   7
HETATM    7  C   UNL     1      40.281 -14.110  -2.236  1.00  0.00     0.011 A 
HETATM    8  C   UNL     1      39.230 -13.173  -1.971  1.00  0.00     0.005 A 
HETATM    9  C   UNL     1      39.130 -12.333  -3.083  1.00  0.00     0.043 A 
HETATM   10  C   UNL     1      38.353 -12.955  -0.886  1.00  0.00     0.033 A 
HETATM   11  C   UNL     1      38.199 -11.291  -3.171  1.00  0.00     0.031 A 
HETATM   12  N   UNL     1      40.085 -12.739  -3.987  1.00  0.00    -0.364 N 
HETATM   13  C   UNL     1      37.341 -11.094  -2.085  1.00  0.00     0.021 A 
HETATM   14  C   UNL     1      37.422 -11.914  -0.962  1.00  0.00     0.012 A 
HETATM   15 BR   UNL     1      36.251 -11.614   0.495  1.00  0.00    -0.051 Br
HETATM   16  H   UNL     1      40.247 -12.311  -4.888  1.00  0.00     0.165 HD
HETATM   17  C   UNL     1      40.784 -13.801  -3.486  1.00  0.00     0.102 A 
ENDBRANCH   6   7
ENDBRANCH   2   5
BRANCH   1  18
HETATM   18  C   UNL     1      43.080 -16.994   2.240  1.00  0.00     0.033 A 
HETATM   19  C   UNL     1      43.617 -18.096   1.567  1.00  0.00     0.020 A 
HETATM   20  C   UNL     1      44.143 -19.169   2.296  1.00  0.00     0.038 A 
HETATM   21  C   UNL     1      44.131 -19.162   3.695  1.00  0.00     0.068 A 
HETATM   22  C   UNL     1      43.568 -18.078   4.365  1.00  0.00     0.038 A 
HETATM   23  C   UNL     1      43.043 -17.001   3.641  1.00  0.00     0.020 A 
BRANCH  21  24
HETATM   24  O   UNL     1      44.688 -20.266   4.277  1.00  0.00    -0.352 OA
BRANCH  24  25
HETATM   25  C   UNL     1      44.677 -21.474   3.515  1.00  0.00     0.171 C 
HETATM   26  C   UNL     1      44.677 -22.642   4.484  1.00  0.00     0.034 C 
ENDBRANCH  24  25
ENDBRANCH  21  24
ENDBRANCH   1  18
TORSDOF 5
ENDMDL
