MODEL 1
REMARK VINA RESULT:     -11.1      0.000      0.000
REMARK  8 active torsions:
REMARK  status: ('A' for Active; 'I' for Inactive)
REMARK    1  A    between atoms: C_6  and  N_7 
REMARK       I    between atoms: N_7  and  C_8 
REMARK    2  A    between atoms: C_8  and  C_9 
REMARK    3  A    between atoms: C_9  and  N_10 
REMARK    4  A    between atoms: N_14  and  C_15 
REMARK    5  A    between atoms: C_17  and  N_18 
REMARK    6  A    between atoms: N_18  and  C_19 
REMARK    7  A    between atoms: C_26  and  N_27 
REMARK    8  A    between atoms: N_27  and  C_28 
ROOT
HETATM    1  C   UNL     1      41.915 -16.368   4.637  1.00  0.00     0.756 A 
HETATM    2  N   UNL     1      42.921 -17.186   4.386  1.00  0.00     0.131 NA
HETATM    3  C   UNL     1      42.959 -17.704   3.159  1.00  0.00     0.758 A 
HETATM    4  N   UNL     1      42.072 -17.425   2.211  1.00  0.00     0.131 NA
HETATM    5  C   UNL     1      41.088 -16.606   2.550  1.00  0.00     0.758 A 
HETATM    6  N   UNL     1      40.958 -16.098   3.767  1.00  0.00     0.131 NA
ENDROOT
BRANCH   1   7
HETATM    7  N   UNL     1      41.839 -15.723   5.867  1.00  0.00    -0.210 N 
HETATM    8  C   UNL     1      40.532 -15.160   6.231  1.00  0.00     0.169 C 
HETATM    9  C   UNL     1      40.394 -13.681   5.821  1.00  0.00     0.256 C 
HETATM   10  N   UNL     1      41.602 -12.902   6.362  1.00  0.00    -0.060 N 
HETATM   11  H   UNL     1      41.664 -13.129   7.361  1.00  0.00     0.280 HD
HETATM   12  C   UNL     1      42.879 -13.459   5.731  1.00  0.00     0.256 C 
HETATM   13  C   UNL     1      43.042 -14.935   6.173  1.00  0.00     0.169 C 
BRANCH  10  14
HETATM   14  C   UNL     1      41.467 -11.389   6.283  1.00  0.00     0.337 C 
BRANCH  14  15
HETATM   15  C   UNL     1      41.969 -10.580   7.485  1.00  0.00     0.248 C 
HETATM   16  N   UNL     1      42.187 -11.380   8.599  1.00  0.00    -0.325 N 
HETATM   17  H   UNL     1      41.786 -12.309   8.573  1.00  0.00     0.169 HD
HETATM   18  O   UNL     1      42.088  -9.363   7.411  1.00  0.00    -0.271 OA
BRANCH  16  19
HETATM   19  C   UNL     1      42.553 -10.949   9.902  1.00  0.00     0.046 A 
HETATM   20  C   UNL     1      41.493 -10.730  10.821  1.00  0.00    -0.034 A 
HETATM   21  C   UNL     1      41.772 -10.243  12.110  1.00  0.00     0.015 A 
HETATM   22  C   UNL     1      40.044 -10.962  10.472  1.00  0.00     0.050 C 
HETATM   23  C   UNL     1      43.080  -9.993  12.518  1.00  0.00    -0.061 A 
HETATM   24  C   UNL     1      43.365  -9.423  13.875  1.00  0.00     0.048 C 
HETATM   25  C   UNL     1      44.121 -10.253  11.624  1.00  0.00     0.015 A 
HETATM   26  C   UNL     1      43.883 -10.769  10.333  1.00  0.00    -0.034 A 
HETATM   27  C   UNL     1      45.106 -11.148   9.543  1.00  0.00     0.050 C 
ENDBRANCH  16  19
ENDBRANCH  14  15
ENDBRANCH  10  14
ENDBRANCH   1   7
BRANCH   3  28
HETATM   28  N   UNL     1      44.003 -18.541   2.775  1.00  0.00    -0.187 N 
HETATM   29  H   UNL     1      44.519 -18.128   2.009  1.00  0.00     0.184 HD
BRANCH  28  30
HETATM   30  C   UNL     1      44.248 -19.902   2.998  1.00  0.00     0.049 A 
HETATM   31  C   UNL     1      44.036 -20.890   2.030  1.00  0.00     0.030 A 
HETATM   32  C   UNL     1      44.269 -22.240   2.314  1.00  0.00     0.002 A 
HETATM   33  C   UNL     1      44.696 -22.622   3.582  1.00  0.00     0.000 A 
HETATM   34  C   UNL     1      44.891 -21.656   4.566  1.00  0.00     0.002 A 
HETATM   35  C   UNL     1      44.665 -20.309   4.274  1.00  0.00     0.030 A 
ENDBRANCH  28  30
ENDBRANCH   3  28
BRANCH   5  36
HETATM   36  N   UNL     1      40.155 -16.322   1.555  1.00  0.00    -0.187 N 
HETATM   37  H   UNL     1      40.066 -17.109   0.927  1.00  0.00     0.184 HD
BRANCH  36  38
HETATM   38  C   UNL     1      39.636 -15.110   1.074  1.00  0.00     0.049 A 
HETATM   39  C   UNL     1      38.395 -14.587   1.456  1.00  0.00     0.030 A 
HETATM   40  C   UNL     1      37.912 -13.390   0.915  1.00  0.00     0.002 A 
HETATM   41  C   UNL     1      38.657 -12.704  -0.039  1.00  0.00     0.000 A 
HETATM   42  C   UNL     1      39.882 -13.218  -0.453  1.00  0.00     0.002 A 
HETATM   43  C   UNL     1      40.362 -14.411   0.095  1.00  0.00     0.030 A 
ENDBRANCH  36  38
ENDBRANCH   5  36
TORSDOF 8
ENDMDL
MODEL 2
REMARK VINA RESULT:     -11.0      0.205      5.594
REMARK  8 active torsions:
REMARK  status: ('A' for Active; 'I' for Inactive)
REMARK    1  A    between atoms: C_6  and  N_7 
REMARK       I    between atoms: N_7  and  C_8 
REMARK    2  A    between atoms: C_8  and  C_9 
REMARK    3  A    between atoms: C_9  and  N_10 
REMARK    4  A    between atoms: N_14  and  C_15 
REMARK    5  A    between atoms: C_17  and  N_18 
REMARK    6  A    between atoms: N_18  and  C_19 
REMARK    7  A    between atoms: C_26  and  N_27 
REMARK    8  A    between atoms: N_27  and  C_28 
ROOT
HETATM    1  C   UNL     1      42.100 -16.161   4.391  1.00  0.00     0.756 A 
HETATM    2  N   UNL     1      41.137 -15.876   3.532  1.00  0.00     0.131 NA
HETATM    3  C   UNL     1      41.182 -16.525   2.371  1.00  0.00     0.758 A 
HETATM    4  N   UNL     1      42.107 -17.427   2.062  1.00  0.00     0.131 NA
HETATM    5  C   UNL     1      43.043 -17.643   2.975  1.00  0.00     0.758 A 
HETATM    6  N   UNL     1      43.091 -16.994   4.128  1.00  0.00     0.131 NA
ENDROOT
BRANCH   1   7
HETATM    7  N   UNL     1      42.089 -15.586   5.658  1.00  0.00    -0.210 N 
HETATM    8  C   UNL     1      40.781 -15.164   6.175  1.00  0.00     0.169 C 
HETATM    9  C   UNL     1      40.474 -13.687   5.865  1.00  0.00     0.256 C 
HETATM   10  N   UNL     1      41.657 -12.827   6.334  1.00  0.00    -0.060 N 
HETATM   11  H   UNL     1      41.836 -13.096   7.308  1.00  0.00     0.280 HD
HETATM   12  C   UNL     1      42.909 -13.232   5.556  1.00  0.00     0.256 C 
HETATM   13  C   UNL     1      43.243 -14.707   5.895  1.00  0.00     0.169 C 
BRANCH  10  14
HETATM   14  C   UNL     1      41.383 -11.330   6.355  1.00  0.00     0.337 C 
BRANCH  14  15
HETATM   15  C   UNL     1      41.922 -10.540   7.554  1.00  0.00     0.248 C 
HETATM   16  N   UNL     1      42.106 -11.344   8.670  1.00  0.00    -0.325 N 
HETATM   17  H   UNL     1      41.666 -12.255   8.648  1.00  0.00     0.169 HD
HETATM   18  O   UNL     1      42.093  -9.329   7.474  1.00  0.00    -0.271 OA
BRANCH  16  19
HETATM   19  C   UNL     1      42.493 -10.925   9.971  1.00  0.00     0.046 A 
HETATM   20  C   UNL     1      41.447 -10.717  10.909  1.00  0.00    -0.034 A 
HETATM   21  C   UNL     1      41.745 -10.242  12.198  1.00  0.00     0.015 A 
HETATM   22  C   UNL     1      39.993 -10.950  10.581  1.00  0.00     0.050 C 
HETATM   23  C   UNL     1      43.059  -9.992  12.587  1.00  0.00    -0.061 A 
HETATM   24  C   UNL     1      43.365  -9.434  13.945  1.00  0.00     0.048 C 
HETATM   25  C   UNL     1      44.086 -10.241  11.674  1.00  0.00     0.015 A 
HETATM   26  C   UNL     1      43.828 -10.745  10.383  1.00  0.00    -0.034 A 
HETATM   27  C   UNL     1      45.040 -11.113   9.569  1.00  0.00     0.050 C 
ENDBRANCH  16  19
ENDBRANCH  14  15
ENDBRANCH  10  14
ENDBRANCH   1   7
BRANCH   3  28
HETATM   28  N   UNL     1      40.190 -16.334   1.413  1.00  0.00    -0.187 N 
HETATM   29  H   UNL     1      40.062 -17.176   0.868  1.00  0.00     0.184 HD
BRANCH  28  30
HETATM   30  C   UNL     1      39.617 -15.177   0.870  1.00  0.00     0.049 A 
HETATM   31  C   UNL     1      40.228 -14.413  -0.130  1.00  0.00     0.030 A 
HETATM   32  C   UNL     1      39.627 -13.248  -0.618  1.00  0.00     0.002 A 
HETATM   33  C   UNL     1      38.412 -12.818  -0.091  1.00  0.00     0.000 A 
HETATM   34  C   UNL     1      37.798 -13.552   0.920  1.00  0.00     0.002 A 
HETATM   35  C   UNL     1      38.400 -14.720   1.396  1.00  0.00     0.030 A 
ENDBRANCH  28  30
ENDBRANCH   3  28
BRANCH   5  36
HETATM   36  N   UNL     1      44.017 -18.584   2.644  1.00  0.00    -0.187 N 
HETATM   37  H   UNL     1      44.448 -18.343   1.762  1.00  0.00     0.184 HD
BRANCH  36  38
HETATM   38  C   UNL     1      44.233 -19.902   3.076  1.00  0.00     0.049 A 
HETATM   39  C   UNL     1      44.655 -20.239   4.367  1.00  0.00     0.030 A 
HETATM   40  C   UNL     1      44.890 -21.569   4.732  1.00  0.00     0.002 A 
HETATM   41  C   UNL     1      44.726 -22.588   3.799  1.00  0.00     0.000 A 
HETATM   42  C   UNL     1      44.332 -22.274   2.502  1.00  0.00     0.002 A 
HETATM   43  C   UNL     1      44.093 -20.944   2.145  1.00  0.00     0.030 A 
ENDBRANCH  36  38
ENDBRANCH   5  36
TORSDOF 8
ENDMDL
MODEL 3
REMARK VINA RESULT:     -10.9      1.099      1.581
REMARK  8 active torsions:
REMARK  status: ('A' for Active; 'I' for Inactive)
REMARK    1  A    between atoms: C_6  and  N_7 
REMARK       I    between atoms: N_7  and  C_8 
REMARK    2  A    between atoms: C_8  and  C_9 
REMARK    3  A    between atoms: C_9  and  N_10 
REMARK    4  A    between atoms: N_14  and  C_15 
REMARK    5  A    between atoms: C_17  and  N_18 
REMARK    6  A    between atoms: N_18  and  C_19 
REMARK    7  A    between atoms: C_26  and  N_27 
REMARK    8  A    between atoms: N_27  and  C_28 
ROOT
HETATM    1  C   UNL     1      42.058 -16.092   4.326  1.00  0.00     0.756 A 
HETATM    2  N   UNL     1      42.961 -17.036   4.125  1.00  0.00     0.131 NA
HETATM    3  C   UNL     1      43.100 -17.449   2.867  1.00  0.00     0.758 A 
HETATM    4  N   UNL     1      42.411 -16.957   1.845  1.00  0.00     0.131 NA
HETATM    5  C   UNL     1      41.516 -16.023   2.136  1.00  0.00     0.758 A 
HETATM    6  N   UNL     1      41.287 -15.603   3.372  1.00  0.00     0.131 NA
ENDROOT
BRANCH   1   7
HETATM    7  N   UNL     1      41.899 -15.547   5.596  1.00  0.00    -0.210 N 
HETATM    8  C   UNL     1      40.549 -15.087   5.947  1.00  0.00     0.169 C 
HETATM    9  C   UNL     1      40.338 -13.592   5.640  1.00  0.00     0.256 C 
HETATM   10  N   UNL     1      41.477 -12.789   6.285  1.00  0.00    -0.060 N 
HETATM   11  H   UNL     1      41.516 -13.087   7.267  1.00  0.00     0.280 HD
HETATM   12  C   UNL     1      42.807 -13.224   5.668  1.00  0.00     0.256 C 
HETATM   13  C   UNL     1      43.041 -14.718   6.008  1.00  0.00     0.169 C 
BRANCH  10  14
HETATM   14  C   UNL     1      41.255 -11.284   6.312  1.00  0.00     0.337 C 
BRANCH  14  15
HETATM   15  C   UNL     1      41.849 -10.513   7.497  1.00  0.00     0.248 C 
HETATM   16  N   UNL     1      41.984 -11.310   8.625  1.00  0.00    -0.325 N 
HETATM   17  H   UNL     1      41.485 -12.190   8.618  1.00  0.00     0.169 HD
HETATM   18  O   UNL     1      42.099  -9.317   7.399  1.00  0.00    -0.271 OA
BRANCH  16  19
HETATM   19  C   UNL     1      42.401 -10.898   9.919  1.00  0.00     0.046 A 
HETATM   20  C   UNL     1      41.375 -10.570  10.843  1.00  0.00    -0.034 A 
HETATM   21  C   UNL     1      41.710 -10.094  12.123  1.00  0.00     0.015 A 
HETATM   22  C   UNL     1      39.907 -10.673  10.511  1.00  0.00     0.050 C 
HETATM   23  C   UNL     1      43.040  -9.959  12.516  1.00  0.00    -0.061 A 
HETATM   24  C   UNL     1      43.390  -9.399  13.862  1.00  0.00     0.048 C 
HETATM   25  C   UNL     1      44.043 -10.325  11.617  1.00  0.00     0.015 A 
HETATM   26  C   UNL     1      43.746 -10.834  10.336  1.00  0.00    -0.034 A 
HETATM   27  C   UNL     1      44.921 -11.334   9.540  1.00  0.00     0.050 C 
ENDBRANCH  16  19
ENDBRANCH  14  15
ENDBRANCH  10  14
ENDBRANCH   1   7
BRANCH   3  28
HETATM   28  N   UNL     1      44.056 -18.406   2.538  1.00  0.00    -0.187 N 
HETATM   29  H   UNL     1      44.543 -18.139   1.692  1.00  0.00     0.184 HD
BRANCH  28  30
HETATM   30  C   UNL     1      44.225 -19.740   2.930  1.00  0.00     0.049 A 
HETATM   31  C   UNL     1      44.657 -20.118   4.206  1.00  0.00     0.030 A 
HETATM   32  C   UNL     1      44.837 -21.465   4.538  1.00  0.00     0.002 A 
HETATM   33  C   UNL     1      44.609 -22.454   3.585  1.00  0.00     0.000 A 
HETATM   34  C   UNL     1      44.200 -22.097   2.303  1.00  0.00     0.002 A 
HETATM   35  C   UNL     1      44.013 -20.751   1.981  1.00  0.00     0.030 A 
ENDBRANCH  28  30
ENDBRANCH   3  28
BRANCH   5  36
HETATM   36  N   UNL     1      40.789 -15.513   1.062  1.00  0.00    -0.187 N 
HETATM   37  H   UNL     1      39.885 -15.964   1.010  1.00  0.00     0.184 HD
BRANCH  36  38
HETATM   38  C   UNL     1      41.183 -14.824  -0.095  1.00  0.00     0.049 A 
HETATM   39  C   UNL     1      41.738 -13.539  -0.085  1.00  0.00     0.030 A 
HETATM   40  C   UNL     1      42.079 -12.885  -1.274  1.00  0.00     0.002 A 
HETATM   41  C   UNL     1      41.848 -13.500  -2.500  1.00  0.00     0.000 A 
HETATM   42  C   UNL     1      41.274 -14.766  -2.535  1.00  0.00     0.002 A 
HETATM   43  C   UNL     1      40.940 -15.418  -1.344  1.00  0.00     0.030 A 
ENDBRANCH  36  38
ENDBRANCH   5  36
TORSDOF 8
ENDMDL
MODEL 4
REMARK VINA RESULT:     -10.6      1.255      5.625
REMARK  8 active torsions:
REMARK  status: ('A' for Active; 'I' for Inactive)
REMARK    1  A    between atoms: C_6  and  N_7 
REMARK       I    between atoms: N_7  and  C_8 
REMARK    2  A    between atoms: C_8  and  C_9 
REMARK    3  A    between atoms: C_9  and  N_10 
REMARK    4  A    between atoms: N_14  and  C_15 
REMARK    5  A    between atoms: C_17  and  N_18 
REMARK    6  A    between atoms: N_18  and  C_19 
REMARK    7  A    between atoms: C_26  and  N_27 
REMARK    8  A    between atoms: N_27  and  C_28 
ROOT
HETATM    1  C   UNL     1      42.360 -16.060   4.085  1.00  0.00     0.756 A 
HETATM    2  N   UNL     1      41.562 -15.646   3.116  1.00  0.00     0.131 NA
HETATM    3  C   UNL     1      41.729 -16.233   1.933  1.00  0.00     0.758 A 
HETATM    4  N   UNL     1      42.616 -17.194   1.702  1.00  0.00     0.131 NA
HETATM    5  C   UNL     1      43.385 -17.541   2.724  1.00  0.00     0.758 A 
HETATM    6  N   UNL     1      43.311 -16.961   3.913  1.00  0.00     0.131 NA
ENDROOT
BRANCH   1   7
HETATM    7  N   UNL     1      42.205 -15.556   5.372  1.00  0.00    -0.210 N 
HETATM    8  C   UNL     1      40.828 -15.299   5.813  1.00  0.00     0.169 C 
HETATM    9  C   UNL     1      40.386 -13.847   5.548  1.00  0.00     0.256 C 
HETATM   10  N   UNL     1      41.437 -12.895   6.137  1.00  0.00    -0.060 N 
HETATM   11  H   UNL     1      41.580 -13.193   7.109  1.00  0.00     0.280 HD
HETATM   12  C   UNL     1      42.774 -13.127   5.432  1.00  0.00     0.256 C 
HETATM   13  C   UNL     1      43.241 -14.575   5.729  1.00  0.00     0.169 C 
BRANCH  10  14
HETATM   14  C   UNL     1      41.005 -11.438   6.206  1.00  0.00     0.337 C 
BRANCH  14  15
HETATM   15  C   UNL     1      41.628 -10.576   7.311  1.00  0.00     0.248 C 
HETATM   16  N   UNL     1      41.657 -11.234   8.532  1.00  0.00    -0.325 N 
HETATM   17  H   UNL     1      41.082 -12.063   8.613  1.00  0.00     0.169 HD
HETATM   18  O   UNL     1      41.985  -9.427   7.078  1.00  0.00    -0.271 OA
BRANCH  16  19
HETATM   19  C   UNL     1      42.070 -10.700   9.782  1.00  0.00     0.046 A 
HETATM   20  C   UNL     1      43.413 -10.951  10.169  1.00  0.00    -0.034 A 
HETATM   21  C   UNL     1      43.877 -10.508  11.419  1.00  0.00     0.015 A 
HETATM   22  C   UNL     1      44.385 -11.716   9.306  1.00  0.00     0.050 C 
HETATM   23  C   UNL     1      43.048  -9.799  12.285  1.00  0.00    -0.061 A 
HETATM   24  C   UNL     1      43.533  -9.377  13.640  1.00  0.00     0.048 C 
HETATM   25  C   UNL     1      41.741  -9.518  11.880  1.00  0.00     0.015 A 
HETATM   26  C   UNL     1      41.249  -9.920  10.622  1.00  0.00    -0.034 A 
HETATM   27  C   UNL     1      39.881  -9.410  10.259  1.00  0.00     0.050 C 
ENDBRANCH  16  19
ENDBRANCH  14  15
ENDBRANCH  10  14
ENDBRANCH   1   7
BRANCH   3  28
HETATM   28  N   UNL     1      40.909 -15.905   0.857  1.00  0.00    -0.187 N 
HETATM   29  H   UNL     1      40.063 -16.458   0.880  1.00  0.00     0.184 HD
BRANCH  28  30
HETATM   30  C   UNL     1      41.165 -15.252  -0.355  1.00  0.00     0.049 A 
HETATM   31  C   UNL     1      41.644 -13.940  -0.436  1.00  0.00     0.030 A 
HETATM   32  C   UNL     1      41.857 -13.324  -1.674  1.00  0.00     0.002 A 
HETATM   33  C   UNL     1      41.569 -14.008  -2.852  1.00  0.00     0.000 A 
HETATM   34  C   UNL     1      41.071 -15.307  -2.792  1.00  0.00     0.002 A 
HETATM   35  C   UNL     1      40.870 -15.920  -1.553  1.00  0.00     0.030 A 
ENDBRANCH  28  30
ENDBRANCH   3  28
BRANCH   5  36
HETATM   36  N   UNL     1      44.321 -18.544   2.476  1.00  0.00    -0.187 N 
HETATM   37  H   UNL     1      44.805 -18.361   1.608  1.00  0.00     0.184 HD
BRANCH  36  38
HETATM   38  C   UNL     1      44.444 -19.853   2.967  1.00  0.00     0.049 A 
HETATM   39  C   UNL     1      44.226 -20.999   2.193  1.00  0.00     0.030 A 
HETATM   40  C   UNL     1      44.328 -22.280   2.746  1.00  0.00     0.002 A 
HETATM   41  C   UNL     1      44.629 -22.436   4.095  1.00  0.00     0.000 A 
HETATM   42  C   UNL     1      44.824 -21.312   4.889  1.00  0.00     0.002 A 
HETATM   43  C   UNL     1      44.727 -20.034   4.331  1.00  0.00     0.030 A 
ENDBRANCH  36  38
ENDBRANCH   5  36
TORSDOF 8
ENDMDL
MODEL 5
REMARK VINA RESULT:     -10.5      1.381      2.067
REMARK  8 active torsions:
REMARK  status: ('A' for Active; 'I' for Inactive)
REMARK    1  A    between atoms: C_6  and  N_7 
REMARK       I    between atoms: N_7  and  C_8 
REMARK    2  A    between atoms: C_8  and  C_9 
REMARK    3  A    between atoms: C_9  and  N_10 
REMARK    4  A    between atoms: N_14  and  C_15 
REMARK    5  A    between atoms: C_17  and  N_18 
REMARK    6  A    between atoms: N_18  and  C_19 
REMARK    7  A    between atoms: C_26  and  N_27 
REMARK    8  A    between atoms: N_27  and  C_28 
ROOT
HETATM    1  C   UNL     1      41.991 -16.325   4.614  1.00  0.00     0.756 A 
HETATM    2  N   UNL     1      42.985 -17.171   4.409  1.00  0.00     0.131 NA
HETATM    3  C   UNL     1      43.075 -17.677   3.181  1.00  0.00     0.758 A 
HETATM    4  N   UNL     1      42.251 -17.362   2.188  1.00  0.00     0.131 NA
HETATM    5  C   UNL     1      41.274 -16.516   2.482  1.00  0.00     0.758 A 
HETATM    6  N   UNL     1      41.092 -16.017   3.696  1.00  0.00     0.131 NA
ENDROOT
BRANCH   1   7
HETATM    7  N   UNL     1      41.865 -15.690   5.846  1.00  0.00    -0.210 N 
HETATM    8  C   UNL     1      41.764 -14.226   5.820  1.00  0.00     0.169 C 
HETATM    9  C   UNL     1      43.134 -13.538   5.978  1.00  0.00     0.256 C 
HETATM   10  N   UNL     1      43.835 -14.111   7.219  1.00  0.00    -0.060 N 
HETATM   11  H   UNL     1      43.159 -14.039   7.988  1.00  0.00     0.280 HD
HETATM   12  C   UNL     1      44.069 -15.609   7.013  1.00  0.00     0.256 C 
HETATM   13  C   UNL     1      42.692 -16.309   6.893  1.00  0.00     0.169 C 
BRANCH  10  14
HETATM   14  C   UNL     1      45.065 -13.336   7.666  1.00  0.00     0.337 C 
BRANCH  14  15
HETATM   15  C   UNL     1      44.836 -12.150   8.612  1.00  0.00     0.248 C 
HETATM   16  N   UNL     1      43.528 -12.096   9.075  1.00  0.00    -0.325 N 
HETATM   17  H   UNL     1      42.851 -12.663   8.581  1.00  0.00     0.169 HD
HETATM   18  O   UNL     1      45.739 -11.354   8.842  1.00  0.00    -0.271 OA
BRANCH  16  19
HETATM   19  C   UNL     1      42.948 -11.080   9.880  1.00  0.00     0.046 A 
HETATM   20  C   UNL     1      42.149 -10.116   9.210  1.00  0.00    -0.034 A 
HETATM   21  C   UNL     1      41.592  -9.045   9.930  1.00  0.00     0.015 A 
HETATM   22  C   UNL     1      41.885 -10.159   7.725  1.00  0.00     0.050 C 
HETATM   23  C   UNL     1      41.788  -8.920  11.303  1.00  0.00    -0.061 A 
HETATM   24  C   UNL     1      41.237  -7.745  12.054  1.00  0.00     0.048 C 
HETATM   25  C   UNL     1      42.538  -9.896  11.963  1.00  0.00     0.015 A 
HETATM   26  C   UNL     1      43.088 -11.000  11.280  1.00  0.00    -0.034 A 
HETATM   27  C   UNL     1      43.734 -12.050  12.144  1.00  0.00     0.050 C 
ENDBRANCH  16  19
ENDBRANCH  14  15
ENDBRANCH  10  14
ENDBRANCH   1   7
BRANCH   3  28
HETATM   28  N   UNL     1      44.113 -18.541   2.845  1.00  0.00    -0.187 N 
HETATM   29  H   UNL     1      44.666 -18.151   2.093  1.00  0.00     0.184 HD
BRANCH  28  30
HETATM   30  C   UNL     1      44.320 -19.904   3.093  1.00  0.00     0.049 A 
HETATM   31  C   UNL     1      44.109 -20.901   2.135  1.00  0.00     0.030 A 
HETATM   32  C   UNL     1      44.303 -22.252   2.444  1.00  0.00     0.002 A 
HETATM   33  C   UNL     1      44.688 -22.625   3.728  1.00  0.00     0.000 A 
HETATM   34  C   UNL     1      44.881 -21.649   4.703  1.00  0.00     0.002 A 
HETATM   35  C   UNL     1      44.695 -20.302   4.385  1.00  0.00     0.030 A 
ENDBRANCH  28  30
ENDBRANCH   3  28
BRANCH   5  36
HETATM   36  N   UNL     1      40.407 -16.194   1.440  1.00  0.00    -0.187 N 
HETATM   37  H   UNL     1      39.879 -17.010   1.162  1.00  0.00     0.184 HD
BRANCH  36  38
HETATM   38  C   UNL     1      40.397 -15.133   0.522  1.00  0.00     0.049 A 
HETATM   39  C   UNL     1      41.498 -14.775  -0.267  1.00  0.00     0.030 A 
HETATM   40  C   UNL     1      41.443 -13.683  -1.140  1.00  0.00     0.002 A 
HETATM   41  C   UNL     1      40.287 -12.913  -1.222  1.00  0.00     0.000 A 
HETATM   42  C   UNL     1      39.191 -13.234  -0.429  1.00  0.00     0.002 A 
HETATM   43  C   UNL     1      39.249 -14.329   0.438  1.00  0.00     0.030 A 
ENDBRANCH  36  38
ENDBRANCH   5  36
TORSDOF 8
ENDMDL
MODEL 6
REMARK VINA RESULT:     -10.1      4.218      7.013
REMARK  8 active torsions:
REMARK  status: ('A' for Active; 'I' for Inactive)
REMARK    1  A    between atoms: C_6  and  N_7 
REMARK       I    between atoms: N_7  and  C_8 
REMARK    2  A    between atoms: C_8  and  C_9 
REMARK    3  A    between atoms: C_9  and  N_10 
REMARK    4  A    between atoms: N_14  and  C_15 
REMARK    5  A    between atoms: C_17  and  N_18 
REMARK    6  A    between atoms: N_18  and  C_19 
REMARK    7  A    between atoms: C_26  and  N_27 
REMARK    8  A    between atoms: N_27  and  C_28 
ROOT
HETATM    1  C   UNL     1      42.231 -15.981   3.224  1.00  0.00     0.756 A 
HETATM    2  N   UNL     1      43.133 -16.944   3.298  1.00  0.00     0.131 NA
HETATM    3  C   UNL     1      43.294 -17.677   2.199  1.00  0.00     0.758 A 
HETATM    4  N   UNL     1      42.626 -17.474   1.069  1.00  0.00     0.131 NA
HETATM    5  C   UNL     1      41.731 -16.497   1.084  1.00  0.00     0.758 A 
HETATM    6  N   UNL     1      41.481 -15.764   2.159  1.00  0.00     0.131 NA
ENDROOT
BRANCH   1   7
HETATM    7  N   UNL     1      42.051 -15.118   4.300  1.00  0.00    -0.210 N 
HETATM    8  C   UNL     1      40.688 -15.019   4.839  1.00  0.00     0.169 C 
HETATM    9  C   UNL     1      39.887 -13.866   4.206  1.00  0.00     0.256 C 
HETATM   10  N   UNL     1      40.713 -12.575   4.308  1.00  0.00    -0.060 N 
HETATM   11  H   UNL     1      40.994 -12.493   5.292  1.00  0.00     0.280 HD
HETATM   12  C   UNL     1      42.012 -12.749   3.520  1.00  0.00     0.256 C 
HETATM   13  C   UNL     1      42.838 -13.882   4.177  1.00  0.00     0.169 C 
BRANCH  10  14
HETATM   14  C   UNL     1      39.943 -11.303   3.985  1.00  0.00     0.337 C 
BRANCH  14  15
HETATM   15  C   UNL     1      39.000 -11.346   2.777  1.00  0.00     0.248 C 
HETATM   16  N   UNL     1      39.609 -11.899   1.659  1.00  0.00    -0.325 N 
HETATM   17  H   UNL     1      40.616 -11.985   1.689  1.00  0.00     0.169 HD
HETATM   18  O   UNL     1      37.871 -10.876   2.852  1.00  0.00    -0.271 OA
BRANCH  16  19
HETATM   19  C   UNL     1      39.064 -11.999   0.350  1.00  0.00     0.046 A 
HETATM   20  C   UNL     1      38.368 -13.197   0.042  1.00  0.00    -0.034 A 
HETATM   21  C   UNL     1      37.855 -13.397  -1.251  1.00  0.00     0.015 A 
HETATM   22  C   UNL     1      38.173 -14.313   1.039  1.00  0.00     0.050 C 
HETATM   23  C   UNL     1      37.994 -12.425  -2.239  1.00  0.00    -0.061 A 
HETATM   24  C   UNL     1      37.492 -12.667  -3.631  1.00  0.00     0.048 C 
HETATM   25  C   UNL     1      38.641 -11.230  -1.916  1.00  0.00     0.015 A 
HETATM   26  C   UNL     1      39.143 -10.982  -0.622  1.00  0.00    -0.034 A 
HETATM   27  C   UNL     1      39.671  -9.594  -0.379  1.00  0.00     0.050 C 
ENDBRANCH  16  19
ENDBRANCH  14  15
ENDBRANCH  10  14
ENDBRANCH   1   7
BRANCH   3  28
HETATM   28  N   UNL     1      44.252 -18.687   2.154  1.00  0.00    -0.187 N 
HETATM   29  H   UNL     1      44.792 -18.621   1.301  1.00  0.00     0.184 HD
BRANCH  28  30
HETATM   30  C   UNL     1      44.374 -19.897   2.848  1.00  0.00     0.049 A 
HETATM   31  C   UNL     1      44.709 -19.976   4.204  1.00  0.00     0.030 A 
HETATM   32  C   UNL     1      44.847 -21.213   4.843  1.00  0.00     0.002 A 
HETATM   33  C   UNL     1      44.674 -22.392   4.124  1.00  0.00     0.000 A 
HETATM   34  C   UNL     1      44.363 -22.335   2.768  1.00  0.00     0.002 A 
HETATM   35  C   UNL     1      44.217 -21.097   2.138  1.00  0.00     0.030 A 
ENDBRANCH  28  30
ENDBRANCH   3  28
BRANCH   5  36
HETATM   36  N   UNL     1      41.026 -16.292  -0.101  1.00  0.00    -0.187 N 
HETATM   37  H   UNL     1      40.514 -17.127  -0.350  1.00  0.00     0.184 HD
BRANCH  36  38
HETATM   38  C   UNL     1      41.179 -15.352  -1.132  1.00  0.00     0.049 A 
HETATM   39  C   UNL     1      41.752 -14.087  -0.955  1.00  0.00     0.030 A 
HETATM   40  C   UNL     1      41.845 -13.177  -2.013  1.00  0.00     0.002 A 
HETATM   41  C   UNL     1      41.343 -13.509  -3.267  1.00  0.00     0.000 A 
HETATM   42  C   UNL     1      40.746 -14.751  -3.460  1.00  0.00     0.002 A 
HETATM   43  C   UNL     1      40.660 -15.659  -2.400  1.00  0.00     0.030 A 
ENDBRANCH  36  38
ENDBRANCH   5  36
TORSDOF 8
ENDMDL
MODEL 7
REMARK VINA RESULT:     -10.1      1.845      5.778
REMARK  8 active torsions:
REMARK  status: ('A' for Active; 'I' for Inactive)
REMARK    1  A    between atoms: C_6  and  N_7 
REMARK       I    between atoms: N_7  and  C_8 
REMARK    2  A    between atoms: C_8  and  C_9 
REMARK    3  A    between atoms: C_9  and  N_10 
REMARK    4  A    between atoms: N_14  and  C_15 
REMARK    5  A    between atoms: C_17  and  N_18 
REMARK    6  A    between atoms: N_18  and  C_19 
REMARK    7  A    between atoms: C_26  and  N_27 
REMARK    8  A    between atoms: N_27  and  C_28 
ROOT
HETATM    1  C   UNL     1      41.466 -15.732   3.502  1.00  0.00     0.756 A 
HETATM    2  N   UNL     1      40.916 -15.008   2.543  1.00  0.00     0.131 NA
HETATM    3  C   UNL     1      40.891 -15.565   1.334  1.00  0.00     0.758 A 
HETATM    4  N   UNL     1      41.358 -16.780   1.069  1.00  0.00     0.131 NA
HETATM    5  C   UNL     1      41.904 -17.433   2.084  1.00  0.00     0.758 A 
HETATM    6  N   UNL     1      42.012 -16.918   3.300  1.00  0.00     0.131 NA
ENDROOT
BRANCH   1   7
HETATM    7  N   UNL     1      41.467 -15.260   4.811  1.00  0.00    -0.210 N 
HETATM    8  C   UNL     1      41.729 -13.826   4.989  1.00  0.00     0.169 C 
HETATM    9  C   UNL     1      43.220 -13.525   5.230  1.00  0.00     0.256 C 
HETATM   10  N   UNL     1      43.727 -14.416   6.372  1.00  0.00    -0.060 N 
HETATM   11  H   UNL     1      43.070 -14.285   7.150  1.00  0.00     0.280 HD
HETATM   12  C   UNL     1      43.593 -15.883   5.959  1.00  0.00     0.256 C 
HETATM   13  C   UNL     1      42.090 -16.200   5.755  1.00  0.00     0.169 C 
BRANCH  10  14
HETATM   14  C   UNL     1      45.097 -14.036   6.913  1.00  0.00     0.337 C 
BRANCH  14  15
HETATM   15  C   UNL     1      45.150 -12.903   7.946  1.00  0.00     0.248 C 
HETATM   16  N   UNL     1      43.928 -12.714   8.576  1.00  0.00    -0.325 N 
HETATM   17  H   UNL     1      43.124 -13.151   8.144  1.00  0.00     0.169 HD
HETATM   18  O   UNL     1      46.175 -12.249   8.101  1.00  0.00    -0.271 OA
BRANCH  16  19
HETATM   19  C   UNL     1      43.595 -11.693   9.506  1.00  0.00     0.046 A 
HETATM   20  C   UNL     1      42.632 -10.738   9.083  1.00  0.00    -0.034 A 
HETATM   21  C   UNL     1      42.297  -9.662   9.923  1.00  0.00     0.015 A 
HETATM   22  C   UNL     1      41.958 -10.794   7.735  1.00  0.00     0.050 C 
HETATM   23  C   UNL     1      42.875  -9.524  11.183  1.00  0.00    -0.061 A 
HETATM   24  C   UNL     1      42.553  -8.344  12.051  1.00  0.00     0.048 C 
HETATM   25  C   UNL     1      43.787 -10.491  11.610  1.00  0.00     0.015 A 
HETATM   26  C   UNL     1      44.127 -11.600  10.807  1.00  0.00    -0.034 A 
HETATM   27  C   UNL     1      44.997 -12.639  11.460  1.00  0.00     0.050 C 
ENDBRANCH  16  19
ENDBRANCH  14  15
ENDBRANCH  10  14
ENDBRANCH   1   7
BRANCH   3  28
HETATM   28  N   UNL     1      40.293 -14.907   0.263  1.00  0.00    -0.187 N 
HETATM   29  H   UNL     1      39.294 -15.067   0.266  1.00  0.00     0.184 HD
BRANCH  28  30
HETATM   30  C   UNL     1      40.812 -14.389  -0.930  1.00  0.00     0.049 A 
HETATM   31  C   UNL     1      41.796 -13.395  -0.973  1.00  0.00     0.030 A 
HETATM   32  C   UNL     1      42.261 -12.891  -2.193  1.00  0.00     0.002 A 
HETATM   33  C   UNL     1      41.726 -13.360  -3.390  1.00  0.00     0.000 A 
HETATM   34  C   UNL     1      40.730 -14.332  -3.367  1.00  0.00     0.002 A 
HETATM   35  C   UNL     1      40.277 -14.839  -2.147  1.00  0.00     0.030 A 
ENDBRANCH  28  30
ENDBRANCH   3  28
BRANCH   5  36
HETATM   36  N   UNL     1      42.400 -18.704   1.801  1.00  0.00    -0.187 N 
HETATM   37  H   UNL     1      41.812 -19.162   1.117  1.00  0.00     0.184 HD
BRANCH  36  38
HETATM   38  C   UNL     1      43.271 -19.549   2.505  1.00  0.00     0.049 A 
HETATM   39  C   UNL     1      43.654 -20.820   2.059  1.00  0.00     0.030 A 
HETATM   40  C   UNL     1      44.498 -21.634   2.822  1.00  0.00     0.002 A 
HETATM   41  C   UNL     1      44.957 -21.199   4.061  1.00  0.00     0.000 A 
HETATM   42  C   UNL     1      44.568 -19.950   4.536  1.00  0.00     0.002 A 
HETATM   43  C   UNL     1      43.730 -19.138   3.767  1.00  0.00     0.030 A 
ENDBRANCH  36  38
ENDBRANCH   5  36
TORSDOF 8
ENDMDL
MODEL 8
REMARK VINA RESULT:      -9.9      1.694      2.542
REMARK  8 active torsions:
REMARK  status: ('A' for Active; 'I' for Inactive)
REMARK    1  A    between atoms: C_6  and  N_7 
REMARK       I    between atoms: N_7  and  C_8 
REMARK    2  A    between atoms: C_8  and  C_9 
REMARK    3  A    between atoms: C_9  and  N_10 
REMARK    4  A    between atoms: N_14  and  C_15 
REMARK    5  A    between atoms: C_17  and  N_18 
REMARK    6  A    between atoms: N_18  and  C_19 
REMARK    7  A    between atoms: C_26  and  N_27 
REMARK    8  A    between atoms: N_27  and  C_28 
ROOT
HETATM    1  C   UNL     1      41.469 -14.039   2.736  1.00  0.00     0.756 A 
HETATM    2  N   UNL     1      41.685 -15.183   3.361  1.00  0.00     0.131 NA
HETATM    3  C   UNL     1      41.242 -16.276   2.744  1.00  0.00     0.758 A 
HETATM    4  N   UNL     1      40.635 -16.266   1.563  1.00  0.00     0.131 NA
HETATM    5  C   UNL     1      40.447 -15.076   1.011  1.00  0.00     0.758 A 
HETATM    6  N   UNL     1      40.813 -13.943   1.593  1.00  0.00     0.131 NA
ENDROOT
BRANCH   1   7
HETATM    7  N   UNL     1      41.964 -12.854   3.271  1.00  0.00    -0.210 N 
HETATM    8  C   UNL     1      42.775 -12.975   4.489  1.00  0.00     0.169 C 
HETATM    9  C   UNL     1      41.937 -12.816   5.772  1.00  0.00     0.256 C 
HETATM   10  N   UNL     1      41.118 -11.521   5.672  1.00  0.00    -0.060 N 
HETATM   11  H   UNL     1      41.785 -10.779   5.428  1.00  0.00     0.280 HD
HETATM   12  C   UNL     1      40.163 -11.625   4.482  1.00  0.00     0.256 C 
HETATM   13  C   UNL     1      41.003 -11.745   3.186  1.00  0.00     0.169 C 
BRANCH  10  14
HETATM   14  C   UNL     1      40.462 -11.083   6.973  1.00  0.00     0.337 C 
BRANCH  14  15
HETATM   15  C   UNL     1      41.375 -10.476   8.045  1.00  0.00     0.248 C 
HETATM   16  N   UNL     1      41.127 -11.007   9.303  1.00  0.00    -0.325 N 
HETATM   17  H   UNL     1      40.265 -11.524   9.413  1.00  0.00     0.169 HD
HETATM   18  O   UNL     1      42.169  -9.589   7.757  1.00  0.00    -0.271 OA
BRANCH  16  19
HETATM   19  C   UNL     1      41.714 -10.603  10.532  1.00  0.00     0.046 A 
HETATM   20  C   UNL     1      40.862  -9.944  11.458  1.00  0.00    -0.034 A 
HETATM   21  C   UNL     1      41.385  -9.459  12.669  1.00  0.00     0.015 A 
HETATM   22  C   UNL     1      39.398  -9.697  11.192  1.00  0.00     0.050 C 
HETATM   23  C   UNL     1      42.727  -9.634  12.996  1.00  0.00    -0.061 A 
HETATM   24  C   UNL     1      43.289  -9.066  14.265  1.00  0.00     0.048 C 
HETATM   25  C   UNL     1      43.549 -10.322  12.101  1.00  0.00     0.015 A 
HETATM   26  C   UNL     1      43.055 -10.848  10.890  1.00  0.00    -0.034 A 
HETATM   27  C   UNL     1      44.015 -11.700  10.105  1.00  0.00     0.050 C 
ENDBRANCH  16  19
ENDBRANCH  14  15
ENDBRANCH  10  14
ENDBRANCH   1   7
BRANCH   3  28
HETATM   28  N   UNL     1      41.459 -17.537   3.293  1.00  0.00    -0.187 N 
HETATM   29  H   UNL     1      40.861 -17.678   4.096  1.00  0.00     0.184 HD
BRANCH  28  30
HETATM   30  C   UNL     1      42.515 -18.449   3.166  1.00  0.00     0.049 A 
HETATM   31  C   UNL     1      42.788 -19.151   1.987  1.00  0.00     0.030 A 
HETATM   32  C   UNL     1      43.839 -20.072   1.922  1.00  0.00     0.002 A 
HETATM   33  C   UNL     1      44.619 -20.321   3.048  1.00  0.00     0.000 A 
HETATM   34  C   UNL     1      44.349 -19.649   4.237  1.00  0.00     0.002 A 
HETATM   35  C   UNL     1      43.305 -18.723   4.293  1.00  0.00     0.030 A 
ENDBRANCH  28  30
ENDBRANCH   3  28
BRANCH   5  36
HETATM   36  N   UNL     1      39.803 -15.067  -0.225  1.00  0.00    -0.187 N 
HETATM   37  H   UNL     1      39.268 -15.916  -0.344  1.00  0.00     0.184 HD
BRANCH  36  38
HETATM   38  C   UNL     1      40.040 -14.338  -1.401  1.00  0.00     0.049 A 
HETATM   39  C   UNL     1      41.022 -14.673  -2.341  1.00  0.00     0.030 A 
HETATM   40  C   UNL     1      41.237 -13.887  -3.478  1.00  0.00     0.002 A 
HETATM   41  C   UNL     1      40.486 -12.735  -3.684  1.00  0.00     0.000 A 
HETATM   42  C   UNL     1      39.522 -12.369  -2.750  1.00  0.00     0.002 A 
HETATM   43  C   UNL     1      39.306 -13.160  -1.618  1.00  0.00     0.030 A 
ENDBRANCH  36  38
ENDBRANCH   5  36
TORSDOF 8
ENDMDL
MODEL 9
REMARK VINA RESULT:      -9.9      2.817      9.527
REMARK  8 active torsions:
REMARK  status: ('A' for Active; 'I' for Inactive)
REMARK    1  A    between atoms: C_6  and  N_7 
REMARK       I    between atoms: N_7  and  C_8 
REMARK    2  A    between atoms: C_8  and  C_9 
REMARK    3  A    between atoms: C_9  and  N_10 
REMARK    4  A    between atoms: N_14  and  C_15 
REMARK    5  A    between atoms: C_17  and  N_18 
REMARK    6  A    between atoms: N_18  and  C_19 
REMARK    7  A    between atoms: C_26  and  N_27 
REMARK    8  A    between atoms: N_27  and  C_28 
ROOT
HETATM    1  C   UNL     1      42.623 -14.672   5.674  1.00  0.00     0.756 A 
HETATM    2  N   UNL     1      42.669 -15.950   6.005  1.00  0.00     0.131 NA
HETATM    3  C   UNL     1      43.549 -16.275   6.949  1.00  0.00     0.758 A 
HETATM    4  N   UNL     1      44.337 -15.398   7.561  1.00  0.00     0.131 NA
HETATM    5  C   UNL     1      44.236 -14.139   7.160  1.00  0.00     0.758 A 
HETATM    6  N   UNL     1      43.421 -13.754   6.189  1.00  0.00     0.131 NA
ENDROOT
BRANCH   1   7
HETATM    7  N   UNL     1      41.680 -14.230   4.751  1.00  0.00    -0.210 N 
HETATM    8  C   UNL     1      40.731 -15.233   4.253  1.00  0.00     0.169 C 
HETATM    9  C   UNL     1      41.208 -15.899   2.949  1.00  0.00     0.256 C 
HETATM   10  N   UNL     1      41.571 -14.803   1.937  1.00  0.00    -0.060 N 
HETATM   11  H   UNL     1      40.762 -14.172   1.897  1.00  0.00     0.280 HD
HETATM   12  C   UNL     1      42.721 -13.965   2.499  1.00  0.00     0.256 C 
HETATM   13  C   UNL     1      42.232 -13.263   3.790  1.00  0.00     0.169 C 
BRANCH  10  14
HETATM   14  C   UNL     1      41.787 -15.298   0.515  1.00  0.00     0.337 C 
BRANCH  14  15
HETATM   15  C   UNL     1      41.185 -14.456  -0.617  1.00  0.00     0.248 C 
HETATM   16  N   UNL     1      39.811 -14.627  -0.720  1.00  0.00    -0.325 N 
HETATM   17  H   UNL     1      39.417 -15.420  -0.230  1.00  0.00     0.169 HD
HETATM   18  O   UNL     1      41.905 -13.778  -1.339  1.00  0.00    -0.271 OA
BRANCH  16  19
HETATM   19  C   UNL     1      38.955 -14.083  -1.714  1.00  0.00     0.046 A 
HETATM   20  C   UNL     1      38.263 -12.891  -1.373  1.00  0.00    -0.034 A 
HETATM   21  C   UNL     1      37.350 -12.326  -2.281  1.00  0.00     0.015 A 
HETATM   22  C   UNL     1      38.430 -12.196  -0.044  1.00  0.00     0.050 C 
HETATM   23  C   UNL     1      37.125 -12.902  -3.528  1.00  0.00    -0.061 A 
HETATM   24  C   UNL     1      36.110 -12.326  -4.470  1.00  0.00     0.048 C 
HETATM   25  C   UNL     1      37.842 -14.050  -3.874  1.00  0.00     0.015 A 
HETATM   26  C   UNL     1      38.787 -14.628  -3.002  1.00  0.00    -0.034 A 
HETATM   27  C   UNL     1      39.595 -15.763  -3.571  1.00  0.00     0.050 C 
ENDBRANCH  16  19
ENDBRANCH  14  15
ENDBRANCH  10  14
ENDBRANCH   1   7
BRANCH   3  28
HETATM   28  N   UNL     1      43.647 -17.587   7.406  1.00  0.00    -0.187 N 
HETATM   29  H   UNL     1      43.777 -17.600   8.409  1.00  0.00     0.184 HD
BRANCH  28  30
HETATM   30  C   UNL     1      43.926 -18.792   6.750  1.00  0.00     0.049 A 
HETATM   31  C   UNL     1      43.627 -20.048   7.289  1.00  0.00     0.030 A 
HETATM   32  C   UNL     1      43.953 -21.224   6.604  1.00  0.00     0.002 A 
HETATM   33  C   UNL     1      44.606 -21.157   5.376  1.00  0.00     0.000 A 
HETATM   34  C   UNL     1      44.932 -19.917   4.833  1.00  0.00     0.002 A 
HETATM   35  C   UNL     1      44.595 -18.747   5.518  1.00  0.00     0.030 A 
ENDBRANCH  28  30
ENDBRANCH   3  28
BRANCH   5  36
HETATM   36  N   UNL     1      45.069 -13.223   7.798  1.00  0.00    -0.187 N 
HETATM   37  H   UNL     1      46.036 -13.503   7.698  1.00  0.00     0.184 HD
BRANCH  36  38
HETATM   38  C   UNL     1      44.822 -12.268   8.797  1.00  0.00     0.049 A 
HETATM   39  C   UNL     1      45.681 -12.030   9.877  1.00  0.00     0.030 A 
HETATM   40  C   UNL     1      45.365 -11.090  10.864  1.00  0.00     0.002 A 
HETATM   41  C   UNL     1      44.168 -10.385  10.799  1.00  0.00     0.000 A 
HETATM   42  C   UNL     1      43.287 -10.624   9.749  1.00  0.00     0.002 A 
HETATM   43  C   UNL     1      43.610 -11.560   8.763  1.00  0.00     0.030 A 
ENDBRANCH  36  38
ENDBRANCH   5  36
TORSDOF 8
ENDMDL
MODEL 10
REMARK VINA RESULT:      -9.8      4.164      8.954
REMARK  8 active torsions:
REMARK  status: ('A' for Active; 'I' for Inactive)
REMARK    1  A    between atoms: C_6  and  N_7 
REMARK       I    between atoms: N_7  and  C_8 
REMARK    2  A    between atoms: C_8  and  C_9 
REMARK    3  A    between atoms: C_9  and  N_10 
REMARK    4  A    between atoms: N_14  and  C_15 
REMARK    5  A    between atoms: C_17  and  N_18 
REMARK    6  A    between atoms: N_18  and  C_19 
REMARK    7  A    between atoms: C_26  and  N_27 
REMARK    8  A    between atoms: N_27  and  C_28 
ROOT
HETATM    1  C   UNL     1      40.743 -12.633   1.866  1.00  0.00     0.756 A 
HETATM    2  N   UNL     1      41.726 -12.039   1.214  1.00  0.00     0.131 NA
HETATM    3  C   UNL     1      41.691 -12.142  -0.113  1.00  0.00     0.758 A 
HETATM    4  N   UNL     1      40.733 -12.775  -0.781  1.00  0.00     0.131 NA
HETATM    5  C   UNL     1      39.792 -13.354  -0.050  1.00  0.00     0.758 A 
HETATM    6  N   UNL     1      39.794 -13.338   1.275  1.00  0.00     0.131 NA
ENDROOT
BRANCH   1   7
HETATM    7  N   UNL     1      40.658 -12.513   3.250  1.00  0.00    -0.210 N 
HETATM    8  C   UNL     1      41.881 -12.093   3.946  1.00  0.00     0.169 C 
HETATM    9  C   UNL     1      42.721 -13.289   4.434  1.00  0.00     0.256 C 
HETATM   10  N   UNL     1      41.816 -14.234   5.238  1.00  0.00    -0.060 N 
HETATM   11  H   UNL     1      41.344 -13.650   5.938  1.00  0.00     0.280 HD
HETATM   12  C   UNL     1      40.708 -14.763   4.325  1.00  0.00     0.256 C 
HETATM   13  C   UNL     1      39.838 -13.567   3.864  1.00  0.00     0.169 C 
BRANCH  10  14
HETATM   14  C   UNL     1      42.557 -15.309   6.020  1.00  0.00     0.337 C 
BRANCH  14  15
HETATM   15  C   UNL     1      42.445 -16.749   5.504  1.00  0.00     0.248 C 
HETATM   16  N   UNL     1      43.386 -17.027   4.522  1.00  0.00    -0.325 N 
HETATM   17  H   UNL     1      43.854 -16.232   4.107  1.00  0.00     0.169 HD
HETATM   18  O   UNL     1      41.565 -17.492   5.921  1.00  0.00    -0.271 OA
BRANCH  16  19
HETATM   19  C   UNL     1      43.500 -18.221   3.761  1.00  0.00     0.046 A 
HETATM   20  C   UNL     1      44.331 -19.240   4.298  1.00  0.00    -0.034 A 
HETATM   21  C   UNL     1      44.544 -20.425   3.574  1.00  0.00     0.015 A 
HETATM   22  C   UNL     1      45.046 -19.104   5.620  1.00  0.00     0.050 C 
HETATM   23  C   UNL     1      43.932 -20.635   2.340  1.00  0.00    -0.061 A 
HETATM   24  C   UNL     1      44.206 -21.879   1.548  1.00  0.00     0.048 C 
HETATM   25  C   UNL     1      43.081 -19.648   1.839  1.00  0.00     0.015 A 
HETATM   26  C   UNL     1      42.821 -18.458   2.550  1.00  0.00    -0.034 A 
HETATM   27  C   UNL     1      41.764 -17.562   1.964  1.00  0.00     0.050 C 
ENDBRANCH  16  19
ENDBRANCH  14  15
ENDBRANCH  10  14
ENDBRANCH   1   7
BRANCH   3  28
HETATM   28  N   UNL     1      42.653 -11.514  -0.899  1.00  0.00    -0.187 N 
HETATM   29  H   UNL     1      43.486 -11.332  -0.355  1.00  0.00     0.184 HD
BRANCH  28  30
HETATM   30  C   UNL     1      42.569 -10.824  -2.115  1.00  0.00     0.049 A 
HETATM   31  C   UNL     1      42.562 -11.459  -3.361  1.00  0.00     0.030 A 
HETATM   32  C   UNL     1      42.506 -10.720  -4.548  1.00  0.00     0.002 A 
HETATM   33  C   UNL     1      42.479  -9.329  -4.503  1.00  0.00     0.000 A 
HETATM   34  C   UNL     1      42.508  -8.678  -3.273  1.00  0.00     0.002 A 
HETATM   35  C   UNL     1      42.555  -9.421  -2.091  1.00  0.00     0.030 A 
ENDBRANCH  28  30
ENDBRANCH   3  28
BRANCH   5  36
HETATM   36  N   UNL     1      38.793 -14.024  -0.754  1.00  0.00    -0.187 N 
HETATM   37  H   UNL     1      38.055 -14.308  -0.124  1.00  0.00     0.184 HD
BRANCH  36  38
HETATM   38  C   UNL     1      38.793 -14.662  -2.003  1.00  0.00     0.049 A 
HETATM   39  C   UNL     1      37.726 -14.604  -2.908  1.00  0.00     0.030 A 
HETATM   40  C   UNL     1      37.768 -15.292  -4.126  1.00  0.00     0.002 A 
HETATM   41  C   UNL     1      38.873 -16.071  -4.451  1.00  0.00     0.000 A 
HETATM   42  C   UNL     1      39.934 -16.164  -3.556  1.00  0.00     0.002 A 
HETATM   43  C   UNL     1      39.890 -15.471  -2.343  1.00  0.00     0.030 A 
ENDBRANCH  36  38
ENDBRANCH   5  36
TORSDOF 8
ENDMDL
