MODEL 1
REMARK VINA RESULT:      -8.6      0.000      0.000
REMARK  7 active torsions:
REMARK  status: ('A' for Active; 'I' for Inactive)
REMARK    1  A    between atoms: C_2  and  C_3 
REMARK    2  A    between atoms: C_3  and  N_4 
REMARK    3  A    between atoms: C_10  and  N_11 
REMARK       I    between atoms: N_11  and  C_12 
REMARK    4  A    between atoms: C_12  and  C_13 
REMARK    5  A    between atoms: C_13  and  N_14 
REMARK       I    between atoms: N_14  and  C_15 
REMARK       I    between atoms: C_15  and  N_16 
REMARK    6  A    between atoms: N_16  and  C_17 
REMARK    7  A    between atoms: C_17  and  C_18 
ROOT
HETATM    1  N   UNL     1      40.174 -15.232   5.122  1.00  0.00    -0.325 N 
HETATM    2  C   UNL     1      41.364 -15.927   5.248  1.00  0.00     0.239 C 
HETATM    3  O   UNL     1      42.353 -15.762   4.539  1.00  0.00    -0.271 OA
HETATM    4  H   UNL     1      39.402 -15.592   5.684  1.00  0.00     0.169 HD
ENDROOT
BRANCH   2   5
HETATM    5  C   UNL     1      41.328 -17.025   6.314  1.00  0.00     0.227 C 
BRANCH   5   6
HETATM    6  N   UNL     1      42.379 -16.878   7.308  1.00  0.00    -0.334 N 
HETATM    7  C   UNL     1      43.508 -17.644   7.296  1.00  0.00     0.316 C 
HETATM    8  N   UNL     1      44.011 -17.883   6.052  1.00  0.00    -0.339 N 
HETATM    9  O   UNL     1      43.971 -18.087   8.336  1.00  0.00    -0.247 OA
HETATM   10  H   UNL     1      44.166 -17.023   5.543  1.00  0.00     0.164 HD
HETATM   11  H   UNL     1      42.056 -16.762   8.262  1.00  0.00     0.164 HD
BRANCH   8  12
HETATM   12  C   UNL     1      45.032 -18.895   5.864  1.00  0.00     0.162 C 
BRANCH  12  13
HETATM   13  C   UNL     1      44.682 -19.721   4.652  1.00  0.00    -0.040 A 
HETATM   14  C   UNL     1      45.032 -21.076   4.566  1.00  0.00     0.012 A 
HETATM   15  C   UNL     1      44.721 -21.810   3.418  1.00  0.00     0.043 A 
HETATM   16  C   UNL     1      44.057 -21.193   2.364  1.00  0.00     0.116 A 
HETATM   17  F   UNL     1      43.771 -21.898   1.262  1.00  0.00    -0.206 F 
HETATM   18  C   UNL     1      43.690 -19.856   2.433  1.00  0.00     0.043 A 
HETATM   19  C   UNL     1      44.000 -19.120   3.576  1.00  0.00     0.012 A 
ENDBRANCH  12  13
ENDBRANCH   8  12
ENDBRANCH   5   6
ENDBRANCH   2   5
BRANCH   1  20
HETATM   20  C   UNL     1      39.847 -14.210   4.205  1.00  0.00     0.043 A 
HETATM   21  C   UNL     1      39.622 -14.348   2.837  1.00  0.00     0.002 A 
HETATM   22  C   UNL     1      39.698 -15.549   1.949  1.00  0.00     0.276 C 
HETATM   23  C   UNL     1      39.299 -13.227   2.048  1.00  0.00    -0.022 A 
HETATM   24  N   UNL     1      39.659 -15.027   0.504  1.00  0.00    -0.063 N 
HETATM   25  H   UNL     1      38.956 -15.575  -0.002  1.00  0.00     0.280 HD
HETATM   26  C   UNL     1      39.131 -13.605   0.615  1.00  0.00     0.274 C 
HETATM   27  C   UNL     1      39.176 -11.959   2.592  1.00  0.00     0.009 A 
HETATM   28  C   UNL     1      39.418 -11.805   3.951  1.00  0.00     0.003 A 
HETATM   29  C   UNL     1      39.763 -12.913   4.740  1.00  0.00     0.030 A 
BRANCH  24  30
HETATM   30  C   UNL     1      40.971 -15.107  -0.226  1.00  0.00     0.239 C 
BRANCH  30  31
HETATM   31  C   UNL     1      40.929 -14.440  -1.612  1.00  0.00     0.003 C 
HETATM   32  C   UNL     1      40.973 -15.525  -2.691  1.00  0.00     0.011 C 
HETATM   33  C   UNL     1      42.071 -13.447  -1.834  1.00  0.00     0.011 C 
ENDBRANCH  30  31
ENDBRANCH  24  30
ENDBRANCH   1  20
TORSDOF 7
ENDMDL
MODEL 2
REMARK VINA RESULT:      -8.5      6.353      9.352
REMARK  7 active torsions:
REMARK  status: ('A' for Active; 'I' for Inactive)
REMARK    1  A    between atoms: C_2  and  C_3 
REMARK    2  A    between atoms: C_3  and  N_4 
REMARK    3  A    between atoms: C_10  and  N_11 
REMARK       I    between atoms: N_11  and  C_12 
REMARK    4  A    between atoms: C_12  and  C_13 
REMARK    5  A    between atoms: C_13  and  N_14 
REMARK       I    between atoms: N_14  and  C_15 
REMARK       I    between atoms: C_15  and  N_16 
REMARK    6  A    between atoms: N_16  and  C_17 
REMARK    7  A    between atoms: C_17  and  C_18 
ROOT
HETATM    1  N   UNL     1      43.471 -15.419   7.325  1.00  0.00    -0.325 N 
HETATM    2  C   UNL     1      44.353 -14.380   7.088  1.00  0.00     0.239 C 
HETATM    3  O   UNL     1      45.471 -14.505   6.595  1.00  0.00    -0.271 OA
HETATM    4  H   UNL     1      42.650 -15.171   7.877  1.00  0.00     0.169 HD
ENDROOT
BRANCH   2   5
HETATM    5  C   UNL     1      43.857 -13.022   7.590  1.00  0.00     0.227 C 
BRANCH   5   6
HETATM    6  N   UNL     1      44.714 -12.459   8.622  1.00  0.00    -0.334 N 
HETATM    7  C   UNL     1      44.391 -11.318   9.297  1.00  0.00     0.316 C 
HETATM    8  N   UNL     1      43.071 -11.208   9.615  1.00  0.00    -0.339 N 
HETATM    9  O   UNL     1      45.243 -10.477   9.541  1.00  0.00    -0.247 OA
HETATM   10  H   UNL     1      42.742 -12.020  10.120  1.00  0.00     0.164 HD
HETATM   11  H   UNL     1      45.705 -12.458   8.406  1.00  0.00     0.164 HD
BRANCH   8  12
HETATM   12  C   UNL     1      42.539  -9.943  10.081  1.00  0.00     0.162 C 
BRANCH  12  13
HETATM   13  C   UNL     1      42.444  -9.979  11.586  1.00  0.00    -0.040 A 
HETATM   14  C   UNL     1      43.414  -9.368  12.393  1.00  0.00     0.012 A 
HETATM   15  C   UNL     1      43.318  -9.442  13.785  1.00  0.00     0.043 A 
HETATM   16  C   UNL     1      42.251 -10.120  14.367  1.00  0.00     0.116 A 
HETATM   17  F   UNL     1      42.170 -10.197  15.701  1.00  0.00    -0.206 F 
HETATM   18  C   UNL     1      41.274 -10.722  13.587  1.00  0.00     0.043 A 
HETATM   19  C   UNL     1      41.368 -10.650  12.197  1.00  0.00     0.012 A 
ENDBRANCH  12  13
ENDBRANCH   8  12
ENDBRANCH   5   6
ENDBRANCH   2   5
BRANCH   1  20
HETATM   20  C   UNL     1      43.637 -16.793   7.050  1.00  0.00     0.043 A 
HETATM   21  C   UNL     1      43.751 -17.393   5.797  1.00  0.00     0.002 A 
HETATM   22  C   UNL     1      43.688 -16.806   4.423  1.00  0.00     0.276 C 
HETATM   23  C   UNL     1      43.916 -18.787   5.682  1.00  0.00    -0.022 A 
HETATM   24  N   UNL     1      43.560 -17.988   3.449  1.00  0.00    -0.063 N 
HETATM   25  H   UNL     1      44.256 -17.853   2.708  1.00  0.00     0.280 HD
HETATM   26  C   UNL     1      43.986 -19.207   4.253  1.00  0.00     0.274 C 
HETATM   27  C   UNL     1      43.991 -19.609   6.794  1.00  0.00     0.009 A 
HETATM   28  C   UNL     1      43.858 -19.026   8.048  1.00  0.00     0.003 A 
HETATM   29  C   UNL     1      43.669 -17.641   8.170  1.00  0.00     0.030 A 
BRANCH  24  30
HETATM   30  C   UNL     1      42.198 -18.144   2.830  1.00  0.00     0.239 C 
BRANCH  30  31
HETATM   31  C   UNL     1      42.184 -17.827   1.324  1.00  0.00     0.003 C 
HETATM   32  C   UNL     1      43.619 -17.584   0.850  1.00  0.00     0.011 C 
HETATM   33  C   UNL     1      41.315 -16.617   0.975  1.00  0.00     0.011 C 
ENDBRANCH  30  31
ENDBRANCH  24  30
ENDBRANCH   1  20
TORSDOF 7
ENDMDL
MODEL 3
REMARK VINA RESULT:      -8.5      5.803      8.291
REMARK  7 active torsions:
REMARK  status: ('A' for Active; 'I' for Inactive)
REMARK    1  A    between atoms: C_2  and  C_3 
REMARK    2  A    between atoms: C_3  and  N_4 
REMARK    3  A    between atoms: C_10  and  N_11 
REMARK       I    between atoms: N_11  and  C_12 
REMARK    4  A    between atoms: C_12  and  C_13 
REMARK    5  A    between atoms: C_13  and  N_14 
REMARK       I    between atoms: N_14  and  C_15 
REMARK       I    between atoms: C_15  and  N_16 
REMARK    6  A    between atoms: N_16  and  C_17 
REMARK    7  A    between atoms: C_17  and  C_18 
ROOT
HETATM    1  N   UNL     1      42.694 -14.464   6.299  1.00  0.00    -0.325 N 
HETATM    2  C   UNL     1      43.959 -13.913   6.382  1.00  0.00     0.239 C 
HETATM    3  O   UNL     1      44.685 -13.667   5.422  1.00  0.00    -0.271 OA
HETATM    4  H   UNL     1      42.286 -14.747   7.190  1.00  0.00     0.169 HD
ENDROOT
BRANCH   2   5
HETATM    5  C   UNL     1      44.452 -13.710   7.818  1.00  0.00     0.227 C 
BRANCH   5   6
HETATM    6  N   UNL     1      45.768 -13.095   7.878  1.00  0.00    -0.334 N 
HETATM    7  C   UNL     1      46.030 -12.005   8.655  1.00  0.00     0.316 C 
HETATM    8  N   UNL     1      45.420 -12.023   9.873  1.00  0.00    -0.339 N 
HETATM    9  O   UNL     1      46.731 -11.096   8.235  1.00  0.00    -0.247 OA
HETATM   10  H   UNL     1      45.629 -12.873  10.379  1.00  0.00     0.164 HD
HETATM   11  H   UNL     1      46.240 -12.999   6.985  1.00  0.00     0.164 HD
BRANCH   8  12
HETATM   12  C   UNL     1      45.383 -10.822  10.684  1.00  0.00     0.162 C 
BRANCH  12  13
HETATM   13  C   UNL     1      44.000 -10.672  11.268  1.00  0.00    -0.040 A 
HETATM   14  C   UNL     1      43.800 -10.101  12.533  1.00  0.00     0.012 A 
HETATM   15  C   UNL     1      42.511 -10.001  13.063  1.00  0.00     0.043 A 
HETATM   16  C   UNL     1      41.426 -10.465  12.327  1.00  0.00     0.116 A 
HETATM   17  F   UNL     1      40.194 -10.377  12.844  1.00  0.00    -0.206 F 
HETATM   18  C   UNL     1      41.600 -11.023  11.068  1.00  0.00     0.043 A 
HETATM   19  C   UNL     1      42.885 -11.125  10.537  1.00  0.00     0.012 A 
ENDBRANCH  12  13
ENDBRANCH   8  12
ENDBRANCH   5   6
ENDBRANCH   2   5
BRANCH   1  20
HETATM   20  C   UNL     1      41.971 -14.835   5.144  1.00  0.00     0.043 A 
HETATM   21  C   UNL     1      41.997 -16.068   4.496  1.00  0.00     0.002 A 
HETATM   22  C   UNL     1      42.792 -17.304   4.777  1.00  0.00     0.276 C 
HETATM   23  C   UNL     1      41.214 -16.291   3.347  1.00  0.00    -0.022 A 
HETATM   24  N   UNL     1      42.632 -18.214   3.549  1.00  0.00    -0.063 N 
HETATM   25  H   UNL     1      42.384 -19.149   3.889  1.00  0.00     0.280 HD
HETATM   26  C   UNL     1      41.422 -17.665   2.808  1.00  0.00     0.274 C 
HETATM   27  C   UNL     1      40.381 -15.313   2.829  1.00  0.00     0.009 A 
HETATM   28  C   UNL     1      40.361 -14.073   3.454  1.00  0.00     0.003 A 
HETATM   29  C   UNL     1      41.157 -13.835   4.585  1.00  0.00     0.030 A 
BRANCH  24  30
HETATM   30  C   UNL     1      43.855 -18.310   2.679  1.00  0.00     0.239 C 
BRANCH  30  31
HETATM   31  C   UNL     1      44.455 -19.727   2.640  1.00  0.00     0.003 C 
HETATM   32  C   UNL     1      43.491 -20.658   1.899  1.00  0.00     0.011 C 
HETATM   33  C   UNL     1      44.749 -20.291   4.031  1.00  0.00     0.011 C 
ENDBRANCH  30  31
ENDBRANCH  24  30
ENDBRANCH   1  20
TORSDOF 7
ENDMDL
MODEL 4
REMARK VINA RESULT:      -8.5      1.312      2.876
REMARK  7 active torsions:
REMARK  status: ('A' for Active; 'I' for Inactive)
REMARK    1  A    between atoms: C_2  and  C_3 
REMARK    2  A    between atoms: C_3  and  N_4 
REMARK    3  A    between atoms: C_10  and  N_11 
REMARK       I    between atoms: N_11  and  C_12 
REMARK    4  A    between atoms: C_12  and  C_13 
REMARK    5  A    between atoms: C_13  and  N_14 
REMARK       I    between atoms: N_14  and  C_15 
REMARK       I    between atoms: C_15  and  N_16 
REMARK    6  A    between atoms: N_16  and  C_17 
REMARK    7  A    between atoms: C_17  and  C_18 
ROOT
HETATM    1  N   UNL     1      40.834 -16.647   3.661  1.00  0.00    -0.325 N 
HETATM    2  C   UNL     1      41.564 -16.387   4.807  1.00  0.00     0.239 C 
HETATM    3  O   UNL     1      42.453 -15.544   4.899  1.00  0.00    -0.271 OA
HETATM    4  H   UNL     1      40.243 -17.477   3.704  1.00  0.00     0.169 HD
ENDROOT
BRANCH   2   5
HETATM    5  C   UNL     1      41.241 -17.327   5.971  1.00  0.00     0.227 C 
BRANCH   5   6
HETATM    6  N   UNL     1      42.228 -17.259   7.038  1.00  0.00    -0.334 N 
HETATM    7  C   UNL     1      43.368 -18.007   7.028  1.00  0.00     0.316 C 
HETATM    8  N   UNL     1      43.950 -18.127   5.802  1.00  0.00    -0.339 N 
HETATM    9  O   UNL     1      43.774 -18.538   8.051  1.00  0.00    -0.247 OA
HETATM   10  H   UNL     1      44.121 -17.222   5.382  1.00  0.00     0.164 HD
HETATM   11  H   UNL     1      41.845 -17.234   7.978  1.00  0.00     0.164 HD
BRANCH   8  12
HETATM   12  C   UNL     1      44.998 -19.105   5.587  1.00  0.00     0.162 C 
BRANCH  12  13
HETATM   13  C   UNL     1      44.630 -19.961   4.400  1.00  0.00    -0.040 A 
HETATM   14  C   UNL     1      44.871 -21.342   4.393  1.00  0.00     0.012 A 
HETATM   15  C   UNL     1      44.548 -22.106   3.269  1.00  0.00     0.043 A 
HETATM   16  C   UNL     1      43.979 -21.491   2.159  1.00  0.00     0.116 A 
HETATM   17  F   UNL     1      43.680 -22.226   1.080  1.00  0.00    -0.206 F 
HETATM   18  C   UNL     1      43.721 -20.127   2.149  1.00  0.00     0.043 A 
HETATM   19  C   UNL     1      44.044 -19.362   3.269  1.00  0.00     0.012 A 
ENDBRANCH  12  13
ENDBRANCH   8  12
ENDBRANCH   5   6
ENDBRANCH   2   5
BRANCH   1  20
HETATM   20  C   UNL     1      40.925 -16.018   2.400  1.00  0.00     0.043 A 
HETATM   21  C   UNL     1      40.672 -14.680   2.107  1.00  0.00     0.002 A 
HETATM   22  C   UNL     1      40.205 -13.559   2.980  1.00  0.00     0.276 C 
HETATM   23  C   UNL     1      40.809 -14.196   0.792  1.00  0.00    -0.022 A 
HETATM   24  N   UNL     1      39.809 -12.410   2.040  1.00  0.00    -0.063 N 
HETATM   25  H   UNL     1      40.256 -11.557   2.391  1.00  0.00     0.280 HD
HETATM   26  C   UNL     1      40.461 -12.749   0.709  1.00  0.00     0.274 C 
HETATM   27  C   UNL     1      41.212 -15.014  -0.251  1.00  0.00     0.009 A 
HETATM   28  C   UNL     1      41.447 -16.355   0.024  1.00  0.00     0.003 A 
HETATM   29  C   UNL     1      41.290 -16.851   1.328  1.00  0.00     0.030 A 
BRANCH  24  30
HETATM   30  C   UNL     1      38.327 -12.182   1.922  1.00  0.00     0.239 C 
BRANCH  30  31
HETATM   31  C   UNL     1      37.736 -12.737   0.614  1.00  0.00     0.003 C 
HETATM   32  C   UNL     1      36.599 -11.823   0.151  1.00  0.00     0.011 C 
HETATM   33  C   UNL     1      37.221 -14.171   0.751  1.00  0.00     0.011 C 
ENDBRANCH  30  31
ENDBRANCH  24  30
ENDBRANCH   1  20
TORSDOF 7
ENDMDL
MODEL 5
REMARK VINA RESULT:      -8.3      1.712      2.840
REMARK  7 active torsions:
REMARK  status: ('A' for Active; 'I' for Inactive)
REMARK    1  A    between atoms: C_2  and  C_3 
REMARK    2  A    between atoms: C_3  and  N_4 
REMARK    3  A    between atoms: C_10  and  N_11 
REMARK       I    between atoms: N_11  and  C_12 
REMARK    4  A    between atoms: C_12  and  C_13 
REMARK    5  A    between atoms: C_13  and  N_14 
REMARK       I    between atoms: N_14  and  C_15 
REMARK       I    between atoms: C_15  and  N_16 
REMARK    6  A    between atoms: N_16  and  C_17 
REMARK    7  A    between atoms: C_17  and  C_18 
ROOT
HETATM    1  N   UNL     1      39.986 -15.397   2.577  1.00  0.00    -0.325 N 
HETATM    2  C   UNL     1      40.511 -14.737   3.673  1.00  0.00     0.239 C 
HETATM    3  O   UNL     1      40.627 -13.518   3.772  1.00  0.00    -0.271 OA
HETATM    4  H   UNL     1      40.100 -16.411   2.588  1.00  0.00     0.169 HD
ENDROOT
BRANCH   2   5
HETATM    5  C   UNL     1      41.045 -15.673   4.761  1.00  0.00     0.227 C 
BRANCH   5   6
HETATM    6  N   UNL     1      42.331 -15.244   5.288  1.00  0.00    -0.334 N 
HETATM    7  C   UNL     1      43.319 -16.127   5.614  1.00  0.00     0.316 C 
HETATM    8  N   UNL     1      43.446 -17.172   4.749  1.00  0.00    -0.339 N 
HETATM    9  O   UNL     1      43.983 -15.971   6.628  1.00  0.00    -0.247 OA
HETATM   10  H   UNL     1      43.561 -16.852   3.796  1.00  0.00     0.164 HD
HETATM   11  H   UNL     1      42.286 -14.510   5.987  1.00  0.00     0.164 HD
BRANCH   8  12
HETATM   12  C   UNL     1      44.255 -18.319   5.109  1.00  0.00     0.162 C 
BRANCH  12  13
HETATM   13  C   UNL     1      44.156 -19.349   4.011  1.00  0.00    -0.040 A 
HETATM   14  C   UNL     1      43.466 -19.083   2.821  1.00  0.00     0.012 A 
HETATM   15  C   UNL     1      43.365 -20.065   1.832  1.00  0.00     0.043 A 
HETATM   16  C   UNL     1      43.958 -21.307   2.032  1.00  0.00     0.116 A 
HETATM   17  F   UNL     1      43.849 -22.249   1.087  1.00  0.00    -0.206 F 
HETATM   18  C   UNL     1      44.655 -21.588   3.199  1.00  0.00     0.043 A 
HETATM   19  C   UNL     1      44.757 -20.610   4.188  1.00  0.00     0.012 A 
ENDBRANCH  12  13
ENDBRANCH   8  12
ENDBRANCH   5   6
ENDBRANCH   2   5
BRANCH   1  20
HETATM   20  C   UNL     1      39.471 -14.846   1.384  1.00  0.00     0.043 A 
HETATM   21  C   UNL     1      40.164 -14.611   0.198  1.00  0.00     0.002 A 
HETATM   22  C   UNL     1      41.605 -14.813  -0.149  1.00  0.00     0.276 C 
HETATM   23  C   UNL     1      39.509 -14.054  -0.917  1.00  0.00    -0.022 A 
HETATM   24  N   UNL     1      41.839 -14.085  -1.482  1.00  0.00    -0.063 N 
HETATM   25  H   UNL     1      42.329 -14.735  -2.106  1.00  0.00     0.280 HD
HETATM   26  C   UNL     1      40.449 -13.865  -2.059  1.00  0.00     0.274 C 
HETATM   27  C   UNL     1      38.161 -13.737  -0.890  1.00  0.00     0.009 A 
HETATM   28  C   UNL     1      37.463 -13.947   0.293  1.00  0.00     0.003 A 
HETATM   29  C   UNL     1      38.115 -14.480   1.416  1.00  0.00     0.030 A 
BRANCH  24  30
HETATM   30  C   UNL     1      42.631 -12.812  -1.369  1.00  0.00     0.239 C 
BRANCH  30  31
HETATM   31  C   UNL     1      41.802 -11.558  -1.697  1.00  0.00     0.003 C 
HETATM   32  C   UNL     1      42.583 -10.687  -2.686  1.00  0.00     0.011 C 
HETATM   33  C   UNL     1      41.444 -10.735  -0.459  1.00  0.00     0.011 C 
ENDBRANCH  30  31
ENDBRANCH  24  30
ENDBRANCH   1  20
TORSDOF 7
ENDMDL
MODEL 6
REMARK VINA RESULT:      -8.3      2.857      5.336
REMARK  7 active torsions:
REMARK  status: ('A' for Active; 'I' for Inactive)
REMARK    1  A    between atoms: C_2  and  C_3 
REMARK    2  A    between atoms: C_3  and  N_4 
REMARK    3  A    between atoms: C_10  and  N_11 
REMARK       I    between atoms: N_11  and  C_12 
REMARK    4  A    between atoms: C_12  and  C_13 
REMARK    5  A    between atoms: C_13  and  N_14 
REMARK       I    between atoms: N_14  and  C_15 
REMARK       I    between atoms: C_15  and  N_16 
REMARK    6  A    between atoms: N_16  and  C_17 
REMARK    7  A    between atoms: C_17  and  C_18 
ROOT
HETATM    1  N   UNL     1      40.283 -15.358   3.894  1.00  0.00    -0.325 N 
HETATM    2  C   UNL     1      40.227 -15.292   2.514  1.00  0.00     0.239 C 
HETATM    3  O   UNL     1      40.460 -14.287   1.847  1.00  0.00    -0.271 OA
HETATM    4  H   UNL     1      39.914 -16.218   4.301  1.00  0.00     0.169 HD
ENDROOT
BRANCH   2   5
HETATM    5  C   UNL     1      39.741 -16.585   1.853  1.00  0.00     0.227 C 
BRANCH   5   6
HETATM    6  N   UNL     1      40.658 -17.073   0.834  1.00  0.00    -0.334 N 
HETATM    7  C   UNL     1      41.970 -17.336   1.099  1.00  0.00     0.316 C 
HETATM    8  N   UNL     1      42.192 -17.923   2.308  1.00  0.00    -0.339 N 
HETATM    9  O   UNL     1      42.841 -17.021   0.302  1.00  0.00    -0.247 OA
HETATM   10  H   UNL     1      41.637 -18.760   2.423  1.00  0.00     0.164 HD
HETATM   11  H   UNL     1      40.576 -16.621  -0.070  1.00  0.00     0.164 HD
BRANCH   8  12
HETATM   12  C   UNL     1      43.540 -18.008   2.837  1.00  0.00     0.162 C 
BRANCH  12  13
HETATM   13  C   UNL     1      43.896 -19.461   3.030  1.00  0.00    -0.040 A 
HETATM   14  C   UNL     1      44.482 -19.918   4.218  1.00  0.00     0.012 A 
HETATM   15  C   UNL     1      44.830 -21.264   4.359  1.00  0.00     0.043 A 
HETATM   16  C   UNL     1      44.585 -22.151   3.316  1.00  0.00     0.116 A 
HETATM   17  F   UNL     1      44.930 -23.438   3.451  1.00  0.00    -0.206 F 
HETATM   18  C   UNL     1      43.995 -21.722   2.135  1.00  0.00     0.043 A 
HETATM   19  C   UNL     1      43.648 -20.379   1.991  1.00  0.00     0.012 A 
ENDBRANCH  12  13
ENDBRANCH   8  12
ENDBRANCH   5   6
ENDBRANCH   2   5
BRANCH   1  20
HETATM   20  C   UNL     1      40.624 -14.339   4.809  1.00  0.00     0.043 A 
HETATM   21  C   UNL     1      41.894 -14.034   5.295  1.00  0.00     0.002 A 
HETATM   22  C   UNL     1      43.217 -14.687   5.049  1.00  0.00     0.276 C 
HETATM   23  C   UNL     1      42.077 -12.979   6.209  1.00  0.00    -0.022 A 
HETATM   24  N   UNL     1      44.187 -14.114   6.095  1.00  0.00    -0.063 N 
HETATM   25  H   UNL     1      45.035 -13.822   5.599  1.00  0.00     0.280 HD
HETATM   26  C   UNL     1      43.508 -12.856   6.612  1.00  0.00     0.274 C 
HETATM   27  C   UNL     1      41.022 -12.196   6.645  1.00  0.00     0.009 A 
HETATM   28  C   UNL     1      39.747 -12.502   6.185  1.00  0.00     0.003 A 
HETATM   29  C   UNL     1      39.552 -13.568   5.292  1.00  0.00     0.030 A 
BRANCH  24  30
HETATM   30  C   UNL     1      44.558 -15.071   7.194  1.00  0.00     0.239 C 
BRANCH  30  31
HETATM   31  C   UNL     1      44.066 -16.506   6.932  1.00  0.00     0.003 C 
HETATM   32  C   UNL     1      43.292 -17.001   8.157  1.00  0.00     0.011 C 
HETATM   33  C   UNL     1      45.202 -17.479   6.613  1.00  0.00     0.011 C 
ENDBRANCH  30  31
ENDBRANCH  24  30
ENDBRANCH   1  20
TORSDOF 7
ENDMDL
MODEL 7
REMARK VINA RESULT:      -8.2      1.816      2.368
REMARK  7 active torsions:
REMARK  status: ('A' for Active; 'I' for Inactive)
REMARK    1  A    between atoms: C_2  and  C_3 
REMARK    2  A    between atoms: C_3  and  N_4 
REMARK    3  A    between atoms: C_10  and  N_11 
REMARK       I    between atoms: N_11  and  C_12 
REMARK    4  A    between atoms: C_12  and  C_13 
REMARK    5  A    between atoms: C_13  and  N_14 
REMARK       I    between atoms: N_14  and  C_15 
REMARK       I    between atoms: C_15  and  N_16 
REMARK    6  A    between atoms: N_16  and  C_17 
REMARK    7  A    between atoms: C_17  and  C_18 
ROOT
HETATM    1  N   UNL     1      42.274 -13.853   6.261  1.00  0.00    -0.325 N 
HETATM    2  C   UNL     1      43.588 -14.012   5.860  1.00  0.00     0.239 C 
HETATM    3  O   UNL     1      44.051 -13.616   4.793  1.00  0.00    -0.271 OA
HETATM    4  H   UNL     1      42.013 -14.370   7.100  1.00  0.00     0.169 HD
ENDROOT
BRANCH   2   5
HETATM    5  C   UNL     1      44.437 -14.832   6.835  1.00  0.00     0.227 C 
BRANCH   5   6
HETATM    6  N   UNL     1      43.634 -15.689   7.693  1.00  0.00    -0.334 N 
HETATM    7  C   UNL     1      43.250 -16.944   7.319  1.00  0.00     0.316 C 
HETATM    8  N   UNL     1      44.203 -17.646   6.646  1.00  0.00    -0.339 N 
HETATM    9  O   UNL     1      42.121 -17.346   7.558  1.00  0.00    -0.247 OA
HETATM   10  H   UNL     1      45.071 -17.685   7.164  1.00  0.00     0.164 HD
HETATM   11  H   UNL     1      42.868 -15.226   8.169  1.00  0.00     0.164 HD
BRANCH   8  12
HETATM   12  C   UNL     1      43.851 -18.870   5.954  1.00  0.00     0.162 C 
BRANCH  12  13
HETATM   13  C   UNL     1      43.867 -18.612   4.468  1.00  0.00    -0.040 A 
HETATM   14  C   UNL     1      43.661 -17.326   3.948  1.00  0.00     0.012 A 
HETATM   15  C   UNL     1      43.652 -17.120   2.566  1.00  0.00     0.043 A 
HETATM   16  C   UNL     1      43.854 -18.195   1.708  1.00  0.00     0.116 A 
HETATM   17  F   UNL     1      43.833 -17.994   0.384  1.00  0.00    -0.206 F 
HETATM   18  C   UNL     1      44.071 -19.474   2.201  1.00  0.00     0.043 A 
HETATM   19  C   UNL     1      44.080 -19.684   3.580  1.00  0.00     0.012 A 
ENDBRANCH  12  13
ENDBRANCH   8  12
ENDBRANCH   5   6
ENDBRANCH   2   5
BRANCH   1  20
HETATM   20  C   UNL     1      41.218 -13.212   5.577  1.00  0.00     0.043 A 
HETATM   21  C   UNL     1      40.662 -13.581   4.354  1.00  0.00     0.002 A 
HETATM   22  C   UNL     1      41.021 -14.683   3.409  1.00  0.00     0.276 C 
HETATM   23  C   UNL     1      39.604 -12.838   3.795  1.00  0.00    -0.022 A 
HETATM   24  N   UNL     1      40.272 -14.395   2.098  1.00  0.00    -0.063 N 
HETATM   25  H   UNL     1      39.803 -15.262   1.815  1.00  0.00     0.280 HD
HETATM   26  C   UNL     1      39.190 -13.396   2.475  1.00  0.00     0.274 C 
HETATM   27  C   UNL     1      39.064 -11.736   4.437  1.00  0.00     0.009 A 
HETATM   28  C   UNL     1      39.623 -11.346   5.647  1.00  0.00     0.003 A 
HETATM   29  C   UNL     1      40.694 -12.066   6.199  1.00  0.00     0.030 A 
BRANCH  24  30
HETATM   30  C   UNL     1      41.145 -13.913   0.972  1.00  0.00     0.239 C 
BRANCH  30  31
HETATM   31  C   UNL     1      40.863 -14.633  -0.358  1.00  0.00     0.003 C 
HETATM   32  C   UNL     1      41.327 -16.088  -0.247  1.00  0.00     0.011 C 
HETATM   33  C   UNL     1      41.539 -13.966  -1.556  1.00  0.00     0.011 C 
ENDBRANCH  30  31
ENDBRANCH  24  30
ENDBRANCH   1  20
TORSDOF 7
ENDMDL
MODEL 8
REMARK VINA RESULT:      -8.1      5.746      8.409
REMARK  7 active torsions:
REMARK  status: ('A' for Active; 'I' for Inactive)
REMARK    1  A    between atoms: C_2  and  C_3 
REMARK    2  A    between atoms: C_3  and  N_4 
REMARK    3  A    between atoms: C_10  and  N_11 
REMARK       I    between atoms: N_11  and  C_12 
REMARK    4  A    between atoms: C_12  and  C_13 
REMARK    5  A    between atoms: C_13  and  N_14 
REMARK       I    between atoms: N_14  and  C_15 
REMARK       I    between atoms: C_15  and  N_16 
REMARK    6  A    between atoms: N_16  and  C_17 
REMARK    7  A    between atoms: C_17  and  C_18 
ROOT
HETATM    1  N   UNL     1      42.137 -14.283   4.432  1.00  0.00    -0.325 N 
HETATM    2  C   UNL     1      43.250 -13.749   5.054  1.00  0.00     0.239 C 
HETATM    3  O   UNL     1      44.376 -13.703   4.565  1.00  0.00    -0.271 OA
HETATM    4  H   UNL     1      41.315 -14.385   5.028  1.00  0.00     0.169 HD
ENDROOT
BRANCH   2   5
HETATM    5  C   UNL     1      42.993 -13.288   6.491  1.00  0.00     0.227 C 
BRANCH   5   6
HETATM    6  N   UNL     1      44.024 -13.733   7.416  1.00  0.00    -0.334 N 
HETATM    7  C   UNL     1      44.600 -12.895   8.326  1.00  0.00     0.316 C 
HETATM    8  N   UNL     1      43.735 -12.019   8.909  1.00  0.00    -0.339 N 
HETATM    9  O   UNL     1      45.802 -12.940   8.538  1.00  0.00    -0.247 OA
HETATM   10  H   UNL     1      42.946 -12.497   9.324  1.00  0.00     0.164 HD
HETATM   11  H   UNL     1      44.732 -14.338   7.014  1.00  0.00     0.164 HD
BRANCH   8  12
HETATM   12  C   UNL     1      44.243 -10.901   9.679  1.00  0.00     0.162 C 
BRANCH  12  13
HETATM   13  C   UNL     1      43.405 -10.746  10.924  1.00  0.00    -0.040 A 
HETATM   14  C   UNL     1      43.936 -10.192  12.097  1.00  0.00     0.012 A 
HETATM   15  C   UNL     1      43.147 -10.088  13.245  1.00  0.00     0.043 A 
HETATM   16  C   UNL     1      41.829 -10.530  13.218  1.00  0.00     0.116 A 
HETATM   17  F   UNL     1      41.080 -10.438  14.324  1.00  0.00    -0.206 F 
HETATM   18  C   UNL     1      41.279 -11.071  12.064  1.00  0.00     0.043 A 
HETATM   19  C   UNL     1      42.065 -11.178  10.916  1.00  0.00     0.012 A 
ENDBRANCH  12  13
ENDBRANCH   8  12
ENDBRANCH   5   6
ENDBRANCH   2   5
BRANCH   1  20
HETATM   20  C   UNL     1      42.039 -14.852   3.144  1.00  0.00     0.043 A 
HETATM   21  C   UNL     1      42.084 -16.206   2.816  1.00  0.00     0.002 A 
HETATM   22  C   UNL     1      42.286 -17.413   3.676  1.00  0.00     0.276 C 
HETATM   23  C   UNL     1      41.969 -16.623   1.477  1.00  0.00    -0.022 A 
HETATM   24  N   UNL     1      42.554 -18.588   2.722  1.00  0.00    -0.063 N 
HETATM   25  H   UNL     1      41.944 -19.360   3.006  1.00  0.00     0.280 HD
HETATM   26  C   UNL     1      42.073 -18.106   1.362  1.00  0.00     0.274 C 
HETATM   27  C   UNL     1      41.791 -15.721   0.441  1.00  0.00     0.009 A 
HETATM   28  C   UNL     1      41.766 -14.367   0.752  1.00  0.00     0.003 A 
HETATM   29  C   UNL     1      41.903 -13.941   2.082  1.00  0.00     0.030 A 
BRANCH  24  30
HETATM   30  C   UNL     1      43.981 -19.063   2.701  1.00  0.00     0.239 C 
BRANCH  30  31
HETATM   31  C   UNL     1      44.144 -20.497   3.237  1.00  0.00     0.003 C 
HETATM   32  C   UNL     1      45.232 -20.507   4.315  1.00  0.00     0.011 C 
HETATM   33  C   UNL     1      44.493 -21.508   2.144  1.00  0.00     0.011 C 
ENDBRANCH  30  31
ENDBRANCH  24  30
ENDBRANCH   1  20
TORSDOF 7
ENDMDL
MODEL 9
REMARK VINA RESULT:      -8.1      5.042      7.913
REMARK  7 active torsions:
REMARK  status: ('A' for Active; 'I' for Inactive)
REMARK    1  A    between atoms: C_2  and  C_3 
REMARK    2  A    between atoms: C_3  and  N_4 
REMARK    3  A    between atoms: C_10  and  N_11 
REMARK       I    between atoms: N_11  and  C_12 
REMARK    4  A    between atoms: C_12  and  C_13 
REMARK    5  A    between atoms: C_13  and  N_14 
REMARK       I    between atoms: N_14  and  C_15 
REMARK       I    between atoms: C_15  and  N_16 
REMARK    6  A    between atoms: N_16  and  C_17 
REMARK    7  A    between atoms: C_17  and  C_18 
ROOT
HETATM    1  N   UNL     1      44.092 -17.492   5.456  1.00  0.00    -0.325 N 
HETATM    2  C   UNL     1      43.026 -16.999   6.187  1.00  0.00     0.239 C 
HETATM    3  O   UNL     1      41.843 -17.151   5.896  1.00  0.00    -0.271 OA
HETATM    4  H   UNL     1      45.009 -17.151   5.744  1.00  0.00     0.169 HD
ENDROOT
BRANCH   2   5
HETATM    5  C   UNL     1      43.443 -16.133   7.379  1.00  0.00     0.227 C 
BRANCH   5   6
HETATM    6  N   UNL     1      44.702 -15.439   7.155  1.00  0.00    -0.334 N 
HETATM    7  C   UNL     1      44.785 -14.079   7.096  1.00  0.00     0.316 C 
HETATM    8  N   UNL     1      43.997 -13.428   7.997  1.00  0.00    -0.339 N 
HETATM    9  O   UNL     1      45.493 -13.534   6.262  1.00  0.00    -0.247 OA
HETATM   10  H   UNL     1      44.169 -13.749   8.940  1.00  0.00     0.164 HD
HETATM   11  H   UNL     1      45.299 -15.848   6.444  1.00  0.00     0.164 HD
BRANCH   8  12
HETATM   12  C   UNL     1      43.774 -12.001   7.870  1.00  0.00     0.162 C 
BRANCH  12  13
HETATM   13  C   UNL     1      43.841 -11.373   9.240  1.00  0.00    -0.040 A 
HETATM   14  C   UNL     1      44.919 -11.617  10.102  1.00  0.00     0.012 A 
HETATM   15  C   UNL     1      44.942 -11.047  11.377  1.00  0.00     0.043 A 
HETATM   16  C   UNL     1      43.893 -10.230  11.785  1.00  0.00     0.116 A 
HETATM   17  F   UNL     1      43.915  -9.694  13.012  1.00  0.00    -0.206 F 
HETATM   18  C   UNL     1      42.822  -9.966  10.943  1.00  0.00     0.043 A 
HETATM   19  C   UNL     1      42.796 -10.535   9.670  1.00  0.00     0.012 A 
ENDBRANCH  12  13
ENDBRANCH   8  12
ENDBRANCH   5   6
ENDBRANCH   2   5
BRANCH   1  20
HETATM   20  C   UNL     1      44.064 -18.265   4.275  1.00  0.00     0.043 A 
HETATM   21  C   UNL     1      43.803 -17.816   2.982  1.00  0.00     0.002 A 
HETATM   22  C   UNL     1      43.443 -16.456   2.473  1.00  0.00     0.276 C 
HETATM   23  C   UNL     1      43.812 -18.713   1.896  1.00  0.00    -0.022 A 
HETATM   24  N   UNL     1      42.970 -16.644   1.023  1.00  0.00    -0.063 N 
HETATM   25  H   UNL     1      43.463 -15.954   0.447  1.00  0.00     0.280 HD
HETATM   26  C   UNL     1      43.479 -18.019   0.619  1.00  0.00     0.274 C 
HETATM   27  C   UNL     1      44.096 -20.058   2.061  1.00  0.00     0.009 A 
HETATM   28  C   UNL     1      44.338 -20.522   3.347  1.00  0.00     0.003 A 
HETATM   29  C   UNL     1      44.306 -19.640   4.438  1.00  0.00     0.030 A 
BRANCH  24  30
HETATM   30  C   UNL     1      41.487 -16.489   0.824  1.00  0.00     0.239 C 
BRANCH  30  31
HETATM   31  C   UNL     1      40.968 -15.099   1.233  1.00  0.00     0.003 C 
HETATM   32  C   UNL     1      39.936 -15.261   2.352  1.00  0.00     0.011 C 
HETATM   33  C   UNL     1      40.349 -14.325   0.069  1.00  0.00     0.011 C 
ENDBRANCH  30  31
ENDBRANCH  24  30
ENDBRANCH   1  20
TORSDOF 7
ENDMDL
MODEL 10
REMARK VINA RESULT:      -8.1      2.207      4.564
REMARK  7 active torsions:
REMARK  status: ('A' for Active; 'I' for Inactive)
REMARK    1  A    between atoms: C_2  and  C_3 
REMARK    2  A    between atoms: C_3  and  N_4 
REMARK    3  A    between atoms: C_10  and  N_11 
REMARK       I    between atoms: N_11  and  C_12 
REMARK    4  A    between atoms: C_12  and  C_13 
REMARK    5  A    between atoms: C_13  and  N_14 
REMARK       I    between atoms: N_14  and  C_15 
REMARK       I    between atoms: C_15  and  N_16 
REMARK    6  A    between atoms: N_16  and  C_17 
REMARK    7  A    between atoms: C_17  and  C_18 
ROOT
HETATM    1  N   UNL     1      40.394 -15.197   0.133  1.00  0.00    -0.325 N 
HETATM    2  C   UNL     1      41.099 -16.009   1.002  1.00  0.00     0.239 C 
HETATM    3  O   UNL     1      42.300 -16.252   0.922  1.00  0.00    -0.271 OA
HETATM    4  H   UNL     1      39.380 -15.221   0.245  1.00  0.00     0.169 HD
ENDROOT
BRANCH   2   5
HETATM    5  C   UNL     1      40.224 -16.689   2.059  1.00  0.00     0.227 C 
BRANCH   5   6
HETATM    6  N   UNL     1      40.357 -16.080   3.374  1.00  0.00    -0.334 N 
HETATM    7  C   UNL     1      41.204 -16.572   4.324  1.00  0.00     0.316 C 
HETATM    8  N   UNL     1      42.401 -17.004   3.839  1.00  0.00    -0.339 N 
HETATM    9  O   UNL     1      40.858 -16.632   5.494  1.00  0.00    -0.247 OA
HETATM   10  H   UNL     1      42.862 -16.287   3.295  1.00  0.00     0.164 HD
HETATM   11  H   UNL     1      39.484 -15.799   3.808  1.00  0.00     0.164 HD
BRANCH   8  12
HETATM   12  C   UNL     1      43.282 -17.794   4.677  1.00  0.00     0.162 C 
BRANCH  12  13
HETATM   13  C   UNL     1      43.699 -19.029   3.917  1.00  0.00    -0.040 A 
HETATM   14  C   UNL     1      43.302 -19.238   2.589  1.00  0.00     0.012 A 
HETATM   15  C   UNL     1      43.678 -20.404   1.918  1.00  0.00     0.043 A 
HETATM   16  C   UNL     1      44.455 -21.355   2.572  1.00  0.00     0.116 A 
HETATM   17  F   UNL     1      44.804 -22.476   1.928  1.00  0.00    -0.206 F 
HETATM   18  C   UNL     1      44.869 -21.163   3.882  1.00  0.00     0.043 A 
HETATM   19  C   UNL     1      44.494 -20.000   4.555  1.00  0.00     0.012 A 
ENDBRANCH  12  13
ENDBRANCH   8  12
ENDBRANCH   5   6
ENDBRANCH   2   5
BRANCH   1  20
HETATM   20  C   UNL     1      40.875 -14.479  -0.983  1.00  0.00     0.043 A 
HETATM   21  C   UNL     1      41.614 -13.298  -0.969  1.00  0.00     0.002 A 
HETATM   22  C   UNL     1      42.066 -12.441   0.170  1.00  0.00     0.276 C 
HETATM   23  C   UNL     1      42.027 -12.696  -2.173  1.00  0.00    -0.022 A 
HETATM   24  N   UNL     1      42.561 -11.122  -0.445  1.00  0.00    -0.063 N 
HETATM   25  H   UNL     1      43.479 -10.918  -0.038  1.00  0.00     0.280 HD
HETATM   26  C   UNL     1      42.776 -11.433  -1.918  1.00  0.00     0.274 C 
HETATM   27  C   UNL     1      41.736 -13.254  -3.408  1.00  0.00     0.009 A 
HETATM   28  C   UNL     1      40.981 -14.420  -3.436  1.00  0.00     0.003 A 
HETATM   29  C   UNL     1      40.545 -15.013  -2.241  1.00  0.00     0.030 A 
BRANCH  24  30
HETATM   30  C   UNL     1      41.647  -9.948  -0.223  1.00  0.00     0.239 C 
BRANCH  30  31
HETATM   31  C   UNL     1      40.695 -10.145   0.970  1.00  0.00     0.003 C 
HETATM   32  C   UNL     1      39.250 -10.154   0.461  1.00  0.00     0.011 C 
HETATM   33  C   UNL     1      40.855  -9.071   2.047  1.00  0.00     0.011 C 
ENDBRANCH  30  31
ENDBRANCH  24  30
ENDBRANCH   1  20
TORSDOF 7
ENDMDL
