MODEL 1
REMARK VINA RESULT:      -8.6      0.000      0.000
REMARK  7 active torsions:
REMARK  status: ('A' for Active; 'I' for Inactive)
REMARK    1  A    between atoms: N_3  and  C_4 
REMARK    2  A    between atoms: C_7  and  O_8 
REMARK    3  A    between atoms: C_14  and  C_15 
REMARK    4  A    between atoms: C_15  and  N_16 
REMARK       I    between atoms: N_16  and  C_17 
REMARK       I    between atoms: C_17  and  N_18 
REMARK    5  A    between atoms: N_18  and  C_19 
REMARK    6  A    between atoms: C_19  and  C_20 
REMARK    7  A    between atoms: C_20  and  C_21 
ROOT
HETATM    1  C   UNL     1      41.365  -9.424   9.583  1.00  0.00     0.068 C 
HETATM    2  C   UNL     1      42.458 -10.438   9.606  1.00  0.00     0.014 A 
HETATM    3  N   UNL     1      43.063 -10.936  10.758  1.00  0.00    -0.319 N 
HETATM    4  C   UNL     1      43.982 -11.912  10.370  1.00  0.00     0.021 A 
HETATM    5  C   UNL     1      44.929 -12.587  11.312  1.00  0.00     0.069 C 
HETATM    6  C   UNL     1      43.911 -12.069   8.990  1.00  0.00    -0.016 A 
HETATM    7  C   UNL     1      42.974 -11.120   8.521  1.00  0.00     0.035 A 
ENDROOT
BRANCH   6   8
HETATM    8  C   UNL     1      44.684 -13.024   8.144  1.00  0.00     0.165 C 
BRANCH   8   9
HETATM    9  N   UNL     1      43.904 -13.347   6.973  1.00  0.00    -0.339 N 
HETATM   10  C   UNL     1      43.606 -14.588   6.513  1.00  0.00     0.316 C 
HETATM   11  N   UNL     1      43.852 -15.614   7.378  1.00  0.00    -0.343 N 
HETATM   12  O   UNL     1      43.168 -14.739   5.378  1.00  0.00    -0.248 OA
HETATM   13  H   UNL     1      43.698 -15.380   8.348  1.00  0.00     0.164 HD
HETATM   14  H   UNL     1      43.779 -12.624   6.277  1.00  0.00     0.164 HD
BRANCH  11  15
HETATM   15  C   UNL     1      43.493 -16.972   7.012  1.00  0.00     0.129 C 
BRANCH  15  16
HETATM   16  C   UNL     1      44.699 -17.788   6.536  1.00  0.00     0.058 C 
BRANCH  16  17
HETATM   17  C   UNL     1      44.473 -18.494   5.218  1.00  0.00    -0.057 A 
HETATM   18  C   UNL     1      43.777 -17.866   4.176  1.00  0.00     0.007 A 
HETATM   19  C   UNL     1      43.558 -18.531   2.969  1.00  0.00     0.001 A 
HETATM   20  C   UNL     1      44.037 -19.827   2.787  1.00  0.00     0.000 A 
HETATM   21  C   UNL     1      44.739 -20.458   3.812  1.00  0.00     0.001 A 
HETATM   22  C   UNL     1      44.957 -19.796   5.021  1.00  0.00     0.007 A 
ENDBRANCH  16  17
ENDBRANCH  15  16
ENDBRANCH  11  15
ENDBRANCH   8   9
ENDBRANCH   6   8
BRANCH   3  23
HETATM   23  C   UNL     1      42.777 -10.535  12.096  1.00  0.00     0.039 A 
HETATM   24  C   UNL     1      41.665 -11.062  12.763  1.00  0.00     0.033 A 
HETATM   25  C   UNL     1      41.385 -10.665  14.073  1.00  0.00     0.039 A 
HETATM   26  C   UNL     1      42.205  -9.747  14.733  1.00  0.00     0.068 A 
HETATM   27  C   UNL     1      43.313  -9.223  14.068  1.00  0.00     0.039 A 
HETATM   28  C   UNL     1      43.598  -9.613  12.753  1.00  0.00     0.033 A 
BRANCH  26  29
HETATM   29  O   UNL     1      41.814  -9.451  16.009  1.00  0.00    -0.356 OA
HETATM   30  C   UNL     1      41.545  -8.085  16.299  1.00  0.00     0.210 C 
ENDBRANCH  26  29
ENDBRANCH   3  23
TORSDOF 7
ENDMDL
MODEL 2
REMARK VINA RESULT:      -8.5      6.472      9.636
REMARK  7 active torsions:
REMARK  status: ('A' for Active; 'I' for Inactive)
REMARK    1  A    between atoms: N_3  and  C_4 
REMARK    2  A    between atoms: C_7  and  O_8 
REMARK    3  A    between atoms: C_14  and  C_15 
REMARK    4  A    between atoms: C_15  and  N_16 
REMARK       I    between atoms: N_16  and  C_17 
REMARK       I    between atoms: C_17  and  N_18 
REMARK    5  A    between atoms: N_18  and  C_19 
REMARK    6  A    between atoms: C_19  and  C_20 
REMARK    7  A    between atoms: C_20  and  C_21 
ROOT
HETATM    1  C   UNL     1      40.929 -17.532   1.287  1.00  0.00     0.068 C 
HETATM    2  C   UNL     1      40.841 -16.706   2.525  1.00  0.00     0.014 A 
HETATM    3  N   UNL     1      40.264 -15.441   2.602  1.00  0.00    -0.319 N 
HETATM    4  C   UNL     1      40.309 -15.030   3.936  1.00  0.00     0.021 A 
HETATM    5  C   UNL     1      39.908 -13.667   4.403  1.00  0.00     0.069 C 
HETATM    6  C   UNL     1      40.854 -16.056   4.700  1.00  0.00    -0.016 A 
HETATM    7  C   UNL     1      41.209 -17.089   3.801  1.00  0.00     0.035 A 
ENDROOT
BRANCH   6   8
HETATM    8  C   UNL     1      41.061 -16.077   6.177  1.00  0.00     0.165 C 
BRANCH   8   9
HETATM    9  N   UNL     1      42.460 -15.854   6.454  1.00  0.00    -0.339 N 
HETATM   10  C   UNL     1      43.407 -16.802   6.666  1.00  0.00     0.316 C 
HETATM   11  N   UNL     1      43.052 -18.076   6.332  1.00  0.00    -0.343 N 
HETATM   12  O   UNL     1      44.492 -16.498   7.149  1.00  0.00    -0.248 OA
HETATM   13  H   UNL     1      42.441 -18.137   5.531  1.00  0.00     0.164 HD
HETATM   14  H   UNL     1      42.734 -14.938   6.784  1.00  0.00     0.164 HD
BRANCH  11  15
HETATM   15  C   UNL     1      44.022 -19.152   6.445  1.00  0.00     0.129 C 
BRANCH  15  16
HETATM   16  C   UNL     1      45.028 -19.156   5.291  1.00  0.00     0.058 C 
BRANCH  16  17
HETATM   17  C   UNL     1      44.591 -19.990   4.107  1.00  0.00    -0.057 A 
HETATM   18  C   UNL     1      44.816 -21.373   4.080  1.00  0.00     0.007 A 
HETATM   19  C   UNL     1      44.426 -22.133   2.976  1.00  0.00     0.001 A 
HETATM   20  C   UNL     1      43.802 -21.520   1.891  1.00  0.00     0.000 A 
HETATM   21  C   UNL     1      43.563 -20.148   1.911  1.00  0.00     0.001 A 
HETATM   22  C   UNL     1      43.956 -19.386   3.012  1.00  0.00     0.007 A 
ENDBRANCH  16  17
ENDBRANCH  15  16
ENDBRANCH  11  15
ENDBRANCH   8   9
ENDBRANCH   6   8
BRANCH   3  23
HETATM   23  C   UNL     1      39.708 -14.704   1.515  1.00  0.00     0.039 A 
HETATM   24  C   UNL     1      38.319 -14.630   1.357  1.00  0.00     0.033 A 
HETATM   25  C   UNL     1      37.776 -13.912   0.289  1.00  0.00     0.039 A 
HETATM   26  C   UNL     1      38.603 -13.258  -0.628  1.00  0.00     0.068 A 
HETATM   27  C   UNL     1      39.986 -13.332  -0.469  1.00  0.00     0.039 A 
HETATM   28  C   UNL     1      40.539 -14.054   0.597  1.00  0.00     0.033 A 
BRANCH  26  29
HETATM   29  O   UNL     1      37.938 -12.593  -1.620  1.00  0.00    -0.356 OA
HETATM   30  C   UNL     1      38.164 -13.033  -2.953  1.00  0.00     0.210 C 
ENDBRANCH  26  29
ENDBRANCH   3  23
TORSDOF 7
ENDMDL
MODEL 3
REMARK VINA RESULT:      -8.4      6.357      9.378
REMARK  7 active torsions:
REMARK  status: ('A' for Active; 'I' for Inactive)
REMARK    1  A    between atoms: N_3  and  C_4 
REMARK    2  A    between atoms: C_7  and  O_8 
REMARK    3  A    between atoms: C_14  and  C_15 
REMARK    4  A    between atoms: C_15  and  N_16 
REMARK       I    between atoms: N_16  and  C_17 
REMARK       I    between atoms: C_17  and  N_18 
REMARK    5  A    between atoms: N_18  and  C_19 
REMARK    6  A    between atoms: C_19  and  C_20 
REMARK    7  A    between atoms: C_20  and  C_21 
ROOT
HETATM    1  C   UNL     1      39.493 -11.858   3.581  1.00  0.00     0.068 C 
HETATM    2  C   UNL     1      39.852 -13.268   3.903  1.00  0.00     0.014 A 
HETATM    3  N   UNL     1      40.251 -14.224   2.972  1.00  0.00    -0.319 N 
HETATM    4  C   UNL     1      40.569 -15.392   3.668  1.00  0.00     0.021 A 
HETATM    5  C   UNL     1      40.912 -16.690   3.006  1.00  0.00     0.069 C 
HETATM    6  C   UNL     1      40.431 -15.152   5.030  1.00  0.00    -0.016 A 
HETATM    7  C   UNL     1      39.954 -13.827   5.163  1.00  0.00     0.035 A 
ENDROOT
BRANCH   6   8
HETATM    8  C   UNL     1      40.698 -16.099   6.151  1.00  0.00     0.165 C 
BRANCH   8   9
HETATM    9  N   UNL     1      42.031 -15.864   6.652  1.00  0.00    -0.339 N 
HETATM   10  C   UNL     1      43.002 -16.793   6.844  1.00  0.00     0.316 C 
HETATM   11  N   UNL     1      42.777 -18.010   6.269  1.00  0.00    -0.343 N 
HETATM   12  O   UNL     1      43.992 -16.525   7.515  1.00  0.00    -0.248 OA
HETATM   13  H   UNL     1      42.281 -17.965   5.391  1.00  0.00     0.164 HD
HETATM   14  H   UNL     1      42.200 -15.003   7.156  1.00  0.00     0.164 HD
BRANCH  11  15
HETATM   15  C   UNL     1      43.791 -19.046   6.347  1.00  0.00     0.129 C 
BRANCH  15  16
HETATM   16  C   UNL     1      44.796 -18.970   5.194  1.00  0.00     0.058 C 
BRANCH  16  17
HETATM   17  C   UNL     1      44.434 -19.845   4.014  1.00  0.00    -0.057 A 
HETATM   18  C   UNL     1      43.731 -19.321   2.920  1.00  0.00     0.007 A 
HETATM   19  C   UNL     1      43.386 -20.139   1.843  1.00  0.00     0.001 A 
HETATM   20  C   UNL     1      43.745 -21.485   1.844  1.00  0.00     0.000 A 
HETATM   21  C   UNL     1      44.453 -22.015   2.921  1.00  0.00     0.001 A 
HETATM   22  C   UNL     1      44.796 -21.199   4.001  1.00  0.00     0.007 A 
ENDBRANCH  16  17
ENDBRANCH  15  16
ENDBRANCH  11  15
ENDBRANCH   8   9
ENDBRANCH   6   8
BRANCH   3  23
HETATM   23  C   UNL     1      40.338 -14.037   1.561  1.00  0.00     0.039 A 
HETATM   24  C   UNL     1      39.205 -14.213   0.759  1.00  0.00     0.033 A 
HETATM   25  C   UNL     1      39.294 -14.033  -0.623  1.00  0.00     0.039 A 
HETATM   26  C   UNL     1      40.504 -13.675  -1.222  1.00  0.00     0.068 A 
HETATM   27  C   UNL     1      41.633 -13.500  -0.422  1.00  0.00     0.039 A 
HETATM   28  C   UNL     1      41.553 -13.682   0.965  1.00  0.00     0.033 A 
BRANCH  26  29
HETATM   29  O   UNL     1      40.447 -13.531  -2.580  1.00  0.00    -0.356 OA
HETATM   30  C   UNL     1      41.658 -13.729  -3.300  1.00  0.00     0.210 C 
ENDBRANCH  26  29
ENDBRANCH   3  23
TORSDOF 7
ENDMDL
MODEL 4
REMARK VINA RESULT:      -8.1      2.763     10.649
REMARK  7 active torsions:
REMARK  status: ('A' for Active; 'I' for Inactive)
REMARK    1  A    between atoms: N_3  and  C_4 
REMARK    2  A    between atoms: C_7  and  O_8 
REMARK    3  A    between atoms: C_14  and  C_15 
REMARK    4  A    between atoms: C_15  and  N_16 
REMARK       I    between atoms: N_16  and  C_17 
REMARK       I    between atoms: C_17  and  N_18 
REMARK    5  A    between atoms: N_18  and  C_19 
REMARK    6  A    between atoms: C_19  and  C_20 
REMARK    7  A    between atoms: C_20  and  C_21 
ROOT
HETATM    1  C   UNL     1      40.366 -17.155   6.271  1.00  0.00     0.068 C 
HETATM    2  C   UNL     1      41.052 -15.957   5.709  1.00  0.00     0.014 A 
HETATM    3  N   UNL     1      42.130 -15.994   4.828  1.00  0.00    -0.319 N 
HETATM    4  C   UNL     1      42.441 -14.678   4.477  1.00  0.00     0.021 A 
HETATM    5  C   UNL     1      43.627 -14.294   3.650  1.00  0.00     0.069 C 
HETATM    6  C   UNL     1      41.526 -13.826   5.085  1.00  0.00    -0.016 A 
HETATM    7  C   UNL     1      40.679 -14.637   5.877  1.00  0.00     0.035 A 
ENDROOT
BRANCH   6   8
HETATM    8  C   UNL     1      41.449 -12.342   4.966  1.00  0.00     0.165 C 
BRANCH   8   9
HETATM    9  N   UNL     1      40.297 -11.873   5.699  1.00  0.00    -0.339 N 
HETATM   10  C   UNL     1      40.294 -11.311   6.934  1.00  0.00     0.316 C 
HETATM   11  N   UNL     1      41.512 -10.924   7.410  1.00  0.00    -0.343 N 
HETATM   12  O   UNL     1      39.246 -11.196   7.560  1.00  0.00    -0.248 OA
HETATM   13  H   UNL     1      42.144 -10.586   6.698  1.00  0.00     0.164 HD
HETATM   14  H   UNL     1      39.388 -12.214   5.415  1.00  0.00     0.164 HD
BRANCH  11  15
HETATM   15  C   UNL     1      41.607 -10.239   8.686  1.00  0.00     0.129 C 
BRANCH  15  16
HETATM   16  C   UNL     1      42.833 -10.673   9.494  1.00  0.00     0.058 C 
BRANCH  16  17
HETATM   17  C   UNL     1      42.651 -10.547  10.991  1.00  0.00    -0.057 A 
HETATM   18  C   UNL     1      43.609  -9.894  11.778  1.00  0.00     0.007 A 
HETATM   19  C   UNL     1      43.443  -9.796  13.160  1.00  0.00     0.001 A 
HETATM   20  C   UNL     1      42.315 -10.344  13.769  1.00  0.00     0.000 A 
HETATM   21  C   UNL     1      41.351 -10.985  12.995  1.00  0.00     0.001 A 
HETATM   22  C   UNL     1      41.517 -11.087  11.613  1.00  0.00     0.007 A 
ENDBRANCH  16  17
ENDBRANCH  15  16
ENDBRANCH  11  15
ENDBRANCH   8   9
ENDBRANCH   6   8
BRANCH   3  23
HETATM   23  C   UNL     1      42.786 -17.167   4.351  1.00  0.00     0.039 A 
HETATM   24  C   UNL     1      42.390 -17.748   3.141  1.00  0.00     0.033 A 
HETATM   25  C   UNL     1      43.030 -18.900   2.679  1.00  0.00     0.039 A 
HETATM   26  C   UNL     1      44.070 -19.483   3.408  1.00  0.00     0.068 A 
HETATM   27  C   UNL     1      44.463 -18.903   4.613  1.00  0.00     0.039 A 
HETATM   28  C   UNL     1      43.824 -17.750   5.085  1.00  0.00     0.033 A 
BRANCH  26  29
HETATM   29  O   UNL     1      44.606 -20.603   2.837  1.00  0.00    -0.356 OA
HETATM   30  C   UNL     1      43.820 -21.265   1.854  1.00  0.00     0.210 C 
ENDBRANCH  26  29
ENDBRANCH   3  23
TORSDOF 7
ENDMDL
MODEL 5
REMARK VINA RESULT:      -7.9      6.514      9.818
REMARK  7 active torsions:
REMARK  status: ('A' for Active; 'I' for Inactive)
REMARK    1  A    between atoms: N_3  and  C_4 
REMARK    2  A    between atoms: C_7  and  O_8 
REMARK    3  A    between atoms: C_14  and  C_15 
REMARK    4  A    between atoms: C_15  and  N_16 
REMARK       I    between atoms: N_16  and  C_17 
REMARK       I    between atoms: C_17  and  N_18 
REMARK    5  A    between atoms: N_18  and  C_19 
REMARK    6  A    between atoms: C_19  and  C_20 
REMARK    7  A    between atoms: C_20  and  C_21 
ROOT
HETATM    1  C   UNL     1      42.291 -16.722   0.428  1.00  0.00     0.068 C 
HETATM    2  C   UNL     1      42.390 -15.739   1.545  1.00  0.00     0.014 A 
HETATM    3  N   UNL     1      41.691 -14.537   1.615  1.00  0.00    -0.319 N 
HETATM    4  C   UNL     1      41.994 -13.937   2.840  1.00  0.00     0.021 A 
HETATM    5  C   UNL     1      41.542 -12.566   3.230  1.00  0.00     0.069 C 
HETATM    6  C   UNL     1      42.828 -14.786   3.558  1.00  0.00    -0.016 A 
HETATM    7  C   UNL     1      43.092 -15.898   2.724  1.00  0.00     0.035 A 
ENDROOT
BRANCH   6   8
HETATM    8  C   UNL     1      43.376 -14.575   4.929  1.00  0.00     0.165 C 
BRANCH   8   9
HETATM    9  N   UNL     1      42.520 -15.240   5.881  1.00  0.00    -0.339 N 
HETATM   10  C   UNL     1      42.524 -16.561   6.192  1.00  0.00     0.316 C 
HETATM   11  N   UNL     1      43.603 -17.269   5.750  1.00  0.00    -0.343 N 
HETATM   12  O   UNL     1      41.588 -17.055   6.811  1.00  0.00    -0.248 OA
HETATM   13  H   UNL     1      44.466 -16.745   5.746  1.00  0.00     0.164 HD
HETATM   14  H   UNL     1      41.670 -14.769   6.160  1.00  0.00     0.164 HD
BRANCH  11  15
HETATM   15  C   UNL     1      43.741 -18.672   6.099  1.00  0.00     0.129 C 
BRANCH  15  16
HETATM   16  C   UNL     1      44.923 -19.338   5.388  1.00  0.00     0.058 C 
BRANCH  16  17
HETATM   17  C   UNL     1      44.531 -20.100   4.142  1.00  0.00    -0.057 A 
HETATM   18  C   UNL     1      43.887 -19.454   3.077  1.00  0.00     0.007 A 
HETATM   19  C   UNL     1      43.513 -20.168   1.938  1.00  0.00     0.001 A 
HETATM   20  C   UNL     1      43.784 -21.532   1.847  1.00  0.00     0.000 A 
HETATM   21  C   UNL     1      44.434 -22.183   2.894  1.00  0.00     0.001 A 
HETATM   22  C   UNL     1      44.806 -21.471   4.036  1.00  0.00     0.007 A 
ENDBRANCH  16  17
ENDBRANCH  15  16
ENDBRANCH  11  15
ENDBRANCH   8   9
ENDBRANCH   6   8
BRANCH   3  23
HETATM   23  C   UNL     1      40.806 -14.020   0.623  1.00  0.00     0.039 A 
HETATM   24  C   UNL     1      41.302 -13.208  -0.403  1.00  0.00     0.033 A 
HETATM   25  C   UNL     1      40.433 -12.699  -1.371  1.00  0.00     0.039 A 
HETATM   26  C   UNL     1      39.068 -12.993  -1.332  1.00  0.00     0.068 A 
HETATM   27  C   UNL     1      38.575 -13.802  -0.309  1.00  0.00     0.039 A 
HETATM   28  C   UNL     1      39.439 -14.313   0.667  1.00  0.00     0.033 A 
BRANCH  26  29
HETATM   29  O   UNL     1      38.336 -12.431  -2.341  1.00  0.00    -0.356 OA
HETATM   30  C   UNL     1      37.525 -13.308  -3.114  1.00  0.00     0.210 C 
ENDBRANCH  26  29
ENDBRANCH   3  23
TORSDOF 7
ENDMDL
MODEL 6
REMARK VINA RESULT:      -7.9      2.915     10.835
REMARK  7 active torsions:
REMARK  status: ('A' for Active; 'I' for Inactive)
REMARK    1  A    between atoms: N_3  and  C_4 
REMARK    2  A    between atoms: C_7  and  O_8 
REMARK    3  A    between atoms: C_14  and  C_15 
REMARK    4  A    between atoms: C_15  and  N_16 
REMARK       I    between atoms: N_16  and  C_17 
REMARK       I    between atoms: C_17  and  N_18 
REMARK    5  A    between atoms: N_18  and  C_19 
REMARK    6  A    between atoms: C_19  and  C_20 
REMARK    7  A    between atoms: C_20  and  C_21 
ROOT
HETATM    1  C   UNL     1      39.701 -15.359   2.329  1.00  0.00     0.068 C 
HETATM    2  C   UNL     1      40.427 -14.649   3.421  1.00  0.00     0.014 A 
HETATM    3  N   UNL     1      41.642 -15.055   3.968  1.00  0.00    -0.319 N 
HETATM    4  C   UNL     1      42.030 -14.096   4.906  1.00  0.00     0.021 A 
HETATM    5  C   UNL     1      43.216 -14.241   5.806  1.00  0.00     0.069 C 
HETATM    6  C   UNL     1      41.096 -13.065   4.902  1.00  0.00    -0.016 A 
HETATM    7  C   UNL     1      40.083 -13.438   3.989  1.00  0.00     0.035 A 
ENDROOT
BRANCH   6   8
HETATM    8  C   UNL     1      41.120 -11.816   5.716  1.00  0.00     0.165 C 
BRANCH   8   9
HETATM    9  N   UNL     1      40.007 -11.835   6.634  1.00  0.00    -0.339 N 
HETATM   10  C   UNL     1      40.027 -11.476   7.943  1.00  0.00     0.316 C 
HETATM   11  N   UNL     1      41.137 -10.797   8.352  1.00  0.00    -0.343 N 
HETATM   12  O   UNL     1      39.099 -11.780   8.683  1.00  0.00    -0.248 OA
HETATM   13  H   UNL     1      41.528 -10.185   7.650  1.00  0.00     0.164 HD
HETATM   14  H   UNL     1      39.204 -12.400   6.389  1.00  0.00     0.164 HD
BRANCH  11  15
HETATM   15  C   UNL     1      41.221 -10.298   9.713  1.00  0.00     0.129 C 
BRANCH  15  16
HETATM   16  C   UNL     1      42.317 -10.993  10.525  1.00  0.00     0.058 C 
BRANCH  16  17
HETATM   17  C   UNL     1      42.386 -10.540  11.966  1.00  0.00    -0.057 A 
HETATM   18  C   UNL     1      41.379 -10.886  12.877  1.00  0.00     0.007 A 
HETATM   19  C   UNL     1      41.440 -10.449  14.201  1.00  0.00     0.001 A 
HETATM   20  C   UNL     1      42.512  -9.668  14.631  1.00  0.00     0.000 A 
HETATM   21  C   UNL     1      43.525  -9.327  13.737  1.00  0.00     0.001 A 
HETATM   22  C   UNL     1      43.463  -9.760  12.412  1.00  0.00     0.007 A 
ENDBRANCH  16  17
ENDBRANCH  15  16
ENDBRANCH  11  15
ENDBRANCH   8   9
ENDBRANCH   6   8
BRANCH   3  23
HETATM   23  C   UNL     1      42.371 -16.229   3.618  1.00  0.00     0.039 A 
HETATM   24  C   UNL     1      42.178 -17.414   4.337  1.00  0.00     0.033 A 
HETATM   25  C   UNL     1      42.897 -18.562   3.994  1.00  0.00     0.039 A 
HETATM   26  C   UNL     1      43.808 -18.547   2.936  1.00  0.00     0.068 A 
HETATM   27  C   UNL     1      44.000 -17.365   2.221  1.00  0.00     0.039 A 
HETATM   28  C   UNL     1      43.286 -16.209   2.560  1.00  0.00     0.033 A 
BRANCH  26  29
HETATM   29  O   UNL     1      44.439 -19.739   2.711  1.00  0.00    -0.356 OA
HETATM   30  C   UNL     1      43.727 -20.710   1.954  1.00  0.00     0.210 C 
ENDBRANCH  26  29
ENDBRANCH   3  23
TORSDOF 7
ENDMDL
MODEL 7
REMARK VINA RESULT:      -7.8      4.304      6.996
REMARK  7 active torsions:
REMARK  status: ('A' for Active; 'I' for Inactive)
REMARK    1  A    between atoms: N_3  and  C_4 
REMARK    2  A    between atoms: C_7  and  O_8 
REMARK    3  A    between atoms: C_14  and  C_15 
REMARK    4  A    between atoms: C_15  and  N_16 
REMARK       I    between atoms: N_16  and  C_17 
REMARK       I    between atoms: C_17  and  N_18 
REMARK    5  A    between atoms: N_18  and  C_19 
REMARK    6  A    between atoms: C_19  and  C_20 
REMARK    7  A    between atoms: C_20  and  C_21 
ROOT
HETATM    1  C   UNL     1      41.242 -16.742   6.703  1.00  0.00     0.068 C 
HETATM    2  C   UNL     1      41.077 -16.493   5.242  1.00  0.00     0.014 A 
HETATM    3  N   UNL     1      40.896 -15.240   4.661  1.00  0.00    -0.319 N 
HETATM    4  C   UNL     1      40.855 -15.412   3.276  1.00  0.00     0.021 A 
HETATM    5  C   UNL     1      40.540 -14.316   2.308  1.00  0.00     0.069 C 
HETATM    6  C   UNL     1      41.071 -16.755   2.988  1.00  0.00    -0.016 A 
HETATM    7  C   UNL     1      41.179 -17.426   4.229  1.00  0.00     0.035 A 
ENDROOT
BRANCH   6   8
HETATM    8  C   UNL     1      41.146 -17.394   1.642  1.00  0.00     0.165 C 
BRANCH   8   9
HETATM    9  N   UNL     1      42.459 -17.163   1.089  1.00  0.00    -0.339 N 
HETATM   10  C   UNL     1      43.618 -17.756   1.471  1.00  0.00     0.316 C 
HETATM   11  N   UNL     1      43.484 -18.851   2.274  1.00  0.00    -0.343 N 
HETATM   12  O   UNL     1      44.697 -17.294   1.117  1.00  0.00    -0.248 OA
HETATM   13  H   UNL     1      42.668 -19.410   2.075  1.00  0.00     0.164 HD
HETATM   14  H   UNL     1      42.604 -16.313   0.559  1.00  0.00     0.164 HD
BRANCH  11  15
HETATM   15  C   UNL     1      44.659 -19.605   2.673  1.00  0.00     0.129 C 
BRANCH  15  16
HETATM   16  C   UNL     1      44.388 -20.523   3.868  1.00  0.00     0.058 C 
BRANCH  16  17
HETATM   17  C   UNL     1      44.363 -19.800   5.197  1.00  0.00    -0.057 A 
HETATM   18  C   UNL     1      44.907 -18.515   5.326  1.00  0.00     0.007 A 
HETATM   19  C   UNL     1      44.897 -17.862   6.559  1.00  0.00     0.001 A 
HETATM   20  C   UNL     1      44.337 -18.483   7.674  1.00  0.00     0.000 A 
HETATM   21  C   UNL     1      43.784 -19.756   7.556  1.00  0.00     0.001 A 
HETATM   22  C   UNL     1      43.797 -20.412   6.324  1.00  0.00     0.007 A 
ENDBRANCH  16  17
ENDBRANCH  15  16
ENDBRANCH  11  15
ENDBRANCH   8   9
ENDBRANCH   6   8
BRANCH   3  23
HETATM   23  C   UNL     1      40.793 -13.998   5.356  1.00  0.00     0.039 A 
HETATM   24  C   UNL     1      41.936 -13.222   5.576  1.00  0.00     0.033 A 
HETATM   25  C   UNL     1      41.833 -12.009   6.261  1.00  0.00     0.039 A 
HETATM   26  C   UNL     1      40.598 -11.553   6.729  1.00  0.00     0.068 A 
HETATM   27  C   UNL     1      39.460 -12.328   6.508  1.00  0.00     0.039 A 
HETATM   28  C   UNL     1      39.555 -13.547   5.826  1.00  0.00     0.033 A 
BRANCH  26  29
HETATM   29  O   UNL     1      40.644 -10.352   7.379  1.00  0.00    -0.356 OA
HETATM   30  C   UNL     1      41.686 -10.173   8.330  1.00  0.00     0.210 C 
ENDBRANCH  26  29
ENDBRANCH   3  23
TORSDOF 7
ENDMDL
MODEL 8
REMARK VINA RESULT:      -7.6      6.990     10.870
REMARK  7 active torsions:
REMARK  status: ('A' for Active; 'I' for Inactive)
REMARK    1  A    between atoms: N_3  and  C_4 
REMARK    2  A    between atoms: C_7  and  O_8 
REMARK    3  A    between atoms: C_14  and  C_15 
REMARK    4  A    between atoms: C_15  and  N_16 
REMARK       I    between atoms: N_16  and  C_17 
REMARK       I    between atoms: C_17  and  N_18 
REMARK    5  A    between atoms: N_18  and  C_19 
REMARK    6  A    between atoms: C_19  and  C_20 
REMARK    7  A    between atoms: C_20  and  C_21 
ROOT
HETATM    1  C   UNL     1      43.596 -17.995   1.490  1.00  0.00     0.068 C 
HETATM    2  C   UNL     1      42.452 -17.042   1.410  1.00  0.00     0.014 A 
HETATM    3  N   UNL     1      41.846 -16.428   2.503  1.00  0.00    -0.319 N 
HETATM    4  C   UNL     1      40.870 -15.556   2.017  1.00  0.00     0.021 A 
HETATM    5  C   UNL     1      39.908 -14.812   2.889  1.00  0.00     0.069 C 
HETATM    6  C   UNL     1      40.905 -15.577   0.627  1.00  0.00    -0.016 A 
HETATM    7  C   UNL     1      41.881 -16.532   0.260  1.00  0.00     0.035 A 
ENDROOT
BRANCH   6   8
HETATM    8  C   UNL     1      40.068 -14.779  -0.314  1.00  0.00     0.165 C 
BRANCH   8   9
HETATM    9  N   UNL     1      40.368 -15.187  -1.666  1.00  0.00    -0.339 N 
HETATM   10  C   UNL     1      41.152 -14.531  -2.558  1.00  0.00     0.316 C 
HETATM   11  N   UNL     1      41.926 -13.534  -2.041  1.00  0.00    -0.343 N 
HETATM   12  O   UNL     1      41.121 -14.829  -3.747  1.00  0.00    -0.248 OA
HETATM   13  H   UNL     1      42.260 -13.714  -1.106  1.00  0.00     0.164 HD
HETATM   14  H   UNL     1      39.755 -15.866  -2.099  1.00  0.00     0.164 HD
BRANCH  11  15
HETATM   15  C   UNL     1      42.860 -12.824  -2.898  1.00  0.00     0.129 C 
BRANCH  15  16
HETATM   16  C   UNL     1      42.254 -11.552  -3.497  1.00  0.00     0.058 C 
BRANCH  16  17
HETATM   17  C   UNL     1      42.727 -10.280  -2.828  1.00  0.00    -0.057 A 
HETATM   18  C   UNL     1      42.394  -9.025  -3.355  1.00  0.00     0.007 A 
HETATM   19  C   UNL     1      42.849  -7.856  -2.742  1.00  0.00     0.001 A 
HETATM   20  C   UNL     1      43.635  -7.930  -1.593  1.00  0.00     0.000 A 
HETATM   21  C   UNL     1      43.963  -9.172  -1.054  1.00  0.00     0.001 A 
HETATM   22  C   UNL     1      43.512 -10.342  -1.668  1.00  0.00     0.007 A 
ENDBRANCH  16  17
ENDBRANCH  15  16
ENDBRANCH  11  15
ENDBRANCH   8   9
ENDBRANCH   6   8
BRANCH   3  23
HETATM   23  C   UNL     1      42.178 -16.637   3.875  1.00  0.00     0.039 A 
HETATM   24  C   UNL     1      41.505 -17.614   4.617  1.00  0.00     0.033 A 
HETATM   25  C   UNL     1      41.829 -17.814   5.961  1.00  0.00     0.039 A 
HETATM   26  C   UNL     1      42.822 -17.051   6.579  1.00  0.00     0.068 A 
HETATM   27  C   UNL     1      43.491 -16.077   5.838  1.00  0.00     0.039 A 
HETATM   28  C   UNL     1      43.170 -15.868   4.491  1.00  0.00     0.033 A 
BRANCH  26  29
HETATM   29  O   UNL     1      43.036 -17.353   7.895  1.00  0.00    -0.356 OA
HETATM   30  C   UNL     1      43.986 -18.374   8.175  1.00  0.00     0.210 C 
ENDBRANCH  26  29
ENDBRANCH   3  23
TORSDOF 7
ENDMDL
MODEL 9
REMARK VINA RESULT:      -7.5      7.035     10.881
REMARK  7 active torsions:
REMARK  status: ('A' for Active; 'I' for Inactive)
REMARK    1  A    between atoms: N_3  and  C_4 
REMARK    2  A    between atoms: C_7  and  O_8 
REMARK    3  A    between atoms: C_14  and  C_15 
REMARK    4  A    between atoms: C_15  and  N_16 
REMARK       I    between atoms: N_16  and  C_17 
REMARK       I    between atoms: C_17  and  N_18 
REMARK    5  A    between atoms: N_18  and  C_19 
REMARK    6  A    between atoms: C_19  and  C_20 
REMARK    7  A    between atoms: C_20  and  C_21 
ROOT
HETATM    1  C   UNL     1      43.699 -14.528   5.309  1.00  0.00     0.068 C 
HETATM    2  C   UNL     1      43.047 -14.147   4.024  1.00  0.00     0.014 A 
HETATM    3  N   UNL     1      42.767 -15.025   2.979  1.00  0.00    -0.319 N 
HETATM    4  C   UNL     1      42.091 -14.309   1.988  1.00  0.00     0.021 A 
HETATM    5  C   UNL     1      41.738 -14.872   0.648  1.00  0.00     0.069 C 
HETATM    6  C   UNL     1      41.894 -13.008   2.435  1.00  0.00    -0.016 A 
HETATM    7  C   UNL     1      42.522 -12.911   3.699  1.00  0.00     0.035 A 
ENDROOT
BRANCH   6   8
HETATM    8  C   UNL     1      41.188 -11.902   1.726  1.00  0.00     0.165 C 
BRANCH   8   9
HETATM    9  N   UNL     1      42.169 -11.054   1.091  1.00  0.00    -0.339 N 
HETATM   10  C   UNL     1      42.478 -11.018  -0.230  1.00  0.00     0.316 C 
HETATM   11  N   UNL     1      41.603 -11.659  -1.059  1.00  0.00    -0.343 N 
HETATM   12  O   UNL     1      43.498 -10.456  -0.613  1.00  0.00    -0.248 OA
HETATM   13  H   UNL     1      40.641 -11.609  -0.760  1.00  0.00     0.164 HD
HETATM   14  H   UNL     1      42.878 -10.634   1.676  1.00  0.00     0.164 HD
BRANCH  11  15
HETATM   15  C   UNL     1      41.801 -11.610  -2.497  1.00  0.00     0.129 C 
BRANCH  15  16
HETATM   16  C   UNL     1      42.189 -12.972  -3.080  1.00  0.00     0.058 C 
BRANCH  16  17
HETATM   17  C   UNL     1      41.018 -13.916  -3.251  1.00  0.00    -0.057 A 
HETATM   18  C   UNL     1      41.190 -15.302  -3.135  1.00  0.00     0.007 A 
HETATM   19  C   UNL     1      40.109 -16.167  -3.311  1.00  0.00     0.001 A 
HETATM   20  C   UNL     1      38.845 -15.656  -3.599  1.00  0.00     0.000 A 
HETATM   21  C   UNL     1      38.660 -14.279  -3.706  1.00  0.00     0.001 A 
HETATM   22  C   UNL     1      39.740 -13.413  -3.533  1.00  0.00     0.007 A 
ENDBRANCH  16  17
ENDBRANCH  15  16
ENDBRANCH  11  15
ENDBRANCH   8   9
ENDBRANCH   6   8
BRANCH   3  23
HETATM   23  C   UNL     1      43.093 -16.413   2.937  1.00  0.00     0.039 A 
HETATM   24  C   UNL     1      42.578 -17.283   3.904  1.00  0.00     0.033 A 
HETATM   25  C   UNL     1      42.902 -18.641   3.864  1.00  0.00     0.039 A 
HETATM   26  C   UNL     1      43.736 -19.148   2.866  1.00  0.00     0.068 A 
HETATM   27  C   UNL     1      44.250 -18.280   1.902  1.00  0.00     0.039 A 
HETATM   28  C   UNL     1      43.932 -16.917   1.937  1.00  0.00     0.033 A 
BRANCH  26  29
HETATM   29  O   UNL     1      43.968 -20.493   2.946  1.00  0.00    -0.356 OA
HETATM   30  C   UNL     1      43.716 -21.261   1.776  1.00  0.00     0.210 C 
ENDBRANCH  26  29
ENDBRANCH   3  23
TORSDOF 7
ENDMDL
MODEL 10
REMARK VINA RESULT:      -7.4      2.571     11.010
REMARK  7 active torsions:
REMARK  status: ('A' for Active; 'I' for Inactive)
REMARK    1  A    between atoms: N_3  and  C_4 
REMARK    2  A    between atoms: C_7  and  O_8 
REMARK    3  A    between atoms: C_14  and  C_15 
REMARK    4  A    between atoms: C_15  and  N_16 
REMARK       I    between atoms: N_16  and  C_17 
REMARK       I    between atoms: C_17  and  N_18 
REMARK    5  A    between atoms: N_18  and  C_19 
REMARK    6  A    between atoms: C_19  and  C_20 
REMARK    7  A    between atoms: C_20  and  C_21 
ROOT
HETATM    1  C   UNL     1      42.772 -18.390   5.704  1.00  0.00     0.068 C 
HETATM    2  C   UNL     1      43.283 -16.999   5.865  1.00  0.00     0.014 A 
HETATM    3  N   UNL     1      43.268 -16.022   4.871  1.00  0.00    -0.319 N 
HETATM    4  C   UNL     1      43.760 -14.839   5.427  1.00  0.00     0.021 A 
HETATM    5  C   UNL     1      44.026 -13.596   4.639  1.00  0.00     0.069 C 
HETATM    6  C   UNL     1      44.024 -15.056   6.775  1.00  0.00    -0.016 A 
HETATM    7  C   UNL     1      43.748 -16.420   7.029  1.00  0.00     0.035 A 
ENDROOT
BRANCH   6   8
HETATM    8  C   UNL     1      44.529 -14.068   7.771  1.00  0.00     0.165 C 
BRANCH   8   9
HETATM    9  N   UNL     1      43.810 -12.827   7.604  1.00  0.00    -0.339 N 
HETATM   10  C   UNL     1      43.708 -11.820   8.508  1.00  0.00     0.316 C 
HETATM   11  N   UNL     1      44.573 -11.881   9.561  1.00  0.00    -0.343 N 
HETATM   12  O   UNL     1      42.864 -10.942   8.365  1.00  0.00    -0.248 OA
HETATM   13  H   UNL     1      45.476 -12.268   9.330  1.00  0.00     0.164 HD
HETATM   14  H   UNL     1      43.103 -12.787   6.882  1.00  0.00     0.164 HD
BRANCH  11  15
HETATM   15  C   UNL     1      44.599 -10.809  10.540  1.00  0.00     0.129 C 
BRANCH  15  16
HETATM   16  C   UNL     1      43.770 -11.135  11.786  1.00  0.00     0.058 C 
BRANCH  16  17
HETATM   17  C   UNL     1      43.215  -9.913  12.484  1.00  0.00    -0.057 A 
HETATM   18  C   UNL     1      42.919  -8.748  11.763  1.00  0.00     0.007 A 
HETATM   19  C   UNL     1      42.424  -7.618  12.416  1.00  0.00     0.001 A 
HETATM   20  C   UNL     1      42.212  -7.643  13.794  1.00  0.00     0.000 A 
HETATM   21  C   UNL     1      42.492  -8.800  14.519  1.00  0.00     0.001 A 
HETATM   22  C   UNL     1      42.991  -9.929  13.868  1.00  0.00     0.007 A 
ENDBRANCH  16  17
ENDBRANCH  15  16
ENDBRANCH  11  15
ENDBRANCH   8   9
ENDBRANCH   6   8
BRANCH   3  23
HETATM   23  C   UNL     1      42.811 -16.194   3.531  1.00  0.00     0.039 A 
HETATM   24  C   UNL     1      41.510 -15.816   3.182  1.00  0.00     0.033 A 
HETATM   25  C   UNL     1      41.062 -15.989   1.869  1.00  0.00     0.039 A 
HETATM   26  C   UNL     1      41.900 -16.534   0.894  1.00  0.00     0.068 A 
HETATM   27  C   UNL     1      43.197 -16.910   1.244  1.00  0.00     0.039 A 
HETATM   28  C   UNL     1      43.652 -16.743   2.558  1.00  0.00     0.033 A 
BRANCH  26  29
HETATM   29  O   UNL     1      41.334 -16.644  -0.346  1.00  0.00    -0.356 OA
HETATM   30  C   UNL     1      41.011 -15.432  -1.016  1.00  0.00     0.210 C 
ENDBRANCH  26  29
ENDBRANCH   3  23
TORSDOF 7
ENDMDL
