MODEL 1
REMARK VINA RESULT:      -7.9      0.000      0.000
REMARK  4 active torsions:
REMARK  status: ('A' for Active; 'I' for Inactive)
REMARK    1  A    between atoms: C_2  and  O_3 
REMARK    2  A    between atoms: O_3  and  C_4 
REMARK    3  A    between atoms: C_9  and  C_10 
REMARK       I    between atoms: C_10  and  N_11 
REMARK    4  A    between atoms: N_11  and  C_12 
ROOT
HETATM    1  C   UNL     1      39.784 -14.505   0.963  1.00  0.00     0.276 C 
HETATM    2  N   UNL     1      40.230 -13.798  -0.147  1.00  0.00    -0.350 N 
HETATM    3  O   UNL     1      38.645 -14.387   1.399  1.00  0.00    -0.265 OA
HETATM    4  H   UNL     1      41.143 -14.143  -0.446  1.00  0.00     0.163 HD
ENDROOT
BRANCH   1   5
HETATM    5  C   UNL     1      40.789 -15.369   1.549  1.00  0.00     0.150 A 
HETATM    6  O   UNL     1      41.603 -16.080   0.706  1.00  0.00    -0.304 OA
HETATM    7  C   UNL     1      42.395 -16.869   1.478  1.00  0.00     0.087 A 
HETATM    8  C   UNL     1      42.123 -16.659   2.823  1.00  0.00     0.009 A 
HETATM    9  C   UNL     1      43.339 -17.773   1.004  1.00  0.00     0.041 A 
HETATM   10  C   UNL     1      42.844 -17.406   3.780  1.00  0.00     0.051 A 
HETATM   11  C   UNL     1      41.093 -15.668   2.870  1.00  0.00    -0.009 A 
HETATM   12  C   UNL     1      43.793 -18.339   3.340  1.00  0.00     0.069 A 
HETATM   13  C   UNL     1      44.033 -18.509   1.971  1.00  0.00     0.039 A 
HETATM   14  C   UNL     1      40.453 -15.096   4.083  1.00  0.00     0.052 C 
BRANCH  12  15
HETATM   15  O   UNL     1      44.548 -19.146   4.148  1.00  0.00    -0.351 OA
BRANCH  15  16
HETATM   16  C   UNL     1      44.846 -20.457   3.669  1.00  0.00     0.171 C 
HETATM   17  C   UNL     1      44.886 -21.396   4.860  1.00  0.00     0.034 C 
ENDBRANCH  15  16
ENDBRANCH  12  15
ENDBRANCH   1   5
BRANCH   2  18
HETATM   18  C   UNL     1      39.364 -13.279  -1.198  1.00  0.00     0.089 C 
HETATM   19  C   UNL     1      38.823 -14.418  -2.073  1.00  0.00     0.063 C 
HETATM   20  C   UNL     1      39.806 -14.953  -3.131  1.00  0.00     0.121 C 
HETATM   21  C   UNL     1      40.890 -15.872  -2.557  1.00  0.00     0.046 C 
HETATM   22  C   UNL     1      39.020 -15.765  -4.182  1.00  0.00     0.046 C 
HETATM   23  N   UNL     1      40.439 -13.804  -3.885  1.00  0.00    -0.059 N 
HETATM   24  H   UNL     1      39.746 -13.469  -4.570  1.00  0.00     0.279 HD
HETATM   25  H   UNL     1      41.208 -14.170  -4.466  1.00  0.00     0.279 HD
HETATM   26  C   UNL     1      40.943 -12.584  -3.138  1.00  0.00     0.121 C 
HETATM   27  C   UNL     1      41.080 -11.466  -4.195  1.00  0.00     0.046 C 
HETATM   28  C   UNL     1      42.341 -12.853  -2.576  1.00  0.00     0.046 C 
HETATM   29  C   UNL     1      39.897 -12.161  -2.103  1.00  0.00     0.063 C 
ENDBRANCH   2  18
TORSDOF 4
ENDMDL
MODEL 2
REMARK VINA RESULT:      -7.9      2.897      4.527
REMARK  4 active torsions:
REMARK  status: ('A' for Active; 'I' for Inactive)
REMARK    1  A    between atoms: C_2  and  O_3 
REMARK    2  A    between atoms: O_3  and  C_4 
REMARK    3  A    between atoms: C_9  and  C_10 
REMARK       I    between atoms: C_10  and  N_11 
REMARK    4  A    between atoms: N_11  and  C_12 
ROOT
HETATM    1  C   UNL     1      39.411 -14.975   2.271  1.00  0.00     0.276 C 
HETATM    2  N   UNL     1      39.658 -13.874   3.083  1.00  0.00    -0.350 N 
HETATM    3  O   UNL     1      38.419 -15.051   1.555  1.00  0.00    -0.265 OA
HETATM    4  H   UNL     1      40.596 -13.927   3.478  1.00  0.00     0.163 HD
ENDROOT
BRANCH   1   5
HETATM    5  C   UNL     1      40.421 -16.009   2.365  1.00  0.00     0.150 A 
HETATM    6  O   UNL     1      40.683 -16.549   3.599  1.00  0.00    -0.304 OA
HETATM    7  C   UNL     1      41.710 -17.425   3.447  1.00  0.00     0.087 A 
HETATM    8  C   UNL     1      42.104 -17.483   2.118  1.00  0.00     0.009 A 
HETATM    9  C   UNL     1      42.301 -18.158   4.472  1.00  0.00     0.041 A 
HETATM   10  C   UNL     1      43.174 -18.337   1.771  1.00  0.00     0.051 A 
HETATM   11  C   UNL     1      41.253 -16.579   1.411  1.00  0.00    -0.009 A 
HETATM   12  C   UNL     1      43.807 -19.079   2.777  1.00  0.00     0.069 A 
HETATM   13  C   UNL     1      43.366 -18.988   4.104  1.00  0.00     0.039 A 
HETATM   14  C   UNL     1      41.273 -16.280  -0.045  1.00  0.00     0.052 C 
BRANCH  12  15
HETATM   15  O   UNL     1      44.866 -19.927   2.594  1.00  0.00    -0.351 OA
BRANCH  15  16
HETATM   16  C   UNL     1      44.647 -21.313   2.853  1.00  0.00     0.171 C 
HETATM   17  C   UNL     1      43.994 -21.923   1.626  1.00  0.00     0.034 C 
ENDBRANCH  15  16
ENDBRANCH  12  15
ENDBRANCH   1   5
BRANCH   2  18
HETATM   18  C   UNL     1      39.136 -12.536   2.839  1.00  0.00     0.089 C 
HETATM   19  C   UNL     1      39.638 -11.990   1.495  1.00  0.00     0.063 C 
HETATM   20  C   UNL     1      41.076 -11.441   1.508  1.00  0.00     0.121 C 
HETATM   21  C   UNL     1      42.153 -12.530   1.499  1.00  0.00     0.046 C 
HETATM   22  C   UNL     1      41.292 -10.566   0.255  1.00  0.00     0.046 C 
HETATM   23  N   UNL     1      41.273 -10.520   2.693  1.00  0.00    -0.059 N 
HETATM   24  H   UNL     1      40.837  -9.617   2.455  1.00  0.00     0.279 HD
HETATM   25  H   UNL     1      42.276 -10.297   2.779  1.00  0.00     0.279 HD
HETATM   26  C   UNL     1      40.752 -10.913   4.063  1.00  0.00     0.121 C 
HETATM   27  C   UNL     1      40.701  -9.608   4.887  1.00  0.00     0.046 C 
HETATM   28  C   UNL     1      41.746 -11.850   4.753  1.00  0.00     0.046 C 
HETATM   29  C   UNL     1      39.330 -11.464   3.920  1.00  0.00     0.063 C 
ENDBRANCH   2  18
TORSDOF 4
ENDMDL
MODEL 3
REMARK VINA RESULT:      -7.7      2.394      3.222
REMARK  4 active torsions:
REMARK  status: ('A' for Active; 'I' for Inactive)
REMARK    1  A    between atoms: C_2  and  O_3 
REMARK    2  A    between atoms: O_3  and  C_4 
REMARK    3  A    between atoms: C_9  and  C_10 
REMARK       I    between atoms: C_10  and  N_11 
REMARK    4  A    between atoms: N_11  and  C_12 
ROOT
HETATM    1  C   UNL     1      40.367 -14.939   3.846  1.00  0.00     0.276 C 
HETATM    2  N   UNL     1      40.244 -14.300   2.618  1.00  0.00    -0.350 N 
HETATM    3  O   UNL     1      39.786 -14.544   4.850  1.00  0.00    -0.265 OA
HETATM    4  H   UNL     1      40.672 -14.860   1.881  1.00  0.00     0.163 HD
ENDROOT
BRANCH   1   5
HETATM    5  C   UNL     1      41.247 -16.090   3.821  1.00  0.00     0.150 A 
HETATM    6  O   UNL     1      42.131 -16.252   4.856  1.00  0.00    -0.304 OA
HETATM    7  C   UNL     1      42.893 -17.340   4.571  1.00  0.00     0.087 A 
HETATM    8  C   UNL     1      42.495 -17.907   3.369  1.00  0.00     0.009 A 
HETATM    9  C   UNL     1      43.936 -17.821   5.356  1.00  0.00     0.041 A 
HETATM   10  C   UNL     1      43.187 -19.047   2.902  1.00  0.00     0.051 A 
HETATM   11  C   UNL     1      41.411 -17.107   2.891  1.00  0.00    -0.009 A 
HETATM   12  C   UNL     1      44.254 -19.552   3.656  1.00  0.00     0.069 A 
HETATM   13  C   UNL     1      44.612 -18.944   4.866  1.00  0.00     0.039 A 
HETATM   14  C   UNL     1      40.637 -17.302   1.637  1.00  0.00     0.052 C 
BRANCH  12  15
HETATM   15  O   UNL     1      45.026 -20.630   3.318  1.00  0.00    -0.351 OA
BRANCH  15  16
HETATM   16  C   UNL     1      44.352 -21.859   3.048  1.00  0.00     0.171 C 
HETATM   17  C   UNL     1      44.284 -22.037   1.542  1.00  0.00     0.034 C 
ENDBRANCH  15  16
ENDBRANCH  12  15
ENDBRANCH   1   5
BRANCH   2  18
HETATM   18  C   UNL     1      39.104 -13.481   2.225  1.00  0.00     0.089 C 
HETATM   19  C   UNL     1      38.458 -14.024   0.943  1.00  0.00     0.063 C 
HETATM   20  C   UNL     1      39.187 -13.659  -0.363  1.00  0.00     0.121 C 
HETATM   21  C   UNL     1      40.450 -14.488  -0.616  1.00  0.00     0.046 C 
HETATM   22  C   UNL     1      38.234 -13.893  -1.554  1.00  0.00     0.046 C 
HETATM   23  N   UNL     1      39.518 -12.182  -0.382  1.00  0.00    -0.059 N 
HETATM   24  H   UNL     1      38.652 -11.678  -0.621  1.00  0.00     0.279 HD
HETATM   25  H   UNL     1      40.146 -11.991  -1.177  1.00  0.00     0.279 HD
HETATM   26  C   UNL     1      40.091 -11.510   0.851  1.00  0.00     0.121 C 
HETATM   27  C   UNL     1      39.869  -9.995   0.650  1.00  0.00     0.046 C 
HETATM   28  C   UNL     1      41.602 -11.745   0.923  1.00  0.00     0.046 C 
HETATM   29  C   UNL     1      39.303 -11.966   2.083  1.00  0.00     0.063 C 
ENDBRANCH   2  18
TORSDOF 4
ENDMDL
MODEL 4
REMARK VINA RESULT:      -7.7      4.264      5.669
REMARK  4 active torsions:
REMARK  status: ('A' for Active; 'I' for Inactive)
REMARK    1  A    between atoms: C_2  and  O_3 
REMARK    2  A    between atoms: O_3  and  C_4 
REMARK    3  A    between atoms: C_9  and  C_10 
REMARK       I    between atoms: C_10  and  N_11 
REMARK    4  A    between atoms: N_11  and  C_12 
ROOT
HETATM    1  C   UNL     1      43.362 -13.802   4.517  1.00  0.00     0.276 C 
HETATM    2  N   UNL     1      42.395 -13.004   3.917  1.00  0.00    -0.350 N 
HETATM    3  O   UNL     1      44.123 -13.373   5.377  1.00  0.00    -0.265 OA
HETATM    4  H   UNL     1      41.768 -13.573   3.349  1.00  0.00     0.163 HD
ENDROOT
BRANCH   1   5
HETATM    5  C   UNL     1      43.386 -15.164   4.024  1.00  0.00     0.150 A 
HETATM    6  O   UNL     1      43.729 -15.371   2.712  1.00  0.00    -0.304 OA
HETATM    7  C   UNL     1      43.601 -16.701   2.466  1.00  0.00     0.087 A 
HETATM    8  C   UNL     1      43.204 -17.370   3.616  1.00  0.00     0.009 A 
HETATM    9  C   UNL     1      43.822 -17.318   1.239  1.00  0.00     0.041 A 
HETATM   10  C   UNL     1      43.006 -18.766   3.546  1.00  0.00     0.051 A 
HETATM   11  C   UNL     1      43.084 -16.373   4.634  1.00  0.00    -0.009 A 
HETATM   12  C   UNL     1      43.202 -19.422   2.323  1.00  0.00     0.069 A 
HETATM   13  C   UNL     1      43.610 -18.700   1.194  1.00  0.00     0.039 A 
HETATM   14  C   UNL     1      42.684 -16.581   6.050  1.00  0.00     0.052 C 
BRANCH  12  15
HETATM   15  O   UNL     1      43.027 -20.761   2.102  1.00  0.00    -0.351 OA
BRANCH  15  16
HETATM   16  C   UNL     1      44.197 -21.542   1.856  1.00  0.00     0.171 C 
HETATM   17  C   UNL     1      44.480 -22.369   3.096  1.00  0.00     0.034 C 
ENDBRANCH  15  16
ENDBRANCH  12  15
ENDBRANCH   1   5
BRANCH   2  18
HETATM   18  C   UNL     1      41.814 -11.814   4.524  1.00  0.00     0.089 C 
HETATM   19  C   UNL     1      41.207 -12.142   5.896  1.00  0.00     0.063 C 
HETATM   20  C   UNL     1      39.823 -12.813   5.856  1.00  0.00     0.121 C 
HETATM   21  C   UNL     1      39.869 -14.301   5.491  1.00  0.00     0.046 C 
HETATM   22  C   UNL     1      39.167 -12.699   7.248  1.00  0.00     0.046 C 
HETATM   23  N   UNL     1      38.908 -12.070   4.906  1.00  0.00    -0.059 N 
HETATM   24  H   UNL     1      38.581 -11.224   5.396  1.00  0.00     0.279 HD
HETATM   25  H   UNL     1      38.050 -12.625   4.766  1.00  0.00     0.279 HD
HETATM   26  C   UNL     1      39.415 -11.623   3.548  1.00  0.00     0.121 C 
HETATM   27  C   UNL     1      38.429 -10.537   3.064  1.00  0.00     0.046 C 
HETATM   28  C   UNL     1      39.340 -12.783   2.552  1.00  0.00     0.046 C 
HETATM   29  C   UNL     1      40.802 -10.995   3.712  1.00  0.00     0.063 C 
ENDBRANCH   2  18
TORSDOF 4
ENDMDL
MODEL 5
REMARK VINA RESULT:      -7.4      2.049      2.624
REMARK  4 active torsions:
REMARK  status: ('A' for Active; 'I' for Inactive)
REMARK    1  A    between atoms: C_2  and  O_3 
REMARK    2  A    between atoms: O_3  and  C_4 
REMARK    3  A    between atoms: C_9  and  C_10 
REMARK       I    between atoms: C_10  and  N_11 
REMARK    4  A    between atoms: N_11  and  C_12 
ROOT
HETATM    1  C   UNL     1      40.190 -14.706   3.423  1.00  0.00     0.276 C 
HETATM    2  N   UNL     1      39.926 -14.212   2.151  1.00  0.00    -0.350 N 
HETATM    3  O   UNL     1      39.668 -14.238   4.428  1.00  0.00    -0.265 OA
HETATM    4  H   UNL     1      40.328 -14.824   1.441  1.00  0.00     0.163 HD
ENDROOT
BRANCH   1   5
HETATM    5  C   UNL     1      41.138 -15.802   3.440  1.00  0.00     0.150 A 
HETATM    6  O   UNL     1      41.837 -16.072   2.291  1.00  0.00    -0.304 OA
HETATM    7  C   UNL     1      42.589 -17.179   2.526  1.00  0.00     0.087 A 
HETATM    8  C   UNL     1      42.408 -17.619   3.830  1.00  0.00     0.009 A 
HETATM    9  C   UNL     1      43.418 -17.801   1.598  1.00  0.00     0.041 A 
HETATM   10  C   UNL     1      43.104 -18.773   4.252  1.00  0.00     0.051 A 
HETATM   11  C   UNL     1      41.480 -16.712   4.430  1.00  0.00    -0.009 A 
HETATM   12  C   UNL     1      43.936 -19.438   3.342  1.00  0.00     0.069 A 
HETATM   13  C   UNL     1      44.089 -18.947   2.038  1.00  0.00     0.039 A 
HETATM   14  C   UNL     1      40.960 -16.752   5.822  1.00  0.00     0.052 C 
BRANCH  12  15
HETATM   15  O   UNL     1      44.652 -20.575   3.602  1.00  0.00    -0.351 OA
BRANCH  15  16
HETATM   16  C   UNL     1      44.785 -20.966   4.968  1.00  0.00     0.171 C 
HETATM   17  C   UNL     1      45.044 -22.461   5.006  1.00  0.00     0.034 C 
ENDBRANCH  15  16
ENDBRANCH  12  15
ENDBRANCH   1   5
BRANCH   2  18
HETATM   18  C   UNL     1      38.708 -13.506   1.777  1.00  0.00     0.089 C 
HETATM   19  C   UNL     1      38.138 -14.058   0.463  1.00  0.00     0.063 C 
HETATM   20  C   UNL     1      38.836 -13.557  -0.814  1.00  0.00     0.121 C 
HETATM   21  C   UNL     1      40.185 -14.230  -1.085  1.00  0.00     0.046 C 
HETATM   22  C   UNL     1      37.927 -13.839  -2.029  1.00  0.00     0.046 C 
HETATM   23  N   UNL     1      39.003 -12.053  -0.764  1.00  0.00    -0.059 N 
HETATM   24  H   UNL     1      38.089 -11.636  -0.994  1.00  0.00     0.279 HD
HETATM   25  H   UNL     1      39.614 -11.759  -1.541  1.00  0.00     0.279 HD
HETATM   26  C   UNL     1      39.486 -11.379   0.506  1.00  0.00     0.121 C 
HETATM   27  C   UNL     1      39.101  -9.890   0.368  1.00  0.00     0.046 C 
HETATM   28  C   UNL     1      41.012 -11.450   0.590  1.00  0.00     0.046 C 
HETATM   29  C   UNL     1      38.740 -11.973   1.705  1.00  0.00     0.063 C 
ENDBRANCH   2  18
TORSDOF 4
ENDMDL
MODEL 6
REMARK VINA RESULT:      -7.4      2.748      8.019
REMARK  4 active torsions:
REMARK  status: ('A' for Active; 'I' for Inactive)
REMARK    1  A    between atoms: C_2  and  O_3 
REMARK    2  A    between atoms: O_3  and  C_4 
REMARK    3  A    between atoms: C_9  and  C_10 
REMARK       I    between atoms: C_10  and  N_11 
REMARK    4  A    between atoms: N_11  and  C_12 
ROOT
HETATM    1  C   UNL     1      41.835 -14.090   0.829  1.00  0.00     0.276 C 
HETATM    2  N   UNL     1      42.059 -15.183   1.657  1.00  0.00    -0.350 N 
HETATM    3  O   UNL     1      42.383 -13.008   1.011  1.00  0.00    -0.265 OA
HETATM    4  H   UNL     1      41.641 -16.023   1.257  1.00  0.00     0.163 HD
ENDROOT
BRANCH   1   5
HETATM    5  C   UNL     1      40.897 -14.350  -0.244  1.00  0.00     0.150 A 
HETATM    6  O   UNL     1      41.235 -15.287  -1.187  1.00  0.00    -0.304 OA
HETATM    7  C   UNL     1      40.249 -15.294  -2.121  1.00  0.00     0.087 A 
HETATM    8  C   UNL     1      39.255 -14.387  -1.782  1.00  0.00     0.009 A 
HETATM    9  C   UNL     1      40.231 -16.083  -3.267  1.00  0.00     0.041 A 
HETATM   10  C   UNL     1      38.149 -14.247  -2.650  1.00  0.00     0.051 A 
HETATM   11  C   UNL     1      39.666 -13.788  -0.551  1.00  0.00    -0.009 A 
HETATM   12  C   UNL     1      38.102 -15.012  -3.823  1.00  0.00     0.069 A 
HETATM   13  C   UNL     1      39.130 -15.917  -4.115  1.00  0.00     0.039 A 
HETATM   14  C   UNL     1      38.941 -12.750   0.228  1.00  0.00     0.052 C 
BRANCH  12  15
HETATM   15  O   UNL     1      37.109 -14.965  -4.764  1.00  0.00    -0.351 OA
BRANCH  15  16
HETATM   16  C   UNL     1      35.924 -14.244  -4.429  1.00  0.00     0.171 C 
HETATM   17  C   UNL     1      35.366 -13.639  -5.705  1.00  0.00     0.034 C 
ENDBRANCH  15  16
ENDBRANCH  12  15
ENDBRANCH   1   5
BRANCH   2  18
HETATM   18  C   UNL     1      43.261 -15.380   2.457  1.00  0.00     0.089 C 
HETATM   19  C   UNL     1      43.967 -16.687   2.070  1.00  0.00     0.063 C 
HETATM   20  C   UNL     1      43.347 -17.965   2.663  1.00  0.00     0.121 C 
HETATM   21  C   UNL     1      42.065 -18.416   1.955  1.00  0.00     0.046 C 
HETATM   22  C   UNL     1      44.367 -19.119   2.551  1.00  0.00     0.046 C 
HETATM   23  N   UNL     1      43.090 -17.784   4.144  1.00  0.00    -0.059 N 
HETATM   24  H   UNL     1      43.994 -17.893   4.627  1.00  0.00     0.279 HD
HETATM   25  H   UNL     1      42.527 -18.578   4.485  1.00  0.00     0.279 HD
HETATM   26  C   UNL     1      42.467 -16.501   4.661  1.00  0.00     0.121 C 
HETATM   27  C   UNL     1      42.775 -16.460   6.174  1.00  0.00     0.046 C 
HETATM   28  C   UNL     1      40.945 -16.557   4.506  1.00  0.00     0.046 C 
HETATM   29  C   UNL     1      43.146 -15.306   3.985  1.00  0.00     0.063 C 
ENDBRANCH   2  18
TORSDOF 4
ENDMDL
MODEL 7
REMARK VINA RESULT:      -7.4      2.341      3.038
REMARK  4 active torsions:
REMARK  status: ('A' for Active; 'I' for Inactive)
REMARK    1  A    between atoms: C_2  and  O_3 
REMARK    2  A    between atoms: O_3  and  C_4 
REMARK    3  A    between atoms: C_9  and  C_10 
REMARK       I    between atoms: C_10  and  N_11 
REMARK    4  A    between atoms: N_11  and  C_12 
ROOT
HETATM    1  C   UNL     1      42.565 -13.522   3.328  1.00  0.00     0.276 C 
HETATM    2  N   UNL     1      42.291 -13.012   2.065  1.00  0.00    -0.350 N 
HETATM    3  O   UNL     1      42.468 -12.843   4.344  1.00  0.00    -0.265 OA
HETATM    4  H   UNL     1      42.277 -13.762   1.374  1.00  0.00     0.163 HD
ENDROOT
BRANCH   1   5
HETATM    5  C   UNL     1      42.980 -14.910   3.321  1.00  0.00     0.150 A 
HETATM    6  O   UNL     1      43.162 -15.526   2.109  1.00  0.00    -0.304 OA
HETATM    7  C   UNL     1      43.465 -16.827   2.358  1.00  0.00     0.087 A 
HETATM    8  C   UNL     1      43.509 -17.061   3.725  1.00  0.00     0.009 A 
HETATM    9  C   UNL     1      43.689 -17.800   1.390  1.00  0.00     0.041 A 
HETATM   10  C   UNL     1      43.797 -18.368   4.174  1.00  0.00     0.051 A 
HETATM   11  C   UNL     1      43.214 -15.810   4.352  1.00  0.00    -0.009 A 
HETATM   12  C   UNL     1      44.012 -19.381   3.230  1.00  0.00     0.069 A 
HETATM   13  C   UNL     1      43.963 -19.090   1.861  1.00  0.00     0.039 A 
HETATM   14  C   UNL     1      43.139 -15.533   5.810  1.00  0.00     0.052 C 
BRANCH  12  15
HETATM   15  O   UNL     1      44.279 -20.692   3.516  1.00  0.00    -0.351 OA
BRANCH  15  16
HETATM   16  C   UNL     1      45.051 -20.963   4.686  1.00  0.00     0.171 C 
HETATM   17  C   UNL     1      44.941 -22.446   4.990  1.00  0.00     0.034 C 
ENDBRANCH  15  16
ENDBRANCH  12  15
ENDBRANCH   1   5
BRANCH   2  18
HETATM   18  C   UNL     1      41.410 -11.880   1.806  1.00  0.00     0.089 C 
HETATM   19  C   UNL     1      39.941 -12.273   2.012  1.00  0.00     0.063 C 
HETATM   20  C   UNL     1      39.302 -13.052   0.849  1.00  0.00     0.121 C 
HETATM   21  C   UNL     1      39.716 -14.527   0.793  1.00  0.00     0.046 C 
HETATM   22  C   UNL     1      37.766 -13.009   0.996  1.00  0.00     0.046 C 
HETATM   23  N   UNL     1      39.609 -12.373  -0.468  1.00  0.00    -0.059 N 
HETATM   24  H   UNL     1      38.979 -11.562  -0.549  1.00  0.00     0.279 HD
HETATM   25  H   UNL     1      39.320 -12.993  -1.240  1.00  0.00     0.279 HD
HETATM   26  C   UNL     1      41.011 -11.869  -0.760  1.00  0.00     0.121 C 
HETATM   27  C   UNL     1      40.865 -10.859  -1.919  1.00  0.00     0.046 C 
HETATM   28  C   UNL     1      41.887 -13.019  -1.264  1.00  0.00     0.046 C 
HETATM   29  C   UNL     1      41.547 -11.134   0.472  1.00  0.00     0.063 C 
ENDBRANCH   2  18
TORSDOF 4
ENDMDL
MODEL 8
REMARK VINA RESULT:      -7.3      1.937      3.016
REMARK  4 active torsions:
REMARK  status: ('A' for Active; 'I' for Inactive)
REMARK    1  A    between atoms: C_2  and  O_3 
REMARK    2  A    between atoms: O_3  and  C_4 
REMARK    3  A    between atoms: C_9  and  C_10 
REMARK       I    between atoms: C_10  and  N_11 
REMARK    4  A    between atoms: N_11  and  C_12 
ROOT
HETATM    1  C   UNL     1      40.182 -15.832   1.749  1.00  0.00     0.276 C 
HETATM    2  N   UNL     1      40.652 -14.968   0.768  1.00  0.00    -0.350 N 
HETATM    3  O   UNL     1      39.004 -15.862   2.086  1.00  0.00    -0.265 OA
HETATM    4  H   UNL     1      41.615 -15.198   0.522  1.00  0.00     0.163 HD
ENDROOT
BRANCH   1   5
HETATM    5  C   UNL     1      41.210 -16.670   2.332  1.00  0.00     0.150 A 
HETATM    6  O   UNL     1      41.847 -17.574   1.520  1.00  0.00    -0.304 OA
HETATM    7  C   UNL     1      42.697 -18.291   2.301  1.00  0.00     0.087 A 
HETATM    8  C   UNL     1      42.641 -17.843   3.613  1.00  0.00     0.009 A 
HETATM    9  C   UNL     1      43.505 -19.335   1.864  1.00  0.00     0.041 A 
HETATM   10  C   UNL     1      43.452 -18.483   4.576  1.00  0.00     0.051 A 
HETATM   11  C   UNL     1      41.690 -16.776   3.630  1.00  0.00    -0.009 A 
HETATM   12  C   UNL     1      44.268 -19.551   4.179  1.00  0.00     0.069 A 
HETATM   13  C   UNL     1      44.291 -19.959   2.839  1.00  0.00     0.039 A 
HETATM   14  C   UNL     1      41.273 -15.965   4.803  1.00  0.00     0.052 C 
BRANCH  12  15
HETATM   15  O   UNL     1      45.086 -20.277   5.001  1.00  0.00    -0.351 OA
BRANCH  15  16
HETATM   16  C   UNL     1      44.509 -21.391   5.682  1.00  0.00     0.171 C 
HETATM   17  C   UNL     1      45.113 -22.658   5.106  1.00  0.00     0.034 C 
ENDBRANCH  15  16
ENDBRANCH  12  15
ENDBRANCH   1   5
BRANCH   2  18
HETATM   18  C   UNL     1      39.832 -14.406  -0.298  1.00  0.00     0.089 C 
HETATM   19  C   UNL     1      40.680 -13.541  -1.241  1.00  0.00     0.063 C 
HETATM   20  C   UNL     1      40.998 -12.126  -0.722  1.00  0.00     0.121 C 
HETATM   21  C   UNL     1      42.099 -12.093   0.344  1.00  0.00     0.046 C 
HETATM   22  C   UNL     1      41.471 -11.251  -1.902  1.00  0.00     0.046 C 
HETATM   23  N   UNL     1      39.741 -11.467  -0.196  1.00  0.00    -0.059 N 
HETATM   24  H   UNL     1      39.202 -11.142  -1.012  1.00  0.00     0.279 HD
HETATM   25  H   UNL     1      40.000 -10.598   0.295  1.00  0.00     0.279 HD
HETATM   26  C   UNL     1      38.781 -12.244   0.684  1.00  0.00     0.121 C 
HETATM   27  C   UNL     1      37.447 -11.467   0.645  1.00  0.00     0.046 C 
HETATM   28  C   UNL     1      39.271 -12.234   2.134  1.00  0.00     0.046 C 
HETATM   29  C   UNL     1      38.561 -13.635   0.082  1.00  0.00     0.063 C 
ENDBRANCH   2  18
TORSDOF 4
ENDMDL
MODEL 9
REMARK VINA RESULT:      -7.3      3.356      4.467
REMARK  4 active torsions:
REMARK  status: ('A' for Active; 'I' for Inactive)
REMARK    1  A    between atoms: C_2  and  O_3 
REMARK    2  A    between atoms: O_3  and  C_4 
REMARK    3  A    between atoms: C_9  and  C_10 
REMARK       I    between atoms: C_10  and  N_11 
REMARK    4  A    between atoms: N_11  and  C_12 
ROOT
HETATM    1  C   UNL     1      39.985 -15.643   2.759  1.00  0.00     0.276 C 
HETATM    2  N   UNL     1      40.004 -14.470   3.503  1.00  0.00    -0.350 N 
HETATM    3  O   UNL     1      39.107 -15.883   1.939  1.00  0.00    -0.265 OA
HETATM    4  H   UNL     1      40.885 -14.385   4.010  1.00  0.00     0.163 HD
ENDROOT
BRANCH   1   5
HETATM    5  C   UNL     1      41.082 -16.542   3.055  1.00  0.00     0.150 A 
HETATM    6  O   UNL     1      41.699 -17.178   2.008  1.00  0.00    -0.304 OA
HETATM    7  C   UNL     1      42.626 -18.019   2.536  1.00  0.00     0.087 A 
HETATM    8  C   UNL     1      42.639 -17.918   3.920  1.00  0.00     0.009 A 
HETATM    9  C   UNL     1      43.445 -18.874   1.806  1.00  0.00     0.041 A 
HETATM   10  C   UNL     1      43.537 -18.733   4.644  1.00  0.00     0.051 A 
HETATM   11  C   UNL     1      41.650 -16.943   4.257  1.00  0.00    -0.009 A 
HETATM   12  C   UNL     1      44.366 -19.621   3.946  1.00  0.00     0.069 A 
HETATM   13  C   UNL     1      44.318 -19.678   2.548  1.00  0.00     0.039 A 
HETATM   14  C   UNL     1      41.278 -16.475   5.617  1.00  0.00     0.052 C 
BRANCH  12  15
HETATM   15  O   UNL     1      45.265 -20.483   4.514  1.00  0.00    -0.351 OA
BRANCH  15  16
HETATM   16  C   UNL     1      44.884 -21.854   4.612  1.00  0.00     0.171 C 
HETATM   17  C   UNL     1      44.406 -22.110   6.030  1.00  0.00     0.034 C 
ENDBRANCH  15  16
ENDBRANCH  12  15
ENDBRANCH   1   5
BRANCH   2  18
HETATM   18  C   UNL     1      39.374 -13.222   3.093  1.00  0.00     0.089 C 
HETATM   19  C   UNL     1      39.974 -12.715   1.774  1.00  0.00     0.063 C 
HETATM   20  C   UNL     1      41.332 -12.002   1.903  1.00  0.00     0.121 C 
HETATM   21  C   UNL     1      42.513 -12.957   2.105  1.00  0.00     0.046 C 
HETATM   22  C   UNL     1      41.603 -11.197   0.614  1.00  0.00     0.046 C 
HETATM   23  N   UNL     1      41.284 -10.985   3.023  1.00  0.00    -0.059 N 
HETATM   24  H   UNL     1      40.785 -10.158   2.664  1.00  0.00     0.279 HD
HETATM   25  H   UNL     1      42.239 -10.641   3.203  1.00  0.00     0.279 HD
HETATM   26  C   UNL     1      40.646 -11.340   4.353  1.00  0.00     0.121 C 
HETATM   27  C   UNL     1      40.355  -9.996   5.056  1.00  0.00     0.046 C 
HETATM   28  C   UNL     1      41.644 -12.105   5.226  1.00  0.00     0.046 C 
HETATM   29  C   UNL     1      39.320 -12.062   4.096  1.00  0.00     0.063 C 
ENDBRANCH   2  18
TORSDOF 4
ENDMDL
MODEL 10
REMARK VINA RESULT:      -7.3      7.495     10.534
REMARK  4 active torsions:
REMARK  status: ('A' for Active; 'I' for Inactive)
REMARK    1  A    between atoms: C_2  and  O_3 
REMARK    2  A    between atoms: O_3  and  C_4 
REMARK    3  A    between atoms: C_9  and  C_10 
REMARK       I    between atoms: C_10  and  N_11 
REMARK    4  A    between atoms: N_11  and  C_12 
ROOT
HETATM    1  C   UNL     1      44.607 -13.020   7.767  1.00  0.00     0.276 C 
HETATM    2  N   UNL     1      43.596 -13.580   6.995  1.00  0.00    -0.350 N 
HETATM    3  O   UNL     1      45.792 -13.254   7.562  1.00  0.00    -0.265 OA
HETATM    4  H   UNL     1      42.699 -13.149   7.217  1.00  0.00     0.163 HD
ENDROOT
BRANCH   1   5
HETATM    5  C   UNL     1      44.124 -12.158   8.827  1.00  0.00     0.150 A 
HETATM    6  O   UNL     1      43.006 -11.401   8.587  1.00  0.00    -0.304 OA
HETATM    7  C   UNL     1      42.802 -10.624   9.683  1.00  0.00     0.087 A 
HETATM    8  C   UNL     1      43.762 -10.888  10.649  1.00  0.00     0.009 A 
HETATM    9  C   UNL     1      41.785  -9.685   9.826  1.00  0.00     0.041 A 
HETATM   10  C   UNL     1      43.716 -10.161  11.859  1.00  0.00     0.051 A 
HETATM   11  C   UNL     1      44.611 -11.899  10.101  1.00  0.00    -0.009 A 
HETATM   12  C   UNL     1      42.717  -9.194  12.035  1.00  0.00     0.069 A 
HETATM   13  C   UNL     1      41.767  -8.971  11.030  1.00  0.00     0.039 A 
HETATM   14  C   UNL     1      45.793 -12.526  10.747  1.00  0.00     0.052 C 
BRANCH  12  15
HETATM   15  O   UNL     1      42.563  -8.401  13.140  1.00  0.00    -0.351 OA
BRANCH  15  16
HETATM   16  C   UNL     1      41.515  -8.741  14.048  1.00  0.00     0.171 C 
HETATM   17  C   UNL     1      42.096  -9.642  15.122  1.00  0.00     0.034 C 
ENDBRANCH  15  16
ENDBRANCH  12  15
ENDBRANCH   1   5
BRANCH   2  18
HETATM   18  C   UNL     1      43.766 -14.044   5.624  1.00  0.00     0.089 C 
HETATM   19  C   UNL     1      42.634 -13.523   4.727  1.00  0.00     0.063 C 
HETATM   20  C   UNL     1      41.305 -14.292   4.837  1.00  0.00     0.121 C 
HETATM   21  C   UNL     1      40.499 -13.955   6.095  1.00  0.00     0.046 C 
HETATM   22  C   UNL     1      40.423 -13.950   3.617  1.00  0.00     0.046 C 
HETATM   23  N   UNL     1      41.556 -15.783   4.759  1.00  0.00    -0.059 N 
HETATM   24  H   UNL     1      41.710 -16.016   3.768  1.00  0.00     0.279 HD
HETATM   25  H   UNL     1      40.685 -16.280   5.000  1.00  0.00     0.279 HD
HETATM   26  C   UNL     1      42.695 -16.409   5.541  1.00  0.00     0.121 C 
HETATM   27  C   UNL     1      42.947 -17.787   4.892  1.00  0.00     0.046 C 
HETATM   28  C   UNL     1      42.265 -16.658   6.989  1.00  0.00     0.046 C 
HETATM   29  C   UNL     1      43.951 -15.547   5.375  1.00  0.00     0.063 C 
ENDBRANCH   2  18
TORSDOF 4
ENDMDL
