MODEL 1
REMARK VINA RESULT:      -8.5      0.000      0.000
REMARK  3 active torsions:
REMARK  status: ('A' for Active; 'I' for Inactive)
REMARK    1  A    between atoms: C_12  and  C_13 
REMARK       I    between atoms: C_13  and  N_14 
REMARK    2  A    between atoms: N_14  and  C_15 
REMARK    3  A    between atoms: C_15  and  C_16 
ROOT
HETATM    1  C   UNL     1      44.423 -19.673   5.216  1.00  0.00     0.001 A 
HETATM    2  C   UNL     1      43.529 -18.601   5.159  1.00  0.00     0.016 A 
HETATM    3  C   UNL     1      42.951 -18.245   3.938  1.00  0.00     0.026 A 
HETATM    4  C   UNL     1      43.271 -18.966   2.769  1.00  0.00     0.081 A 
HETATM    5  O   UNL     1      42.758 -18.701   1.518  1.00  0.00    -0.346 OA
HETATM    6  C   UNL     1      41.819 -17.603   1.335  1.00  0.00     0.219 A 
HETATM    7  C   UNL     1      41.475 -16.848   2.558  1.00  0.00     0.031 A 
HETATM    8  C   UNL     1      42.018 -17.160   3.775  1.00  0.00     0.074 A 
HETATM    9  N   UNL     1      41.497 -16.278   4.666  1.00  0.00    -0.276 N 
HETATM   10  H   UNL     1      41.675 -16.209   5.661  1.00  0.00     0.189 HD
HETATM   11  N   UNL     1      40.632 -15.404   4.104  1.00  0.00    -0.168 NA
HETATM   12  C   UNL     1      40.615 -15.751   2.795  1.00  0.00     0.155 A 
HETATM   13  C   UNL     1      44.165 -20.034   2.838  1.00  0.00     0.038 A 
HETATM   14  C   UNL     1      44.740 -20.388   4.059  1.00  0.00     0.003 A 
ENDROOT
BRANCH  12  15
HETATM   15  C   UNL     1      39.788 -15.044   1.806  1.00  0.00     0.272 C 
HETATM   16  N   UNL     1      40.517 -14.254   0.952  1.00  0.00    -0.351 N 
HETATM   17  H   UNL     1      41.524 -14.263   1.089  1.00  0.00     0.163 HD
HETATM   18  O   UNL     1      38.567 -15.160   1.761  1.00  0.00    -0.266 OA
BRANCH  16  19
HETATM   19  C   UNL     1      39.926 -13.462  -0.094  1.00  0.00     0.161 C 
BRANCH  19  20
HETATM   20  C   UNL     1      39.761 -14.261  -1.361  1.00  0.00    -0.039 A 
HETATM   21  C   UNL     1      38.575 -14.172  -2.108  1.00  0.00     0.032 A 
HETATM   22  C   UNL     1      38.432 -14.898  -3.289  1.00  0.00     0.034 A 
HETATM   23 CL   UNL     1      36.970 -14.785  -4.190  1.00  0.00    -0.084 Cl
HETATM   24  C   UNL     1      39.464 -15.715  -3.747  1.00  0.00     0.024 A 
HETATM   25  C   UNL     1      40.649 -15.806  -3.016  1.00  0.00     0.002 A 
HETATM   26  C   UNL     1      40.797 -15.083  -1.831  1.00  0.00     0.009 A 
ENDBRANCH  19  20
ENDBRANCH  16  19
ENDBRANCH  12  15
TORSDOF 3
ENDMDL
MODEL 2
REMARK VINA RESULT:      -8.5      3.424      7.921
REMARK  3 active torsions:
REMARK  status: ('A' for Active; 'I' for Inactive)
REMARK    1  A    between atoms: C_12  and  C_13 
REMARK       I    between atoms: C_13  and  N_14 
REMARK    2  A    between atoms: N_14  and  C_15 
REMARK    3  A    between atoms: C_15  and  C_16 
ROOT
HETATM    1  C   UNL     1      42.424 -11.633  -3.737  1.00  0.00     0.001 A 
HETATM    2  C   UNL     1      42.075 -12.828  -3.102  1.00  0.00     0.016 A 
HETATM    3  C   UNL     1      42.069 -12.894  -1.707  1.00  0.00     0.026 A 
HETATM    4  C   UNL     1      42.413 -11.759  -0.945  1.00  0.00     0.081 A 
HETATM    5  O   UNL     1      42.437 -11.713   0.432  1.00  0.00    -0.346 OA
HETATM    6  C   UNL     1      42.097 -12.902   1.204  1.00  0.00     0.219 A 
HETATM    7  C   UNL     1      41.729 -14.093   0.410  1.00  0.00     0.031 A 
HETATM    8  C   UNL     1      41.723 -14.075  -0.958  1.00  0.00     0.074 A 
HETATM    9  N   UNL     1      41.348 -15.317  -1.357  1.00  0.00    -0.276 N 
HETATM   10  H   UNL     1      41.237 -15.668  -2.301  1.00  0.00     0.189 HD
HETATM   11  N   UNL     1      41.098 -16.153  -0.326  1.00  0.00    -0.168 NA
HETATM   12  C   UNL     1      41.334 -15.400   0.775  1.00  0.00     0.155 A 
HETATM   13  C   UNL     1      42.759 -10.571  -1.590  1.00  0.00     0.038 A 
HETATM   14  C   UNL     1      42.764 -10.509  -2.984  1.00  0.00     0.003 A 
ENDROOT
BRANCH  12  15
HETATM   15  C   UNL     1      41.177 -15.931   2.138  1.00  0.00     0.272 C 
HETATM   16  N   UNL     1      42.278 -16.621   2.584  1.00  0.00    -0.351 N 
HETATM   17  H   UNL     1      43.063 -16.668   1.940  1.00  0.00     0.163 HD
HETATM   18  O   UNL     1      40.157 -15.764   2.799  1.00  0.00    -0.266 OA
BRANCH  16  19
HETATM   19  C   UNL     1      42.356 -17.236   3.882  1.00  0.00     0.161 C 
BRANCH  19  20
HETATM   20  C   UNL     1      43.229 -18.464   3.855  1.00  0.00    -0.039 A 
HETATM   21  C   UNL     1      43.202 -19.331   2.751  1.00  0.00     0.032 A 
HETATM   22  C   UNL     1      44.023 -20.457   2.721  1.00  0.00     0.034 A 
HETATM   23 CL   UNL     1      43.975 -21.515   1.364  1.00  0.00    -0.084 Cl
HETATM   24  C   UNL     1      44.886 -20.732   3.780  1.00  0.00     0.024 A 
HETATM   25  C   UNL     1      44.925 -19.874   4.879  1.00  0.00     0.002 A 
HETATM   26  C   UNL     1      44.102 -18.746   4.917  1.00  0.00     0.009 A 
ENDBRANCH  19  20
ENDBRANCH  16  19
ENDBRANCH  12  15
TORSDOF 3
ENDMDL
MODEL 3
REMARK VINA RESULT:      -8.4      2.126      2.669
REMARK  3 active torsions:
REMARK  status: ('A' for Active; 'I' for Inactive)
REMARK    1  A    between atoms: C_12  and  C_13 
REMARK       I    between atoms: C_13  and  N_14 
REMARK    2  A    between atoms: N_14  and  C_15 
REMARK    3  A    between atoms: C_15  and  C_16 
ROOT
HETATM    1  C   UNL     1      44.720 -21.602   4.430  1.00  0.00     0.001 A 
HETATM    2  C   UNL     1      44.462 -20.268   4.756  1.00  0.00     0.016 A 
HETATM    3  C   UNL     1      44.068 -19.375   3.758  1.00  0.00     0.026 A 
HETATM    4  C   UNL     1      43.930 -19.820   2.427  1.00  0.00     0.081 A 
HETATM    5  O   UNL     1      43.545 -19.026   1.369  1.00  0.00    -0.346 OA
HETATM    6  C   UNL     1      43.254 -17.615   1.587  1.00  0.00     0.219 A 
HETATM    7  C   UNL     1      43.390 -17.145   2.982  1.00  0.00     0.031 A 
HETATM    8  C   UNL     1      43.776 -17.984   3.991  1.00  0.00     0.074 A 
HETATM    9  N   UNL     1      43.802 -17.235   5.124  1.00  0.00    -0.276 N 
HETATM   10  H   UNL     1      44.045 -17.524   6.064  1.00  0.00     0.189 HD
HETATM   11  N   UNL     1      43.446 -15.948   4.918  1.00  0.00    -0.168 NA
HETATM   12  C   UNL     1      43.190 -15.884   3.589  1.00  0.00     0.155 A 
HETATM   13  C   UNL     1      44.190 -21.154   2.114  1.00  0.00     0.038 A 
HETATM   14  C   UNL     1      44.584 -22.043   3.113  1.00  0.00     0.003 A 
ENDROOT
BRANCH  12  15
HETATM   15  C   UNL     1      42.761 -14.641   2.931  1.00  0.00     0.272 C 
HETATM   16  N   UNL     1      41.505 -14.722   2.382  1.00  0.00    -0.351 N 
HETATM   17  H   UNL     1      41.022 -15.607   2.506  1.00  0.00     0.163 HD
HETATM   18  O   UNL     1      43.467 -13.639   2.886  1.00  0.00    -0.266 OA
BRANCH  16  19
HETATM   19  C   UNL     1      40.875 -13.635   1.681  1.00  0.00     0.161 C 
BRANCH  19  20
HETATM   20  C   UNL     1      41.255 -13.629   0.222  1.00  0.00    -0.039 A 
HETATM   21  C   UNL     1      40.819 -14.656  -0.629  1.00  0.00     0.032 A 
HETATM   22  C   UNL     1      41.157 -14.640  -1.982  1.00  0.00     0.034 A 
HETATM   23 CL   UNL     1      40.623 -15.910  -3.013  1.00  0.00    -0.084 Cl
HETATM   24  C   UNL     1      41.924 -13.601  -2.506  1.00  0.00     0.024 A 
HETATM   25  C   UNL     1      42.357 -12.572  -1.671  1.00  0.00     0.002 A 
HETATM   26  C   UNL     1      42.024 -12.585  -0.314  1.00  0.00     0.009 A 
ENDBRANCH  19  20
ENDBRANCH  16  19
ENDBRANCH  12  15
TORSDOF 3
ENDMDL
MODEL 4
REMARK VINA RESULT:      -8.4      4.116      8.043
REMARK  3 active torsions:
REMARK  status: ('A' for Active; 'I' for Inactive)
REMARK    1  A    between atoms: C_12  and  C_13 
REMARK       I    between atoms: C_13  and  N_14 
REMARK    2  A    between atoms: N_14  and  C_15 
REMARK    3  A    between atoms: C_15  and  C_16 
ROOT
HETATM    1  C   UNL     1      37.315 -11.814   0.921  1.00  0.00     0.001 A 
HETATM    2  C   UNL     1      37.912 -13.076   0.988  1.00  0.00     0.016 A 
HETATM    3  C   UNL     1      38.748 -13.391   2.060  1.00  0.00     0.026 A 
HETATM    4  C   UNL     1      38.987 -12.439   3.072  1.00  0.00     0.081 A 
HETATM    5  O   UNL     1      39.790 -12.646   4.173  1.00  0.00    -0.346 OA
HETATM    6  C   UNL     1      40.469 -13.924   4.347  1.00  0.00     0.219 A 
HETATM    7  C   UNL     1      40.216 -14.928   3.292  1.00  0.00     0.031 A 
HETATM    8  C   UNL     1      39.407 -14.662   2.221  1.00  0.00     0.074 A 
HETATM    9  N   UNL     1      39.399 -15.784   1.458  1.00  0.00    -0.276 N 
HETATM   10  H   UNL     1      38.908 -15.950   0.586  1.00  0.00     0.189 HD
HETATM   11  N   UNL     1      40.155 -16.781   1.970  1.00  0.00    -0.168 NA
HETATM   12  C   UNL     1      40.667 -16.255   3.108  1.00  0.00     0.155 A 
HETATM   13  C   UNL     1      38.386 -11.183   2.996  1.00  0.00     0.038 A 
HETATM   14  C   UNL     1      37.551 -10.871   1.923  1.00  0.00     0.003 A 
ENDROOT
BRANCH  12  15
HETATM   15  C   UNL     1      41.561 -17.018   3.992  1.00  0.00     0.272 C 
HETATM   16  N   UNL     1      42.859 -17.064   3.545  1.00  0.00    -0.351 N 
HETATM   17  H   UNL     1      43.049 -16.562   2.683  1.00  0.00     0.163 HD
HETATM   18  O   UNL     1      41.170 -17.554   5.024  1.00  0.00    -0.266 OA
BRANCH  16  19
HETATM   19  C   UNL     1      43.912 -17.758   4.238  1.00  0.00     0.161 C 
BRANCH  19  20
HETATM   20  C   UNL     1      44.082 -19.161   3.715  1.00  0.00    -0.039 A 
HETATM   21  C   UNL     1      44.585 -20.173   4.549  1.00  0.00     0.032 A 
HETATM   22  C   UNL     1      44.725 -21.474   4.068  1.00  0.00     0.034 A 
HETATM   23 CL   UNL     1      45.350 -22.704   5.098  1.00  0.00    -0.084 Cl
HETATM   24  C   UNL     1      44.361 -21.788   2.760  1.00  0.00     0.024 A 
HETATM   25  C   UNL     1      43.854 -20.792   1.926  1.00  0.00     0.002 A 
HETATM   26  C   UNL     1      43.714 -19.486   2.401  1.00  0.00     0.009 A 
ENDBRANCH  19  20
ENDBRANCH  16  19
ENDBRANCH  12  15
TORSDOF 3
ENDMDL
MODEL 5
REMARK VINA RESULT:      -8.4      8.213     10.716
REMARK  3 active torsions:
REMARK  status: ('A' for Active; 'I' for Inactive)
REMARK    1  A    between atoms: C_12  and  C_13 
REMARK       I    between atoms: C_13  and  N_14 
REMARK    2  A    between atoms: N_14  and  C_15 
REMARK    3  A    between atoms: C_15  and  C_16 
ROOT
HETATM    1  C   UNL     1      42.830  -8.779  13.295  1.00  0.00     0.001 A 
HETATM    2  C   UNL     1      43.637  -9.753  12.702  1.00  0.00     0.016 A 
HETATM    3  C   UNL     1      43.386 -10.155  11.388  1.00  0.00     0.026 A 
HETATM    4  C   UNL     1      42.323  -9.577  10.665  1.00  0.00     0.081 A 
HETATM    5  O   UNL     1      41.990  -9.897   9.367  1.00  0.00    -0.346 OA
HETATM    6  C   UNL     1      42.759 -10.905   8.647  1.00  0.00     0.219 A 
HETATM    7  C   UNL     1      43.879 -11.508   9.398  1.00  0.00     0.031 A 
HETATM    8  C   UNL     1      44.160 -11.147  10.688  1.00  0.00     0.074 A 
HETATM    9  N   UNL     1      45.232 -11.888  11.069  1.00  0.00    -0.276 N 
HETATM   10  H   UNL     1      45.713 -11.887  11.961  1.00  0.00     0.189 HD
HETATM   11  N   UNL     1      45.679 -12.714  10.097  1.00  0.00    -0.168 NA
HETATM   12  C   UNL     1      44.842 -12.485   9.058  1.00  0.00     0.155 A 
HETATM   13  C   UNL     1      41.524  -8.605  11.267  1.00  0.00     0.038 A 
HETATM   14  C   UNL     1      41.777  -8.207  12.580  1.00  0.00     0.003 A 
ENDROOT
BRANCH  12  15
HETATM   15  C   UNL     1      44.976 -13.187   7.772  1.00  0.00     0.272 C 
HETATM   16  N   UNL     1      43.867 -13.926   7.438  1.00  0.00    -0.351 N 
HETATM   17  H   UNL     1      43.094 -13.888   8.096  1.00  0.00     0.163 HD
HETATM   18  O   UNL     1      45.985 -13.110   7.079  1.00  0.00    -0.266 OA
BRANCH  16  19
HETATM   19  C   UNL     1      43.767 -14.704   6.232  1.00  0.00     0.161 C 
BRANCH  19  20
HETATM   20  C   UNL     1      43.743 -16.180   6.531  1.00  0.00    -0.039 A 
HETATM   21  C   UNL     1      43.951 -17.116   5.505  1.00  0.00     0.032 A 
HETATM   22  C   UNL     1      43.945 -18.481   5.788  1.00  0.00     0.034 A 
HETATM   23 CL   UNL     1      44.193 -19.618   4.519  1.00  0.00    -0.084 Cl
HETATM   24  C   UNL     1      43.743 -18.934   7.090  1.00  0.00     0.024 A 
HETATM   25  C   UNL     1      43.542 -18.013   8.118  1.00  0.00     0.002 A 
HETATM   26  C   UNL     1      43.543 -16.643   7.841  1.00  0.00     0.009 A 
ENDBRANCH  19  20
ENDBRANCH  16  19
ENDBRANCH  12  15
TORSDOF 3
ENDMDL
MODEL 6
REMARK VINA RESULT:      -8.1      3.327      4.319
REMARK  3 active torsions:
REMARK  status: ('A' for Active; 'I' for Inactive)
REMARK    1  A    between atoms: C_12  and  C_13 
REMARK       I    between atoms: C_13  and  N_14 
REMARK    2  A    between atoms: N_14  and  C_15 
REMARK    3  A    between atoms: C_15  and  C_16 
ROOT
HETATM    1  C   UNL     1      44.398 -22.091   2.409  1.00  0.00     0.001 A 
HETATM    2  C   UNL     1      44.030 -20.829   1.934  1.00  0.00     0.016 A 
HETATM    3  C   UNL     1      43.985 -19.744   2.813  1.00  0.00     0.026 A 
HETATM    4  C   UNL     1      44.312 -19.924   4.172  1.00  0.00     0.081 A 
HETATM    5  O   UNL     1      44.303 -18.925   5.122  1.00  0.00    -0.346 OA
HETATM    6  C   UNL     1      43.931 -17.568   4.744  1.00  0.00     0.219 A 
HETATM    7  C   UNL     1      43.595 -17.373   3.318  1.00  0.00     0.031 A 
HETATM    8  C   UNL     1      43.622 -18.407   2.423  1.00  0.00     0.074 A 
HETATM    9  N   UNL     1      43.261 -17.884   1.222  1.00  0.00    -0.276 N 
HETATM   10  H   UNL     1      43.170 -18.359   0.331  1.00  0.00     0.189 HD
HETATM   11  N   UNL     1      43.003 -16.559   1.276  1.00  0.00    -0.168 NA
HETATM   12  C   UNL     1      43.206 -16.235   2.575  1.00  0.00     0.155 A 
HETATM   13  C   UNL     1      44.678 -21.188   4.635  1.00  0.00     0.038 A 
HETATM   14  C   UNL     1      44.721 -22.269   3.755  1.00  0.00     0.003 A 
ENDROOT
BRANCH  12  15
HETATM   15  C   UNL     1      43.034 -14.863   3.078  1.00  0.00     0.272 C 
HETATM   16  N   UNL     1      41.747 -14.584   3.467  1.00  0.00    -0.351 N 
HETATM   17  H   UNL     1      41.081 -15.346   3.379  1.00  0.00     0.163 HD
HETATM   18  O   UNL     1      43.960 -14.061   3.139  1.00  0.00    -0.266 OA
BRANCH  16  19
HETATM   19  C   UNL     1      41.335 -13.306   3.985  1.00  0.00     0.161 C 
BRANCH  19  20
HETATM   20  C   UNL     1      40.145 -12.767   3.235  1.00  0.00    -0.039 A 
HETATM   21  C   UNL     1      39.440 -13.587   2.338  1.00  0.00     0.032 A 
HETATM   22  C   UNL     1      38.329 -13.091   1.658  1.00  0.00     0.034 A 
HETATM   23 CL   UNL     1      37.479 -14.104   0.556  1.00  0.00    -0.084 Cl
HETATM   24  C   UNL     1      37.898 -11.783   1.865  1.00  0.00     0.024 A 
HETATM   25  C   UNL     1      38.586 -10.962   2.759  1.00  0.00     0.002 A 
HETATM   26  C   UNL     1      39.703 -11.451   3.440  1.00  0.00     0.009 A 
ENDBRANCH  19  20
ENDBRANCH  16  19
ENDBRANCH  12  15
TORSDOF 3
ENDMDL
MODEL 7
REMARK VINA RESULT:      -8.0      2.294      3.147
REMARK  3 active torsions:
REMARK  status: ('A' for Active; 'I' for Inactive)
REMARK    1  A    between atoms: C_12  and  C_13 
REMARK       I    between atoms: C_13  and  N_14 
REMARK    2  A    between atoms: N_14  and  C_15 
REMARK    3  A    between atoms: C_15  and  C_16 
ROOT
HETATM    1  C   UNL     1      44.680 -21.706   4.011  1.00  0.00     0.001 A 
HETATM    2  C   UNL     1      44.490 -20.420   4.522  1.00  0.00     0.016 A 
HETATM    3  C   UNL     1      44.045 -19.398   3.680  1.00  0.00     0.026 A 
HETATM    4  C   UNL     1      43.788 -19.667   2.320  1.00  0.00     0.081 A 
HETATM    5  O   UNL     1      43.346 -18.737   1.405  1.00  0.00    -0.346 OA
HETATM    6  C   UNL     1      43.117 -17.360   1.821  1.00  0.00     0.219 A 
HETATM    7  C   UNL     1      43.377 -17.074   3.248  1.00  0.00     0.031 A 
HETATM    8  C   UNL     1      43.816 -18.043   4.109  1.00  0.00     0.074 A 
HETATM    9  N   UNL     1      43.954 -17.445   5.321  1.00  0.00    -0.276 N 
HETATM   10  H   UNL     1      44.262 -17.857   6.194  1.00  0.00     0.189 HD
HETATM   11  N   UNL     1      43.623 -16.135   5.308  1.00  0.00    -0.168 NA
HETATM   12  C   UNL     1      43.266 -15.898   4.023  1.00  0.00     0.155 A 
HETATM   13  C   UNL     1      43.981 -20.955   1.821  1.00  0.00     0.038 A 
HETATM   14  C   UNL     1      44.426 -21.973   2.665  1.00  0.00     0.003 A 
ENDROOT
BRANCH  12  15
HETATM   15  C   UNL     1      42.825 -14.572   3.564  1.00  0.00     0.272 C 
HETATM   16  N   UNL     1      41.459 -14.421   3.569  1.00  0.00    -0.351 N 
HETATM   17  H   UNL     1      40.925 -15.220   3.898  1.00  0.00     0.163 HD
HETATM   18  O   UNL     1      43.611 -13.697   3.215  1.00  0.00    -0.266 OA
BRANCH  16  19
HETATM   19  C   UNL     1      40.794 -13.214   3.155  1.00  0.00     0.161 C 
BRANCH  19  20
HETATM   20  C   UNL     1      40.012 -13.427   1.884  1.00  0.00    -0.039 A 
HETATM   21  C   UNL     1      40.620 -14.023   0.768  1.00  0.00     0.032 A 
HETATM   22  C   UNL     1      39.890 -14.235  -0.401  1.00  0.00     0.034 A 
HETATM   23 CL   UNL     1      40.650 -14.960  -1.765  1.00  0.00    -0.084 Cl
HETATM   24  C   UNL     1      38.548 -13.866  -0.474  1.00  0.00     0.024 A 
HETATM   25  C   UNL     1      37.933 -13.279   0.632  1.00  0.00     0.002 A 
HETATM   26  C   UNL     1      38.660 -13.061   1.804  1.00  0.00     0.009 A 
ENDBRANCH  19  20
ENDBRANCH  16  19
ENDBRANCH  12  15
TORSDOF 3
ENDMDL
MODEL 8
REMARK VINA RESULT:      -8.0      3.458      4.608
REMARK  3 active torsions:
REMARK  status: ('A' for Active; 'I' for Inactive)
REMARK    1  A    between atoms: C_12  and  C_13 
REMARK       I    between atoms: C_13  and  N_14 
REMARK    2  A    between atoms: N_14  and  C_15 
REMARK    3  A    between atoms: C_15  and  C_16 
ROOT
HETATM    1  C   UNL     1      44.737 -22.068   3.366  1.00  0.00     0.001 A 
HETATM    2  C   UNL     1      44.763 -20.995   4.260  1.00  0.00     0.016 A 
HETATM    3  C   UNL     1      44.184 -19.777   3.898  1.00  0.00     0.026 A 
HETATM    4  C   UNL     1      43.575 -19.633   2.635  1.00  0.00     0.081 A 
HETATM    5  O   UNL     1      42.973 -18.481   2.178  1.00  0.00    -0.346 OA
HETATM    6  C   UNL     1      42.944 -17.293   3.023  1.00  0.00     0.219 A 
HETATM    7  C   UNL     1      43.575 -17.441   4.351  1.00  0.00     0.031 A 
HETATM    8  C   UNL     1      44.156 -18.614   4.748  1.00  0.00     0.074 A 
HETATM    9  N   UNL     1      44.634 -18.402   6.001  1.00  0.00    -0.276 N 
HETATM   10  H   UNL     1      45.127 -19.049   6.605  1.00  0.00     0.189 HD
HETATM   11  N   UNL     1      44.393 -17.153   6.457  1.00  0.00    -0.168 NA
HETATM   12  C   UNL     1      43.737 -16.550   5.436  1.00  0.00     0.155 A 
HETATM   13  C   UNL     1      43.554 -20.712   1.750  1.00  0.00     0.038 A 
HETATM   14  C   UNL     1      44.134 -21.927   2.115  1.00  0.00     0.003 A 
ENDROOT
BRANCH  12  15
HETATM   15  C   UNL     1      43.277 -15.154   5.514  1.00  0.00     0.272 C 
HETATM   16  N   UNL     1      41.915 -15.037   5.647  1.00  0.00    -0.351 N 
HETATM   17  H   UNL     1      41.397 -15.910   5.692  1.00  0.00     0.163 HD
HETATM   18  O   UNL     1      44.047 -14.201   5.465  1.00  0.00    -0.266 OA
BRANCH  16  19
HETATM   19  C   UNL     1      41.234 -13.773   5.736  1.00  0.00     0.161 C 
BRANCH  19  20
HETATM   20  C   UNL     1      40.733 -13.324   4.387  1.00  0.00    -0.039 A 
HETATM   21  C   UNL     1      39.897 -14.157   3.627  1.00  0.00     0.032 A 
HETATM   22  C   UNL     1      39.421 -13.732   2.388  1.00  0.00     0.034 A 
HETATM   23 CL   UNL     1      38.402 -14.766   1.462  1.00  0.00    -0.084 Cl
HETATM   24  C   UNL     1      39.761 -12.475   1.892  1.00  0.00     0.024 A 
HETATM   25  C   UNL     1      40.586 -11.637   2.642  1.00  0.00     0.002 A 
HETATM   26  C   UNL     1      41.069 -12.058   3.883  1.00  0.00     0.009 A 
ENDBRANCH  19  20
ENDBRANCH  16  19
ENDBRANCH  12  15
TORSDOF 3
ENDMDL
MODEL 9
REMARK VINA RESULT:      -8.0      3.228      4.056
REMARK  3 active torsions:
REMARK  status: ('A' for Active; 'I' for Inactive)
REMARK    1  A    between atoms: C_12  and  C_13 
REMARK       I    between atoms: C_13  and  N_14 
REMARK    2  A    between atoms: N_14  and  C_15 
REMARK    3  A    between atoms: C_15  and  C_16 
ROOT
HETATM    1  C   UNL     1      44.693 -22.479   3.376  1.00  0.00     0.001 A 
HETATM    2  C   UNL     1      44.356 -21.367   2.599  1.00  0.00     0.016 A 
HETATM    3  C   UNL     1      44.176 -20.125   3.210  1.00  0.00     0.026 A 
HETATM    4  C   UNL     1      44.335 -19.995   4.605  1.00  0.00     0.081 A 
HETATM    5  O   UNL     1      44.183 -18.819   5.307  1.00  0.00    -0.346 OA
HETATM    6  C   UNL     1      43.827 -17.593   4.604  1.00  0.00     0.219 A 
HETATM    7  C   UNL     1      43.667 -17.723   3.140  1.00  0.00     0.031 A 
HETATM    8  C   UNL     1      43.831 -18.920   2.500  1.00  0.00     0.074 A 
HETATM    9  N   UNL     1      43.609 -18.684   1.181  1.00  0.00    -0.276 N 
HETATM   10  H   UNL     1      43.642 -19.340   0.410  1.00  0.00     0.189 HD
HETATM   11  N   UNL     1      43.314 -17.392   0.915  1.00  0.00    -0.168 NA
HETATM   12  C   UNL     1      43.346 -16.790   2.128  1.00  0.00     0.155 A 
HETATM   13  C   UNL     1      44.671 -21.111   5.370  1.00  0.00     0.038 A 
HETATM   14  C   UNL     1      44.851 -22.351   4.756  1.00  0.00     0.003 A 
ENDROOT
BRANCH  12  15
HETATM   15  C   UNL     1      43.079 -15.353   2.298  1.00  0.00     0.272 C 
HETATM   16  N   UNL     1      42.105 -14.877   1.455  1.00  0.00    -0.351 N 
HETATM   17  H   UNL     1      41.680 -15.562   0.837  1.00  0.00     0.163 HD
HETATM   18  O   UNL     1      43.676 -14.662   3.118  1.00  0.00    -0.266 OA
BRANCH  16  19
HETATM   19  C   UNL     1      41.678 -13.504   1.433  1.00  0.00     0.161 C 
BRANCH  19  20
HETATM   20  C   UNL     1      42.008 -12.847   0.117  1.00  0.00    -0.039 A 
HETATM   21  C   UNL     1      42.470 -11.522   0.081  1.00  0.00     0.032 A 
HETATM   22  C   UNL     1      42.791 -10.922  -1.136  1.00  0.00     0.034 A 
HETATM   23 CL   UNL     1      43.349  -9.294  -1.167  1.00  0.00    -0.084 Cl
HETATM   24  C   UNL     1      42.666 -11.632  -2.329  1.00  0.00     0.024 A 
HETATM   25  C   UNL     1      42.214 -12.951  -2.304  1.00  0.00     0.002 A 
HETATM   26  C   UNL     1      41.887 -13.556  -1.088  1.00  0.00     0.009 A 
ENDBRANCH  19  20
ENDBRANCH  16  19
ENDBRANCH  12  15
TORSDOF 3
ENDMDL
MODEL 10
REMARK VINA RESULT:      -7.9      3.701      7.556
REMARK  3 active torsions:
REMARK  status: ('A' for Active; 'I' for Inactive)
REMARK    1  A    between atoms: C_12  and  C_13 
REMARK       I    between atoms: C_13  and  N_14 
REMARK    2  A    between atoms: N_14  and  C_15 
REMARK    3  A    between atoms: C_15  and  C_16 
ROOT
HETATM    1  C   UNL     1      42.506 -10.929  -2.501  1.00  0.00     0.001 A 
HETATM    2  C   UNL     1      42.424 -11.145  -1.123  1.00  0.00     0.016 A 
HETATM    3  C   UNL     1      42.088 -12.411  -0.639  1.00  0.00     0.026 A 
HETATM    4  C   UNL     1      41.834 -13.466  -1.539  1.00  0.00     0.081 A 
HETATM    5  O   UNL     1      41.498 -14.750  -1.171  1.00  0.00    -0.346 OA
HETATM    6  C   UNL     1      41.378 -15.093   0.241  1.00  0.00     0.219 A 
HETATM    7  C   UNL     1      41.651 -13.993   1.189  1.00  0.00     0.031 A 
HETATM    8  C   UNL     1      41.980 -12.736   0.760  1.00  0.00     0.074 A 
HETATM    9  N   UNL     1      42.156 -11.983   1.877  1.00  0.00    -0.276 N 
HETATM   10  H   UNL     1      42.405 -11.003   1.942  1.00  0.00     0.189 HD
HETATM   11  N   UNL     1      41.967 -12.678   3.020  1.00  0.00    -0.168 NA
HETATM   12  C   UNL     1      41.651 -13.926   2.601  1.00  0.00     0.155 A 
HETATM   13  C   UNL     1      41.919 -13.238  -2.913  1.00  0.00     0.038 A 
HETATM   14  C   UNL     1      42.255 -11.972  -3.393  1.00  0.00     0.003 A 
ENDROOT
BRANCH  12  15
HETATM   15  C   UNL     1      41.363 -15.021   3.540  1.00  0.00     0.272 C 
HETATM   16  N   UNL     1      42.339 -15.987   3.564  1.00  0.00    -0.351 N 
HETATM   17  H   UNL     1      43.137 -15.828   2.956  1.00  0.00     0.163 HD
HETATM   18  O   UNL     1      40.348 -15.052   4.228  1.00  0.00    -0.266 OA
BRANCH  16  19
HETATM   19  C   UNL     1      42.275 -17.157   4.399  1.00  0.00     0.161 C 
BRANCH  19  20
HETATM   20  C   UNL     1      42.995 -18.321   3.769  1.00  0.00    -0.039 A 
HETATM   21  C   UNL     1      43.721 -19.222   4.564  1.00  0.00     0.032 A 
HETATM   22  C   UNL     1      44.372 -20.308   3.980  1.00  0.00     0.034 A 
HETATM   23 CL   UNL     1      45.265 -21.401   4.965  1.00  0.00    -0.084 Cl
HETATM   24  C   UNL     1      44.303 -20.519   2.604  1.00  0.00     0.024 A 
HETATM   25  C   UNL     1      43.578 -19.634   1.806  1.00  0.00     0.002 A 
HETATM   26  C   UNL     1      42.927 -18.541   2.384  1.00  0.00     0.009 A 
ENDBRANCH  19  20
ENDBRANCH  16  19
ENDBRANCH  12  15
TORSDOF 3
ENDMDL
