MODEL 1
REMARK VINA RESULT:      -8.4      0.000      0.000
REMARK  5 active torsions:
REMARK  status: ('A' for Active; 'I' for Inactive)
REMARK    1  A    between atoms: C_4  and  C_5 
REMARK    2  A    between atoms: C_10  and  C_11 
REMARK       I    between atoms: C_11  and  N_12 
REMARK    3  A    between atoms: N_12  and  C_13 
REMARK    4  A    between atoms: C_13  and  C_14 
REMARK    5  A    between atoms: C_22  and  C_23 
ROOT
HETATM    1  C   UNL     1      41.097 -16.429   5.090  1.00  0.00     0.118 C 
HETATM    2  N   UNL     1      40.439 -15.586   4.096  1.00  0.00    -0.365 N 
HETATM    3  C   UNL     1      40.767 -15.643   2.783  1.00  0.00     0.141 A 
HETATM    4  N   UNL     1      41.563 -16.640   2.290  1.00  0.00    -0.238 N 
HETATM    5  N   UNL     1      41.760 -16.581   0.963  1.00  0.00    -0.163 NA
HETATM    6  C   UNL     1      41.105 -15.453   0.585  1.00  0.00     0.165 A 
HETATM    7  C   UNL     1      40.464 -14.857   1.701  1.00  0.00     0.092 A 
HETATM    8 BR   UNL     1      39.429 -13.296   1.718  1.00  0.00    -0.044 Br
HETATM    9  C   UNL     1      42.133 -17.706   3.093  1.00  0.00     0.221 C 
HETATM   10  C   UNL     1      41.426 -17.796   4.460  1.00  0.00     0.066 C 
HETATM   11  H   UNL     1      39.964 -14.763   4.469  1.00  0.00     0.162 HD
ENDROOT
BRANCH   6  12
HETATM   12  C   UNL     1      41.153 -14.996  -0.814  1.00  0.00     0.273 C 
HETATM   13  N   UNL     1      40.448 -15.814  -1.668  1.00  0.00    -0.353 N 
HETATM   14  H   UNL     1      40.060 -16.657  -1.251  1.00  0.00     0.162 HD
HETATM   15  O   UNL     1      41.782 -14.013  -1.195  1.00  0.00    -0.266 OA
BRANCH  13  16
HETATM   16  C   UNL     1      40.504 -15.716  -3.111  1.00  0.00     0.155 C 
BRANCH  16  17
HETATM   17  C   UNL     1      39.391 -14.837  -3.705  1.00  0.00     0.139 C 
HETATM   18  O   UNL     1      39.814 -13.457  -3.691  1.00  0.00    -0.384 OA
HETATM   19  C   UNL     1      38.836 -12.684  -2.982  1.00  0.00     0.168 C 
HETATM   20  C   UNL     1      38.038 -13.652  -2.141  1.00  0.00     0.029 C 
HETATM   21  C   UNL     1      38.052 -14.902  -2.981  1.00  0.00     0.035 C 
ENDBRANCH  16  17
ENDBRANCH  13  16
ENDBRANCH   6  12
BRANCH   9  22
HETATM   22  C   UNL     1      43.636 -17.547   3.186  1.00  0.00     0.409 C 
HETATM   23  F   UNL     1      44.170 -18.051   4.313  1.00  0.00    -0.169 F 
HETATM   24  F   UNL     1      44.237 -18.172   2.141  1.00  0.00    -0.169 F 
HETATM   25  F   UNL     1      44.009 -16.248   3.112  1.00  0.00    -0.169 F 
ENDBRANCH   9  22
BRANCH   1  26
HETATM   26  C   UNL     1      42.260 -15.742   5.786  1.00  0.00    -0.035 A 
HETATM   27  C   UNL     1      42.649 -14.421   5.504  1.00  0.00     0.009 A 
HETATM   28  C   UNL     1      43.721 -13.826   6.174  1.00  0.00     0.001 A 
HETATM   29  C   UNL     1      44.419 -14.535   7.145  1.00  0.00     0.000 A 
HETATM   30  C   UNL     1      44.043 -15.838   7.454  1.00  0.00     0.001 A 
HETATM   31  C   UNL     1      42.971 -16.434   6.784  1.00  0.00     0.009 A 
ENDBRANCH   1  26
TORSDOF 5
ENDMDL
MODEL 2
REMARK VINA RESULT:      -8.3      1.764      2.304
REMARK  5 active torsions:
REMARK  status: ('A' for Active; 'I' for Inactive)
REMARK    1  A    between atoms: C_4  and  C_5 
REMARK    2  A    between atoms: C_10  and  C_11 
REMARK       I    between atoms: C_11  and  N_12 
REMARK    3  A    between atoms: N_12  and  C_13 
REMARK    4  A    between atoms: C_13  and  C_14 
REMARK    5  A    between atoms: C_22  and  C_23 
ROOT
HETATM    1  C   UNL     1      41.251 -16.700   4.581  1.00  0.00     0.118 C 
HETATM    2  N   UNL     1      40.464 -15.807   3.736  1.00  0.00    -0.365 N 
HETATM    3  C   UNL     1      40.729 -15.657   2.416  1.00  0.00     0.141 A 
HETATM    4  N   UNL     1      41.593 -16.493   1.763  1.00  0.00    -0.238 N 
HETATM    5  N   UNL     1      41.715 -16.239   0.449  1.00  0.00    -0.163 NA
HETATM    6  C   UNL     1      40.934 -15.146   0.253  1.00  0.00     0.165 A 
HETATM    7  C   UNL     1      40.296 -14.771   1.463  1.00  0.00     0.092 A 
HETATM    8 BR   UNL     1      39.115 -13.342   1.730  1.00  0.00    -0.044 Br
HETATM    9  C   UNL     1      42.304 -17.590   2.392  1.00  0.00     0.221 C 
HETATM   10  C   UNL     1      41.680 -17.931   3.759  1.00  0.00     0.066 C 
HETATM   11  H   UNL     1      39.931 -15.094   4.235  1.00  0.00     0.162 HD
ENDROOT
BRANCH   6  12
HETATM   12  C   UNL     1      40.867 -14.506  -1.072  1.00  0.00     0.273 C 
HETATM   13  N   UNL     1      42.095 -14.074  -1.519  1.00  0.00    -0.353 N 
HETATM   14  H   UNL     1      42.865 -14.175  -0.860  1.00  0.00     0.162 HD
HETATM   15  O   UNL     1      39.827 -14.336  -1.702  1.00  0.00    -0.266 OA
BRANCH  13  16
HETATM   16  C   UNL     1      42.282 -13.233  -2.682  1.00  0.00     0.155 C 
BRANCH  16  17
HETATM   17  C   UNL     1      42.547 -11.760  -2.331  1.00  0.00     0.139 C 
HETATM   18  O   UNL     1      43.221 -11.685  -1.057  1.00  0.00    -0.384 OA
HETATM   19  C   UNL     1      42.459 -10.843  -0.182  1.00  0.00     0.168 C 
HETATM   20  C   UNL     1      41.061 -10.769  -0.752  1.00  0.00     0.029 C 
HETATM   21  C   UNL     1      41.308 -10.878  -2.234  1.00  0.00     0.035 C 
ENDBRANCH  16  17
ENDBRANCH  13  16
ENDBRANCH   6  12
BRANCH   9  22
HETATM   22  C   UNL     1      43.787 -17.289   2.450  1.00  0.00     0.409 C 
HETATM   23  F   UNL     1      44.076 -15.978   2.542  1.00  0.00    -0.169 F 
HETATM   24  F   UNL     1      44.346 -17.900   3.527  1.00  0.00    -0.169 F 
HETATM   25  F   UNL     1      44.440 -17.768   1.366  1.00  0.00    -0.169 F 
ENDBRANCH   9  22
BRANCH   1  26
HETATM   26  C   UNL     1      42.375 -15.993   5.321  1.00  0.00    -0.035 A 
HETATM   27  C   UNL     1      42.690 -14.639   5.119  1.00  0.00     0.009 A 
HETATM   28  C   UNL     1      43.729 -14.026   5.826  1.00  0.00     0.001 A 
HETATM   29  C   UNL     1      44.465 -14.753   6.755  1.00  0.00     0.000 A 
HETATM   30  C   UNL     1      44.161 -16.091   6.984  1.00  0.00     0.001 A 
HETATM   31  C   UNL     1      43.123 -16.704   6.277  1.00  0.00     0.009 A 
ENDBRANCH   1  26
TORSDOF 5
ENDMDL
MODEL 3
REMARK VINA RESULT:      -7.9      2.027      2.796
REMARK  5 active torsions:
REMARK  status: ('A' for Active; 'I' for Inactive)
REMARK    1  A    between atoms: C_4  and  C_5 
REMARK    2  A    between atoms: C_10  and  C_11 
REMARK       I    between atoms: C_11  and  N_12 
REMARK    3  A    between atoms: N_12  and  C_13 
REMARK    4  A    between atoms: C_13  and  C_14 
REMARK    5  A    between atoms: C_22  and  C_23 
ROOT
HETATM    1  C   UNL     1      41.477 -17.695   4.294  1.00  0.00     0.118 C 
HETATM    2  N   UNL     1      40.936 -16.344   4.177  1.00  0.00    -0.365 N 
HETATM    3  C   UNL     1      41.217 -15.555   3.112  1.00  0.00     0.141 A 
HETATM    4  N   UNL     1      41.830 -16.054   1.996  1.00  0.00    -0.238 N 
HETATM    5  N   UNL     1      41.999 -15.155   1.013  1.00  0.00    -0.163 NA
HETATM    6  C   UNL     1      41.523 -13.998   1.541  1.00  0.00     0.165 A 
HETATM    7  C   UNL     1      41.015 -14.224   2.847  1.00  0.00     0.092 A 
HETATM    8 BR   UNL     1      40.244 -12.967   4.000  1.00  0.00    -0.044 Br
HETATM    9  C   UNL     1      42.243 -17.436   1.837  1.00  0.00     0.221 C 
HETATM   10  C   UNL     1      41.567 -18.331   2.894  1.00  0.00     0.066 C 
HETATM   11  H   UNL     1      40.609 -15.928   5.049  1.00  0.00     0.162 HD
ENDROOT
BRANCH   6  12
HETATM   12  C   UNL     1      41.608 -12.740   0.781  1.00  0.00     0.273 C 
HETATM   13  N   UNL     1      40.467 -12.477   0.056  1.00  0.00    -0.353 N 
HETATM   14  H   UNL     1      39.757 -13.207   0.070  1.00  0.00     0.162 HD
HETATM   15  O   UNL     1      42.597 -12.015   0.759  1.00  0.00    -0.266 OA
BRANCH  13  16
HETATM   16  C   UNL     1      40.363 -11.426  -0.934  1.00  0.00     0.155 C 
BRANCH  16  17
HETATM   17  C   UNL     1      40.639 -11.910  -2.367  1.00  0.00     0.139 C 
HETATM   18  O   UNL     1      40.480 -13.343  -2.426  1.00  0.00    -0.384 OA
HETATM   19  C   UNL     1      41.689 -13.919  -2.938  1.00  0.00     0.168 C 
HETATM   20  C   UNL     1      42.778 -12.888  -2.755  1.00  0.00     0.029 C 
HETATM   21  C   UNL     1      42.027 -11.591  -2.908  1.00  0.00     0.035 C 
ENDBRANCH  16  17
ENDBRANCH  13  16
ENDBRANCH   6  12
BRANCH   9  22
HETATM   22  C   UNL     1      43.754 -17.534   1.823  1.00  0.00     0.409 C 
HETATM   23  F   UNL     1      44.231 -18.700   2.295  1.00  0.00    -0.169 F 
HETATM   24  F   UNL     1      44.219 -17.392   0.555  1.00  0.00    -0.169 F 
HETATM   25  F   UNL     1      44.328 -16.544   2.546  1.00  0.00    -0.169 F 
ENDBRANCH   9  22
BRANCH   1  26
HETATM   26  C   UNL     1      42.753 -17.763   5.118  1.00  0.00    -0.035 A 
HETATM   27  C   UNL     1      43.494 -18.945   5.286  1.00  0.00     0.009 A 
HETATM   28  C   UNL     1      44.665 -18.960   6.047  1.00  0.00     0.001 A 
HETATM   29  C   UNL     1      45.125 -17.792   6.646  1.00  0.00     0.000 A 
HETATM   30  C   UNL     1      44.418 -16.606   6.480  1.00  0.00     0.001 A 
HETATM   31  C   UNL     1      43.245 -16.590   5.720  1.00  0.00     0.009 A 
ENDBRANCH   1  26
TORSDOF 5
ENDMDL
MODEL 4
REMARK VINA RESULT:      -7.8      4.950      8.624
REMARK  5 active torsions:
REMARK  status: ('A' for Active; 'I' for Inactive)
REMARK    1  A    between atoms: C_4  and  C_5 
REMARK    2  A    between atoms: C_10  and  C_11 
REMARK       I    between atoms: C_11  and  N_12 
REMARK    3  A    between atoms: N_12  and  C_13 
REMARK    4  A    between atoms: C_13  and  C_14 
REMARK    5  A    between atoms: C_22  and  C_23 
ROOT
HETATM    1  C   UNL     1      41.359 -17.302   4.246  1.00  0.00     0.118 C 
HETATM    2  N   UNL     1      41.893 -17.122   5.593  1.00  0.00    -0.365 N 
HETATM    3  C   UNL     1      42.587 -16.012   5.942  1.00  0.00     0.141 A 
HETATM    4  N   UNL     1      42.631 -14.914   5.128  1.00  0.00    -0.238 N 
HETATM    5  N   UNL     1      43.323 -13.881   5.636  1.00  0.00    -0.163 NA
HETATM    6  C   UNL     1      43.802 -14.356   6.815  1.00  0.00     0.165 A 
HETATM    7  C   UNL     1      43.344 -15.680   7.036  1.00  0.00     0.092 A 
HETATM    8 BR   UNL     1      43.710 -16.779   8.507  1.00  0.00    -0.044 Br
HETATM    9  C   UNL     1      41.969 -14.821   3.840  1.00  0.00     0.221 C 
HETATM   10  C   UNL     1      40.916 -15.935   3.688  1.00  0.00     0.066 C 
HETATM   11  H   UNL     1      41.986 -17.977   6.142  1.00  0.00     0.162 HD
ENDROOT
BRANCH   6  12
HETATM   12  C   UNL     1      44.693 -13.529   7.646  1.00  0.00     0.273 C 
HETATM   13  N   UNL     1      44.051 -12.984   8.736  1.00  0.00    -0.353 N 
HETATM   14  H   UNL     1      43.048 -13.149   8.785  1.00  0.00     0.162 HD
HETATM   15  O   UNL     1      45.872 -13.311   7.385  1.00  0.00    -0.266 OA
BRANCH  13  16
HETATM   16  C   UNL     1      44.631 -11.971   9.592  1.00  0.00     0.155 C 
BRANCH  16  17
HETATM   17  C   UNL     1      43.826 -11.727  10.879  1.00  0.00     0.139 C 
HETATM   18  O   UNL     1      42.452 -11.443  10.536  1.00  0.00    -0.384 OA
HETATM   19  C   UNL     1      42.086 -10.184  11.115  1.00  0.00     0.168 C 
HETATM   20  C   UNL     1      43.371  -9.451  11.423  1.00  0.00     0.029 C 
HETATM   21  C   UNL     1      44.317 -10.578  11.749  1.00  0.00     0.035 C 
ENDBRANCH  16  17
ENDBRANCH  13  16
ENDBRANCH   6  12
BRANCH   9  22
HETATM   22  C   UNL     1      42.993 -14.785   2.726  1.00  0.00     0.409 C 
HETATM   23  F   UNL     1      42.499 -15.112   1.518  1.00  0.00    -0.169 F 
HETATM   24  F   UNL     1      43.523 -13.538   2.619  1.00  0.00    -0.169 F 
HETATM   25  F   UNL     1      44.034 -15.615   2.972  1.00  0.00    -0.169 F 
ENDBRANCH   9  22
BRANCH   1  26
HETATM   26  C   UNL     1      42.276 -18.105   3.337  1.00  0.00    -0.035 A 
HETATM   27  C   UNL     1      42.123 -18.148   1.941  1.00  0.00     0.009 A 
HETATM   28  C   UNL     1      42.993 -18.895   1.143  1.00  0.00     0.001 A 
HETATM   29  C   UNL     1      44.040 -19.603   1.724  1.00  0.00     0.000 A 
HETATM   30  C   UNL     1      44.222 -19.562   3.102  1.00  0.00     0.001 A 
HETATM   31  C   UNL     1      43.351 -18.816   3.901  1.00  0.00     0.009 A 
ENDBRANCH   1  26
TORSDOF 5
ENDMDL
MODEL 5
REMARK VINA RESULT:      -7.4      2.820      3.536
REMARK  5 active torsions:
REMARK  status: ('A' for Active; 'I' for Inactive)
REMARK    1  A    between atoms: C_4  and  C_5 
REMARK    2  A    between atoms: C_10  and  C_11 
REMARK       I    between atoms: C_11  and  N_12 
REMARK    3  A    between atoms: N_12  and  C_13 
REMARK    4  A    between atoms: C_13  and  C_14 
REMARK    5  A    between atoms: C_22  and  C_23 
ROOT
HETATM    1  C   UNL     1      41.329 -17.589   4.718  1.00  0.00     0.118 C 
HETATM    2  N   UNL     1      40.757 -16.246   4.757  1.00  0.00    -0.365 N 
HETATM    3  C   UNL     1      40.931 -15.368   3.739  1.00  0.00     0.141 A 
HETATM    4  N   UNL     1      41.455 -15.763   2.539  1.00  0.00    -0.238 N 
HETATM    5  N   UNL     1      41.522 -14.784   1.621  1.00  0.00    -0.163 NA
HETATM    6  C   UNL     1      41.074 -13.685   2.279  1.00  0.00     0.165 A 
HETATM    7  C   UNL     1      40.685 -14.026   3.601  1.00  0.00     0.092 A 
HETATM    8 BR   UNL     1      39.994 -12.883   4.913  1.00  0.00    -0.044 Br
HETATM    9  C   UNL     1      41.876 -17.117   2.234  1.00  0.00     0.221 C 
HETATM   10  C   UNL     1      41.309 -18.109   3.268  1.00  0.00     0.066 C 
HETATM   11  H   UNL     1      40.499 -15.908   5.685  1.00  0.00     0.162 HD
ENDROOT
BRANCH   6  12
HETATM   12  C   UNL     1      41.071 -12.369   1.620  1.00  0.00     0.273 C 
HETATM   13  N   UNL     1      40.920 -12.458   0.253  1.00  0.00    -0.353 N 
HETATM   14  H   UNL     1      40.913 -13.401  -0.129  1.00  0.00     0.162 HD
HETATM   15  O   UNL     1      41.223 -11.303   2.209  1.00  0.00    -0.266 OA
BRANCH  13  16
HETATM   16  C   UNL     1      41.093 -11.342  -0.653  1.00  0.00     0.155 C 
BRANCH  16  17
HETATM   17  C   UNL     1      42.469 -11.321  -1.338  1.00  0.00     0.139 C 
HETATM   18  O   UNL     1      43.413 -10.628  -0.493  1.00  0.00    -0.384 OA
HETATM   19  C   UNL     1      44.001  -9.558  -1.243  1.00  0.00     0.168 C 
HETATM   20  C   UNL     1      43.082  -9.281  -2.409  1.00  0.00     0.029 C 
HETATM   21  C   UNL     1      42.509 -10.644  -2.702  1.00  0.00     0.035 C 
ENDBRANCH  16  17
ENDBRANCH  13  16
ENDBRANCH   6  12
BRANCH   9  22
HETATM   22  C   UNL     1      43.381 -17.177   2.085  1.00  0.00     0.409 C 
HETATM   23  F   UNL     1      44.045 -16.319   2.880  1.00  0.00    -0.169 F 
HETATM   24  F   UNL     1      43.830 -18.426   2.376  1.00  0.00    -0.169 F 
HETATM   25  F   UNL     1      43.770 -16.927   0.812  1.00  0.00    -0.169 F 
ENDBRANCH   9  22
BRANCH   1  26
HETATM   26  C   UNL     1      42.672 -17.690   5.423  1.00  0.00    -0.035 A 
HETATM   27  C   UNL     1      43.432 -18.872   5.456  1.00  0.00     0.009 A 
HETATM   28  C   UNL     1      44.665 -18.919   6.110  1.00  0.00     0.001 A 
HETATM   29  C   UNL     1      45.168 -17.783   6.735  1.00  0.00     0.000 A 
HETATM   30  C   UNL     1      44.443 -16.597   6.702  1.00  0.00     0.001 A 
HETATM   31  C   UNL     1      43.209 -16.549   6.048  1.00  0.00     0.009 A 
ENDBRANCH   1  26
TORSDOF 5
ENDMDL
MODEL 6
REMARK VINA RESULT:      -7.3      4.990      9.020
REMARK  5 active torsions:
REMARK  status: ('A' for Active; 'I' for Inactive)
REMARK    1  A    between atoms: C_4  and  C_5 
REMARK    2  A    between atoms: C_10  and  C_11 
REMARK       I    between atoms: C_11  and  N_12 
REMARK    3  A    between atoms: N_12  and  C_13 
REMARK    4  A    between atoms: C_13  and  C_14 
REMARK    5  A    between atoms: C_22  and  C_23 
ROOT
HETATM    1  C   UNL     1      42.806 -13.672   2.646  1.00  0.00     0.118 C 
HETATM    2  N   UNL     1      42.111 -12.494   3.156  1.00  0.00    -0.365 N 
HETATM    3  C   UNL     1      41.986 -12.261   4.485  1.00  0.00     0.141 A 
HETATM    4  N   UNL     1      42.688 -12.989   5.406  1.00  0.00    -0.238 N 
HETATM    5  N   UNL     1      42.486 -12.607   6.678  1.00  0.00    -0.163 NA
HETATM    6  C   UNL     1      41.560 -11.619   6.580  1.00  0.00     0.165 A 
HETATM    7  C   UNL     1      41.241 -11.374   5.219  1.00  0.00     0.092 A 
HETATM    8 BR   UNL     1      40.032 -10.113   4.544  1.00  0.00    -0.044 Br
HETATM    9  C   UNL     1      43.607 -14.061   5.074  1.00  0.00     0.221 C 
HETATM   10  C   UNL     1      43.982 -14.014   3.580  1.00  0.00     0.066 C 
HETATM   11  H   UNL     1      41.478 -12.041   2.496  1.00  0.00     0.162 HD
ENDROOT
BRANCH   6  12
HETATM   12  C   UNL     1      41.012 -10.987   7.792  1.00  0.00     0.273 C 
HETATM   13  N   UNL     1      41.920 -10.938   8.826  1.00  0.00    -0.353 N 
HETATM   14  H   UNL     1      42.808 -11.406   8.655  1.00  0.00     0.162 HD
HETATM   15  O   UNL     1      39.859 -10.579   7.894  1.00  0.00    -0.266 OA
BRANCH  13  16
HETATM   16  C   UNL     1      41.581 -10.565  10.183  1.00  0.00     0.155 C 
BRANCH  16  17
HETATM   17  C   UNL     1      42.522 -11.173  11.235  1.00  0.00     0.139 C 
HETATM   18  O   UNL     1      41.794 -11.385  12.463  1.00  0.00    -0.384 OA
HETATM   19  C   UNL     1      42.476 -10.706  13.525  1.00  0.00     0.168 C 
HETATM   20  C   UNL     1      43.373  -9.674  12.882  1.00  0.00     0.029 C 
HETATM   21  C   UNL     1      43.746 -10.334  11.580  1.00  0.00     0.035 C 
ENDBRANCH  16  17
ENDBRANCH  13  16
ENDBRANCH   6  12
BRANCH   9  22
HETATM   22  C   UNL     1      43.046 -15.392   5.527  1.00  0.00     0.409 C 
HETATM   23  F   UNL     1      43.358 -15.714   6.795  1.00  0.00    -0.169 F 
HETATM   24  F   UNL     1      41.691 -15.383   5.435  1.00  0.00    -0.169 F 
HETATM   25  F   UNL     1      43.468 -16.409   4.739  1.00  0.00    -0.169 F 
ENDBRANCH   9  22
BRANCH   1  26
HETATM   26  C   UNL     1      41.873 -14.831   2.330  1.00  0.00    -0.035 A 
HETATM   27  C   UNL     1      40.479 -14.756   2.489  1.00  0.00     0.009 A 
HETATM   28  C   UNL     1      39.658 -15.843   2.180  1.00  0.00     0.001 A 
HETATM   29  C   UNL     1      40.214 -17.023   1.697  1.00  0.00     0.000 A 
HETATM   30  C   UNL     1      41.590 -17.116   1.515  1.00  0.00     0.001 A 
HETATM   31  C   UNL     1      42.412 -16.028   1.824  1.00  0.00     0.009 A 
ENDBRANCH   1  26
TORSDOF 5
ENDMDL
MODEL 7
REMARK VINA RESULT:      -7.1      2.359      3.863
REMARK  5 active torsions:
REMARK  status: ('A' for Active; 'I' for Inactive)
REMARK    1  A    between atoms: C_4  and  C_5 
REMARK    2  A    between atoms: C_10  and  C_11 
REMARK       I    between atoms: C_11  and  N_12 
REMARK    3  A    between atoms: N_12  and  C_13 
REMARK    4  A    between atoms: C_13  and  C_14 
REMARK    5  A    between atoms: C_22  and  C_23 
ROOT
HETATM    1  C   UNL     1      44.025 -16.534   3.815  1.00  0.00     0.118 C 
HETATM    2  N   UNL     1      43.538 -15.644   2.764  1.00  0.00    -0.365 N 
HETATM    3  C   UNL     1      42.255 -15.207   2.739  1.00  0.00     0.141 A 
HETATM    4  N   UNL     1      41.418 -15.392   3.804  1.00  0.00    -0.238 N 
HETATM    5  N   UNL     1      40.193 -14.864   3.639  1.00  0.00    -0.163 NA
HETATM    6  C   UNL     1      40.221 -14.362   2.377  1.00  0.00     0.165 A 
HETATM    7  C   UNL     1      41.502 -14.551   1.799  1.00  0.00     0.092 A 
HETATM    8 BR   UNL     1      42.064 -14.037   0.088  1.00  0.00    -0.044 Br
HETATM    9  C   UNL     1      41.793 -16.061   5.035  1.00  0.00     0.221 C 
HETATM   10  C   UNL     1      43.326 -16.184   5.143  1.00  0.00     0.066 C 
HETATM   11  H   UNL     1      44.102 -15.624   1.914  1.00  0.00     0.162 HD
ENDROOT
BRANCH   6  12
HETATM   12  C   UNL     1      39.014 -13.759   1.788  1.00  0.00     0.273 C 
HETATM   13  N   UNL     1      38.637 -14.362   0.609  1.00  0.00    -0.353 N 
HETATM   14  H   UNL     1      39.270 -15.078   0.258  1.00  0.00     0.162 HD
HETATM   15  O   UNL     1      38.421 -12.797   2.267  1.00  0.00    -0.266 OA
BRANCH  13  16
HETATM   16  C   UNL     1      37.621 -13.837  -0.279  1.00  0.00     0.155 C 
BRANCH  16  17
HETATM   17  C   UNL     1      38.194 -13.232  -1.570  1.00  0.00     0.139 C 
HETATM   18  O   UNL     1      37.113 -12.722  -2.380  1.00  0.00    -0.384 OA
HETATM   19  C   UNL     1      37.184 -13.330  -3.676  1.00  0.00     0.168 C 
HETATM   20  C   UNL     1      38.024 -14.577  -3.531  1.00  0.00     0.029 C 
HETATM   21  C   UNL     1      38.993 -14.192  -2.443  1.00  0.00     0.035 C 
ENDBRANCH  16  17
ENDBRANCH  13  16
ENDBRANCH   6  12
BRANCH   9  22
HETATM   22  C   UNL     1      41.060 -17.380   5.161  1.00  0.00     0.409 C 
HETATM   23  F   UNL     1      40.646 -17.889   3.987  1.00  0.00    -0.169 F 
HETATM   24  F   UNL     1      41.864 -18.309   5.741  1.00  0.00    -0.169 F 
HETATM   25  F   UNL     1      39.972 -17.276   5.959  1.00  0.00    -0.169 F 
ENDBRANCH   9  22
BRANCH   1  26
HETATM   26  C   UNL     1      43.978 -18.003   3.427  1.00  0.00    -0.035 A 
HETATM   27  C   UNL     1      43.415 -18.460   2.224  1.00  0.00     0.009 A 
HETATM   28  C   UNL     1      43.399 -19.820   1.905  1.00  0.00     0.001 A 
HETATM   29  C   UNL     1      43.957 -20.749   2.778  1.00  0.00     0.000 A 
HETATM   30  C   UNL     1      44.536 -20.319   3.967  1.00  0.00     0.001 A 
HETATM   31  C   UNL     1      44.551 -18.959   4.287  1.00  0.00     0.009 A 
ENDBRANCH   1  26
TORSDOF 5
ENDMDL
MODEL 8
REMARK VINA RESULT:      -7.0      2.046      2.677
REMARK  5 active torsions:
REMARK  status: ('A' for Active; 'I' for Inactive)
REMARK    1  A    between atoms: C_4  and  C_5 
REMARK    2  A    between atoms: C_10  and  C_11 
REMARK       I    between atoms: C_11  and  N_12 
REMARK    3  A    between atoms: N_12  and  C_13 
REMARK    4  A    between atoms: C_13  and  C_14 
REMARK    5  A    between atoms: C_22  and  C_23 
ROOT
HETATM    1  C   UNL     1      41.440 -17.538   4.377  1.00  0.00     0.118 C 
HETATM    2  N   UNL     1      40.895 -16.187   4.275  1.00  0.00    -0.365 N 
HETATM    3  C   UNL     1      41.177 -15.383   3.221  1.00  0.00     0.141 A 
HETATM    4  N   UNL     1      41.795 -15.865   2.102  1.00  0.00    -0.238 N 
HETATM    5  N   UNL     1      41.964 -14.953   1.130  1.00  0.00    -0.163 NA
HETATM    6  C   UNL     1      41.483 -13.805   1.672  1.00  0.00     0.165 A 
HETATM    7  C   UNL     1      40.972 -14.049   2.973  1.00  0.00     0.092 A 
HETATM    8 BR   UNL     1      40.193 -12.809   4.140  1.00  0.00    -0.044 Br
HETATM    9  C   UNL     1      42.213 -17.244   1.926  1.00  0.00     0.221 C 
HETATM   10  C   UNL     1      41.536 -18.155   2.969  1.00  0.00     0.066 C 
HETATM   11  H   UNL     1      40.564 -15.783   5.152  1.00  0.00     0.162 HD
ENDROOT
BRANCH   6  12
HETATM   12  C   UNL     1      41.566 -12.537   0.929  1.00  0.00     0.273 C 
HETATM   13  N   UNL     1      40.334 -12.076   0.520  1.00  0.00    -0.353 N 
HETATM   14  H   UNL     1      39.548 -12.695   0.707  1.00  0.00     0.162 HD
HETATM   15  O   UNL     1      42.617 -11.962   0.664  1.00  0.00    -0.266 OA
BRANCH  13  16
HETATM   16  C   UNL     1      40.148 -10.974  -0.400  1.00  0.00     0.155 C 
BRANCH  16  17
HETATM   17  C   UNL     1      39.549 -11.402  -1.749  1.00  0.00     0.139 C 
HETATM   18  O   UNL     1      38.781 -10.311  -2.300  1.00  0.00    -0.384 OA
HETATM   19  C   UNL     1      37.449 -10.772  -2.560  1.00  0.00     0.168 C 
HETATM   20  C   UNL     1      37.247 -12.020  -1.733  1.00  0.00     0.029 C 
HETATM   21  C   UNL     1      38.630 -12.616  -1.700  1.00  0.00     0.035 C 
ENDBRANCH  16  17
ENDBRANCH  13  16
ENDBRANCH   6  12
BRANCH   9  22
HETATM   22  C   UNL     1      43.724 -17.337   1.915  1.00  0.00     0.409 C 
HETATM   23  F   UNL     1      44.269 -17.242   0.689  1.00  0.00    -0.169 F 
HETATM   24  F   UNL     1      44.258 -16.342   2.671  1.00  0.00    -0.169 F 
HETATM   25  F   UNL     1      44.160 -18.497   2.460  1.00  0.00    -0.169 F 
ENDBRANCH   9  22
BRANCH   1  26
HETATM   26  C   UNL     1      42.713 -17.612   5.204  1.00  0.00    -0.035 A 
HETATM   27  C   UNL     1      43.300 -16.487   5.808  1.00  0.00     0.009 A 
HETATM   28  C   UNL     1      44.468 -16.602   6.566  1.00  0.00     0.001 A 
HETATM   29  C   UNL     1      45.067 -17.845   6.742  1.00  0.00     0.000 A 
HETATM   30  C   UNL     1      44.496 -18.975   6.168  1.00  0.00     0.001 A 
HETATM   31  C   UNL     1      43.327 -18.861   5.410  1.00  0.00     0.009 A 
ENDBRANCH   1  26
TORSDOF 5
ENDMDL
MODEL 9
REMARK VINA RESULT:      -7.0      3.838      8.176
REMARK  5 active torsions:
REMARK  status: ('A' for Active; 'I' for Inactive)
REMARK    1  A    between atoms: C_4  and  C_5 
REMARK    2  A    between atoms: C_10  and  C_11 
REMARK       I    between atoms: C_11  and  N_12 
REMARK    3  A    between atoms: N_12  and  C_13 
REMARK    4  A    between atoms: C_13  and  C_14 
REMARK    5  A    between atoms: C_22  and  C_23 
ROOT
HETATM    1  C   UNL     1      40.880 -14.482  -2.120  1.00  0.00     0.118 C 
HETATM    2  N   UNL     1      41.580 -15.387  -1.212  1.00  0.00    -0.365 N 
HETATM    3  C   UNL     1      41.252 -15.474   0.100  1.00  0.00     0.141 A 
HETATM    4  N   UNL     1      40.116 -14.893   0.591  1.00  0.00    -0.238 N 
HETATM    5  N   UNL     1      39.912 -15.107   1.901  1.00  0.00    -0.163 NA
HETATM    6  C   UNL     1      41.003 -15.814   2.292  1.00  0.00     0.165 A 
HETATM    7  C   UNL     1      41.849 -16.069   1.182  1.00  0.00     0.092 A 
HETATM    8 BR   UNL     1      43.470 -17.007   1.179  1.00  0.00    -0.044 Br
HETATM    9  C   UNL     1      39.171 -14.136  -0.209  1.00  0.00     0.221 C 
HETATM   10  C   UNL     1      39.397 -14.397  -1.711  1.00  0.00     0.066 C 
HETATM   11  H   UNL     1      42.496 -15.703  -1.533  1.00  0.00     0.162 HD
ENDROOT
BRANCH   6  12
HETATM   12  C   UNL     1      41.189 -16.180   3.706  1.00  0.00     0.273 C 
HETATM   13  N   UNL     1      41.735 -17.434   3.865  1.00  0.00    -0.353 N 
HETATM   14  H   UNL     1      41.863 -17.971   3.010  1.00  0.00     0.162 HD
HETATM   15  O   UNL     1      40.860 -15.468   4.650  1.00  0.00    -0.266 OA
BRANCH  13  16
HETATM   16  C   UNL     1      41.828 -18.119   5.137  1.00  0.00     0.155 C 
BRANCH  16  17
HETATM   17  C   UNL     1      43.246 -18.112   5.731  1.00  0.00     0.139 C 
HETATM   18  O   UNL     1      43.424 -19.281   6.559  1.00  0.00    -0.384 OA
HETATM   19  C   UNL     1      43.822 -18.860   7.869  1.00  0.00     0.168 C 
HETATM   20  C   UNL     1      43.435 -17.405   7.999  1.00  0.00     0.029 C 
HETATM   21  C   UNL     1      43.589 -16.900   6.588  1.00  0.00     0.035 C 
ENDBRANCH  16  17
ENDBRANCH  13  16
ENDBRANCH   6  12
BRANCH   9  22
HETATM   22  C   UNL     1      39.213 -12.672   0.175  1.00  0.00     0.409 C 
HETATM   23  F   UNL     1      40.384 -12.280   0.708  1.00  0.00    -0.169 F 
HETATM   24  F   UNL     1      38.988 -11.896  -0.917  1.00  0.00    -0.169 F 
HETATM   25  F   UNL     1      38.242 -12.358   1.064  1.00  0.00    -0.169 F 
ENDBRANCH   9  22
BRANCH   1  26
HETATM   26  C   UNL     1      41.580 -13.143  -2.292  1.00  0.00    -0.035 A 
HETATM   27  C   UNL     1      42.570 -12.678  -1.410  1.00  0.00     0.009 A 
HETATM   28  C   UNL     1      43.193 -11.444  -1.610  1.00  0.00     0.001 A 
HETATM   29  C   UNL     1      42.845 -10.655  -2.701  1.00  0.00     0.000 A 
HETATM   30  C   UNL     1      41.881 -11.101  -3.598  1.00  0.00     0.001 A 
HETATM   31  C   UNL     1      41.257 -12.336  -3.398  1.00  0.00     0.009 A 
ENDBRANCH   1  26
TORSDOF 5
ENDMDL
MODEL 10
REMARK VINA RESULT:      -6.9      4.417      7.322
REMARK  5 active torsions:
REMARK  status: ('A' for Active; 'I' for Inactive)
REMARK    1  A    between atoms: C_4  and  C_5 
REMARK    2  A    between atoms: C_10  and  C_11 
REMARK       I    between atoms: C_11  and  N_12 
REMARK    3  A    between atoms: N_12  and  C_13 
REMARK    4  A    between atoms: C_13  and  C_14 
REMARK    5  A    between atoms: C_22  and  C_23 
ROOT
HETATM    1  C   UNL     1      42.111 -12.560   2.796  1.00  0.00     0.118 C 
HETATM    2  N   UNL     1      42.936 -13.222   3.802  1.00  0.00    -0.365 N 
HETATM    3  C   UNL     1      42.822 -14.547   4.057  1.00  0.00     0.141 A 
HETATM    4  N   UNL     1      42.097 -15.371   3.241  1.00  0.00    -0.238 N 
HETATM    5  N   UNL     1      42.117 -16.663   3.606  1.00  0.00    -0.163 NA
HETATM    6  C   UNL     1      42.846 -16.669   4.752  1.00  0.00     0.165 A 
HETATM    7  C   UNL     1      43.309 -15.361   5.048  1.00  0.00     0.092 A 
HETATM    8 BR   UNL     1      44.357 -14.829   6.506  1.00  0.00    -0.044 Br
HETATM    9  C   UNL     1      41.386 -14.930   2.056  1.00  0.00     0.221 C 
HETATM   10  C   UNL     1      41.862 -13.529   1.624  1.00  0.00     0.066 C 
HETATM   11  H   UNL     1      43.359 -12.602   4.494  1.00  0.00     0.162 HD
ENDROOT
BRANCH   6  12
HETATM   12  C   UNL     1      43.031 -17.915   5.513  1.00  0.00     0.273 C 
HETATM   13  N   UNL     1      44.215 -18.552   5.213  1.00  0.00    -0.353 N 
HETATM   14  H   UNL     1      44.762 -18.136   4.462  1.00  0.00     0.162 HD
HETATM   15  O   UNL     1      42.209 -18.368   6.303  1.00  0.00    -0.266 OA
BRANCH  13  16
HETATM   16  C   UNL     1      44.548 -19.890   5.655  1.00  0.00     0.155 C 
BRANCH  16  17
HETATM   17  C   UNL     1      45.347 -20.693   4.616  1.00  0.00     0.139 C 
HETATM   18  O   UNL     1      44.813 -20.437   3.299  1.00  0.00    -0.384 OA
HETATM   19  C   UNL     1      44.457 -21.687   2.697  1.00  0.00     0.168 C 
HETATM   20  C   UNL     1      44.325 -22.693   3.816  1.00  0.00     0.029 C 
HETATM   21  C   UNL     1      45.343 -22.204   4.814  1.00  0.00     0.035 C 
ENDBRANCH  16  17
ENDBRANCH  13  16
ENDBRANCH   6  12
BRANCH   9  22
HETATM   22  C   UNL     1      39.890 -15.033   2.273  1.00  0.00     0.409 C 
HETATM   23  F   UNL     1      39.505 -14.809   3.542  1.00  0.00    -0.169 F 
HETATM   24  F   UNL     1      39.242 -14.130   1.490  1.00  0.00    -0.169 F 
HETATM   25  F   UNL     1      39.413 -16.249   1.917  1.00  0.00    -0.169 F 
ENDBRANCH   9  22
BRANCH   1  26
HETATM   26  C   UNL     1      40.864 -11.910   3.373  1.00  0.00    -0.035 A 
HETATM   27  C   UNL     1      39.901 -11.263   2.580  1.00  0.00     0.009 A 
HETATM   28  C   UNL     1      38.765 -10.684   3.152  1.00  0.00     0.001 A 
HETATM   29  C   UNL     1      38.565 -10.750   4.527  1.00  0.00     0.000 A 
HETATM   30  C   UNL     1      39.496 -11.399   5.331  1.00  0.00     0.001 A 
HETATM   31  C   UNL     1      40.632 -11.978   4.759  1.00  0.00     0.009 A 
ENDBRANCH   1  26
TORSDOF 5
ENDMDL
