MODEL 1
REMARK VINA RESULT:      -7.8      0.000      0.000
REMARK  5 active torsions:
REMARK  status: ('A' for Active; 'I' for Inactive)
REMARK    1  A    between atoms: C_8  and  N_9 
REMARK       I    between atoms: N_9  and  C_10 
REMARK    2  A    between atoms: C_10  and  C_11 
REMARK    3  A    between atoms: C_11  and  N_12 
REMARK    4  A    between atoms: N_12  and  C_13 
REMARK    5  A    between atoms: C_13  and  C_14 
ROOT
HETATM    1  C   UNL     1      41.498 -16.957   1.109  1.00  0.00     0.372 C 
ENDROOT
BRANCH   1   2
HETATM    2  C   UNL     1      40.600 -16.153   2.064  1.00  0.00     0.250 C 
HETATM    3  N   UNL     1      41.254 -15.806   3.227  1.00  0.00    -0.322 N 
HETATM    4  H   UNL     1      42.222 -16.113   3.270  1.00  0.00     0.169 HD
HETATM    5  O   UNL     1      39.453 -15.862   1.743  1.00  0.00    -0.271 OA
BRANCH   3   6
HETATM    6  C   UNL     1      40.751 -15.129   4.322  1.00  0.00     0.085 A 
HETATM    7  C   UNL     1      40.766 -15.691   5.586  1.00  0.00     0.052 A 
HETATM    8  C   UNL     1      41.252 -16.993   6.099  1.00  0.00     0.072 C 
HETATM    9  N   UNL     1      40.191 -14.767   6.412  1.00  0.00    -0.280 N 
HETATM   10  H   UNL     1      40.032 -14.833   7.411  1.00  0.00     0.189 HD
HETATM   11  N   UNL     1      39.802 -13.653   5.789  1.00  0.00    -0.177 NA
HETATM   12  C   UNL     1      40.139 -13.855   4.505  1.00  0.00     0.079 A 
HETATM   13  C   UNL     1      39.827 -12.781   3.528  1.00  0.00     0.075 C 
ENDBRANCH   3   6
ENDBRANCH   1   2
BRANCH   1  14
HETATM   14  N   UNL     1      41.873 -18.258   1.717  1.00  0.00     0.100 N 
HETATM   15  H   UNL     1      41.380 -18.989   1.198  1.00  0.00     0.317 HD
BRANCH  14  16
HETATM   16  C   UNL     1      43.318 -18.555   1.630  1.00  0.00     0.250 C 
HETATM   17  C   UNL     1      44.154 -17.291   1.381  1.00  0.00     0.048 C 
BRANCH  16  18
HETATM   18  C   UNL     1      43.806 -19.455   2.757  1.00  0.00    -0.024 A 
HETATM   19  C   UNL     1      43.839 -19.043   4.101  1.00  0.00     0.036 A 
HETATM   20  C   UNL     1      44.294 -19.907   5.101  1.00  0.00     0.073 A 
HETATM   21 CL   UNL     1      44.325 -19.366   6.735  1.00  0.00    -0.081 Cl
HETATM   22  C   UNL     1      44.716 -21.191   4.771  1.00  0.00     0.138 A 
HETATM   23  F   UNL     1      45.160 -22.033   5.716  1.00  0.00    -0.204 F 
HETATM   24  C   UNL     1      44.683 -21.625   3.451  1.00  0.00     0.044 A 
HETATM   25  C   UNL     1      44.227 -20.764   2.451  1.00  0.00     0.012 A 
ENDBRANCH  16  18
ENDBRANCH  14  16
ENDBRANCH   1  14
TORSDOF 5
ENDMDL
MODEL 2
REMARK VINA RESULT:      -7.8      2.423      4.171
REMARK  5 active torsions:
REMARK  status: ('A' for Active; 'I' for Inactive)
REMARK    1  A    between atoms: C_8  and  N_9 
REMARK       I    between atoms: N_9  and  C_10 
REMARK    2  A    between atoms: C_10  and  C_11 
REMARK    3  A    between atoms: C_11  and  N_12 
REMARK    4  A    between atoms: N_12  and  C_13 
REMARK    5  A    between atoms: C_13  and  C_14 
ROOT
HETATM    1  C   UNL     1      42.370 -16.410   5.733  1.00  0.00     0.372 C 
ENDROOT
BRANCH   1   2
HETATM    2  C   UNL     1      42.457 -15.877   4.293  1.00  0.00     0.250 C 
HETATM    3  N   UNL     1      41.616 -16.554   3.434  1.00  0.00    -0.322 N 
HETATM    4  H   UNL     1      41.061 -17.279   3.879  1.00  0.00     0.169 HD
HETATM    5  O   UNL     1      43.188 -14.932   4.022  1.00  0.00    -0.271 OA
BRANCH   3   6
HETATM    6  C   UNL     1      41.465 -16.380   2.071  1.00  0.00     0.085 A 
HETATM    7  C   UNL     1      40.379 -15.702   1.547  1.00  0.00     0.052 A 
HETATM    8  C   UNL     1      39.213 -15.040   2.175  1.00  0.00     0.072 C 
HETATM    9  N   UNL     1      40.542 -15.728   0.191  1.00  0.00    -0.280 N 
HETATM   10  H   UNL     1      39.940 -15.329  -0.520  1.00  0.00     0.189 HD
HETATM   11  N   UNL     1      41.641 -16.371  -0.209  1.00  0.00    -0.177 NA
HETATM   12  C   UNL     1      42.223 -16.777   0.931  1.00  0.00     0.079 A 
HETATM   13  C   UNL     1      43.490 -17.544   0.830  1.00  0.00     0.075 C 
ENDBRANCH   3   6
ENDBRANCH   1   2
BRANCH   1  14
HETATM   14  N   UNL     1      42.690 -17.859   5.773  1.00  0.00     0.100 N 
HETATM   15  H   UNL     1      42.098 -18.319   5.077  1.00  0.00     0.317 HD
BRANCH  14  16
HETATM   16  C   UNL     1      44.093 -18.163   5.426  1.00  0.00     0.250 C 
HETATM   17  C   UNL     1      45.067 -17.745   6.536  1.00  0.00     0.048 C 
BRANCH  16  18
HETATM   18  C   UNL     1      44.276 -19.576   4.887  1.00  0.00    -0.024 A 
HETATM   19  C   UNL     1      44.214 -19.882   3.516  1.00  0.00     0.036 A 
HETATM   20  C   UNL     1      44.391 -21.195   3.070  1.00  0.00     0.073 A 
HETATM   21 CL   UNL     1      44.303 -21.533   1.384  1.00  0.00    -0.081 Cl
HETATM   22  C   UNL     1      44.634 -22.214   3.986  1.00  0.00     0.138 A 
HETATM   23  F   UNL     1      44.801 -23.480   3.577  1.00  0.00    -0.204 F 
HETATM   24  C   UNL     1      44.710 -21.934   5.346  1.00  0.00     0.044 A 
HETATM   25  C   UNL     1      44.536 -20.623   5.793  1.00  0.00     0.012 A 
ENDBRANCH  16  18
ENDBRANCH  14  16
ENDBRANCH   1  14
TORSDOF 5
ENDMDL
MODEL 3
REMARK VINA RESULT:      -7.6      2.140      3.467
REMARK  5 active torsions:
REMARK  status: ('A' for Active; 'I' for Inactive)
REMARK    1  A    between atoms: C_8  and  N_9 
REMARK       I    between atoms: N_9  and  C_10 
REMARK    2  A    between atoms: C_10  and  C_11 
REMARK    3  A    between atoms: C_11  and  N_12 
REMARK    4  A    between atoms: N_12  and  C_13 
REMARK    5  A    between atoms: C_13  and  C_14 
ROOT
HETATM    1  C   UNL     1      41.790 -16.089   6.173  1.00  0.00     0.372 C 
ENDROOT
BRANCH   1   2
HETATM    2  C   UNL     1      41.615 -15.238   4.904  1.00  0.00     0.250 C 
HETATM    3  N   UNL     1      40.608 -15.714   4.091  1.00  0.00    -0.322 N 
HETATM    4  H   UNL     1      40.128 -16.532   4.455  1.00  0.00     0.169 HD
HETATM    5  O   UNL     1      42.306 -14.242   4.722  1.00  0.00    -0.271 OA
BRANCH   3   6
HETATM    6  C   UNL     1      40.204 -15.234   2.859  1.00  0.00     0.085 A 
HETATM    7  C   UNL     1      40.315 -16.002   1.714  1.00  0.00     0.052 A 
HETATM    8  C   UNL     1      40.818 -17.374   1.473  1.00  0.00     0.072 C 
HETATM    9  N   UNL     1      39.841 -15.225   0.696  1.00  0.00    -0.280 N 
HETATM   10  H   UNL     1      39.768 -15.458  -0.288  1.00  0.00     0.189 HD
HETATM   11  N   UNL     1      39.434 -14.015   1.084  1.00  0.00    -0.177 NA
HETATM   12  C   UNL     1      39.647 -14.001   2.410  1.00  0.00     0.079 A 
HETATM   13  C   UNL     1      39.298 -12.766   3.156  1.00  0.00     0.075 C 
ENDBRANCH   3   6
ENDBRANCH   1   2
BRANCH   1  14
HETATM   14  N   UNL     1      42.253 -17.455   5.824  1.00  0.00     0.100 N 
HETATM   15  H   UNL     1      41.690 -17.773   5.031  1.00  0.00     0.317 HD
BRANCH  14  16
HETATM   16  C   UNL     1      43.669 -17.510   5.406  1.00  0.00     0.250 C 
HETATM   17  C   UNL     1      44.627 -17.211   6.569  1.00  0.00     0.048 C 
BRANCH  16  18
HETATM   18  C   UNL     1      43.997 -18.750   4.586  1.00  0.00    -0.024 A 
HETATM   19  C   UNL     1      44.440 -19.952   5.166  1.00  0.00     0.036 A 
HETATM   20  C   UNL     1      44.727 -21.064   4.370  1.00  0.00     0.073 A 
HETATM   21 CL   UNL     1      45.272 -22.518   5.115  1.00  0.00    -0.081 Cl
HETATM   22  C   UNL     1      44.571 -20.990   2.989  1.00  0.00     0.138 A 
HETATM   23  F   UNL     1      44.845 -22.046   2.209  1.00  0.00    -0.204 F 
HETATM   24  C   UNL     1      44.125 -19.816   2.393  1.00  0.00     0.044 A 
HETATM   25  C   UNL     1      43.835 -18.705   3.187  1.00  0.00     0.012 A 
ENDBRANCH  16  18
ENDBRANCH  14  16
ENDBRANCH   1  14
TORSDOF 5
ENDMDL
MODEL 4
REMARK VINA RESULT:      -7.5      2.107      4.384
REMARK  5 active torsions:
REMARK  status: ('A' for Active; 'I' for Inactive)
REMARK    1  A    between atoms: C_8  and  N_9 
REMARK       I    between atoms: N_9  and  C_10 
REMARK    2  A    between atoms: C_10  and  C_11 
REMARK    3  A    between atoms: C_11  and  N_12 
REMARK    4  A    between atoms: N_12  and  C_13 
REMARK    5  A    between atoms: C_13  and  C_14 
ROOT
HETATM    1  C   UNL     1      40.874 -16.019   5.847  1.00  0.00     0.372 C 
ENDROOT
BRANCH   1   2
HETATM    2  C   UNL     1      41.037 -15.436   4.434  1.00  0.00     0.250 C 
HETATM    3  N   UNL     1      40.868 -16.391   3.453  1.00  0.00    -0.322 N 
HETATM    4  H   UNL     1      40.648 -17.318   3.805  1.00  0.00     0.169 HD
HETATM    5  O   UNL     1      41.257 -14.241   4.275  1.00  0.00    -0.271 OA
BRANCH   3   6
HETATM    6  C   UNL     1      40.988 -16.241   2.084  1.00  0.00     0.085 A 
HETATM    7  C   UNL     1      40.028 -15.573   1.345  1.00  0.00     0.052 A 
HETATM    8  C   UNL     1      38.761 -14.903   1.720  1.00  0.00     0.072 C 
HETATM    9  N   UNL     1      40.453 -15.623   0.049  1.00  0.00    -0.280 N 
HETATM   10  H   UNL     1      40.003 -15.237  -0.775  1.00  0.00     0.189 HD
HETATM   11  N   UNL     1      41.609 -16.270  -0.117  1.00  0.00    -0.177 NA
HETATM   12  C   UNL     1      41.955 -16.655   1.122  1.00  0.00     0.079 A 
HETATM   13  C   UNL     1      43.216 -17.422   1.284  1.00  0.00     0.075 C 
ENDBRANCH   3   6
ENDBRANCH   1   2
BRANCH   1  14
HETATM   14  N   UNL     1      41.999 -15.597   6.718  1.00  0.00     0.100 N 
HETATM   15  H   UNL     1      41.900 -16.098   7.605  1.00  0.00     0.317 HD
BRANCH  14  16
HETATM   16  C   UNL     1      43.328 -15.932   6.169  1.00  0.00     0.250 C 
HETATM   17  C   UNL     1      44.443 -15.081   6.794  1.00  0.00     0.048 C 
BRANCH  16  18
HETATM   18  C   UNL     1      43.590 -17.432   6.127  1.00  0.00    -0.024 A 
HETATM   19  C   UNL     1      43.914 -18.116   4.942  1.00  0.00     0.036 A 
HETATM   20  C   UNL     1      44.147 -19.493   4.955  1.00  0.00     0.073 A 
HETATM   21 CL   UNL     1      44.536 -20.298   3.483  1.00  0.00    -0.081 Cl
HETATM   22  C   UNL     1      44.065 -20.202   6.150  1.00  0.00     0.138 A 
HETATM   23  F   UNL     1      44.281 -21.525   6.181  1.00  0.00    -0.204 F 
HETATM   24  C   UNL     1      43.756 -19.546   7.336  1.00  0.00     0.044 A 
HETATM   25  C   UNL     1      43.525 -18.169   7.326  1.00  0.00     0.012 A 
ENDBRANCH  16  18
ENDBRANCH  14  16
ENDBRANCH   1  14
TORSDOF 5
ENDMDL
MODEL 5
REMARK VINA RESULT:      -7.4      1.992      2.485
REMARK  5 active torsions:
REMARK  status: ('A' for Active; 'I' for Inactive)
REMARK    1  A    between atoms: C_8  and  N_9 
REMARK       I    between atoms: N_9  and  C_10 
REMARK    2  A    between atoms: C_10  and  C_11 
REMARK    3  A    between atoms: C_11  and  N_12 
REMARK    4  A    between atoms: N_12  and  C_13 
REMARK    5  A    between atoms: C_13  and  C_14 
ROOT
HETATM    1  C   UNL     1      41.973 -14.816   1.487  1.00  0.00     0.372 C 
ENDROOT
BRANCH   1   2
HETATM    2  C   UNL     1      41.800 -14.072   2.822  1.00  0.00     0.250 C 
HETATM    3  N   UNL     1      40.561 -14.293   3.386  1.00  0.00    -0.322 N 
HETATM    4  H   UNL     1      39.965 -14.919   2.852  1.00  0.00     0.169 HD
HETATM    5  O   UNL     1      42.717 -13.404   3.286  1.00  0.00    -0.271 OA
BRANCH   3   6
HETATM    6  C   UNL     1      40.042 -13.756   4.549  1.00  0.00     0.085 A 
HETATM    7  C   UNL     1      40.169 -14.406   5.763  1.00  0.00     0.052 A 
HETATM    8  C   UNL     1      40.807 -15.684   6.153  1.00  0.00     0.072 C 
HETATM    9  N   UNL     1      39.543 -13.611   6.679  1.00  0.00    -0.280 N 
HETATM   10  H   UNL     1      39.436 -13.767   7.676  1.00  0.00     0.189 HD
HETATM   11  N   UNL     1      39.016 -12.500   6.161  1.00  0.00    -0.177 NA
HETATM   12  C   UNL     1      39.314 -12.569   4.853  1.00  0.00     0.079 A 
HETATM   13  C   UNL     1      38.852 -11.464   3.976  1.00  0.00     0.075 C 
ENDBRANCH   3   6
ENDBRANCH   1   2
BRANCH   1  14
HETATM   14  N   UNL     1      42.797 -16.036   1.673  1.00  0.00     0.100 N 
HETATM   15  H   UNL     1      43.510 -15.816   2.374  1.00  0.00     0.317 HD
BRANCH  14  16
HETATM   16  C   UNL     1      42.031 -17.195   2.173  1.00  0.00     0.250 C 
HETATM   17  C   UNL     1      40.963 -17.658   1.172  1.00  0.00     0.048 C 
BRANCH  16  18
HETATM   18  C   UNL     1      42.921 -18.294   2.740  1.00  0.00    -0.024 A 
HETATM   19  C   UNL     1      43.211 -19.477   2.037  1.00  0.00     0.036 A 
HETATM   20  C   UNL     1      44.036 -20.455   2.599  1.00  0.00     0.073 A 
HETATM   21 CL   UNL     1      44.364 -21.894   1.712  1.00  0.00    -0.081 Cl
HETATM   22  C   UNL     1      44.582 -20.262   3.864  1.00  0.00     0.138 A 
HETATM   23  F   UNL     1      45.372 -21.191   4.421  1.00  0.00    -0.204 F 
HETATM   24  C   UNL     1      44.319 -19.096   4.574  1.00  0.00     0.044 A 
HETATM   25  C   UNL     1      43.497 -18.116   4.013  1.00  0.00     0.012 A 
ENDBRANCH  16  18
ENDBRANCH  14  16
ENDBRANCH   1  14
TORSDOF 5
ENDMDL
MODEL 6
REMARK VINA RESULT:      -7.4      3.647      5.247
REMARK  5 active torsions:
REMARK  status: ('A' for Active; 'I' for Inactive)
REMARK    1  A    between atoms: C_8  and  N_9 
REMARK       I    between atoms: N_9  and  C_10 
REMARK    2  A    between atoms: C_10  and  C_11 
REMARK    3  A    between atoms: C_11  and  N_12 
REMARK    4  A    between atoms: N_12  and  C_13 
REMARK    5  A    between atoms: C_13  and  C_14 
ROOT
HETATM    1  C   UNL     1      41.478 -17.049   0.813  1.00  0.00     0.372 C 
ENDROOT
BRANCH   1   2
HETATM    2  C   UNL     1      41.019 -15.762   0.108  1.00  0.00     0.250 C 
HETATM    3  N   UNL     1      41.252 -15.800  -1.251  1.00  0.00    -0.322 N 
HETATM    4  H   UNL     1      41.669 -16.666  -1.580  1.00  0.00     0.169 HD
HETATM    5  O   UNL     1      40.483 -14.862   0.743  1.00  0.00    -0.271 OA
BRANCH   3   6
HETATM    6  C   UNL     1      41.013 -14.812  -2.187  1.00  0.00     0.085 A 
HETATM    7  C   UNL     1      40.177 -15.029  -3.268  1.00  0.00     0.052 A 
HETATM    8  C   UNL     1      39.385 -16.202  -3.702  1.00  0.00     0.072 C 
HETATM    9  N   UNL     1      40.180 -13.864  -3.981  1.00  0.00    -0.280 N 
HETATM   10  H   UNL     1      39.679 -13.652  -4.837  1.00  0.00     0.189 HD
HETATM   11  N   UNL     1      40.951 -12.910  -3.456  1.00  0.00    -0.177 NA
HETATM   12  C   UNL     1      41.470 -13.471  -2.353  1.00  0.00     0.079 A 
HETATM   13  C   UNL     1      42.398 -12.656  -1.529  1.00  0.00     0.075 C 
ENDBRANCH   3   6
ENDBRANCH   1   2
BRANCH   1  14
HETATM   14  N   UNL     1      42.780 -16.836   1.492  1.00  0.00     0.100 N 
HETATM   15  H   UNL     1      43.041 -15.857   1.346  1.00  0.00     0.317 HD
BRANCH  14  16
HETATM   16  C   UNL     1      42.730 -17.064   2.951  1.00  0.00     0.250 C 
HETATM   17  C   UNL     1      41.309 -16.909   3.512  1.00  0.00     0.048 C 
BRANCH  16  18
HETATM   18  C   UNL     1      43.472 -18.324   3.378  1.00  0.00    -0.024 A 
HETATM   19  C   UNL     1      43.664 -19.422   2.522  1.00  0.00     0.036 A 
HETATM   20  C   UNL     1      44.354 -20.556   2.961  1.00  0.00     0.073 A 
HETATM   21 CL   UNL     1      44.566 -21.884   1.886  1.00  0.00    -0.081 Cl
HETATM   22  C   UNL     1      44.863 -20.603   4.255  1.00  0.00     0.138 A 
HETATM   23  F   UNL     1      45.524 -21.683   4.695  1.00  0.00    -0.204 F 
HETATM   24  C   UNL     1      44.695 -19.525   5.117  1.00  0.00     0.044 A 
HETATM   25  C   UNL     1      44.007 -18.391   4.680  1.00  0.00     0.012 A 
ENDBRANCH  16  18
ENDBRANCH  14  16
ENDBRANCH   1  14
TORSDOF 5
ENDMDL
MODEL 7
REMARK VINA RESULT:      -7.3      2.231      3.790
REMARK  5 active torsions:
REMARK  status: ('A' for Active; 'I' for Inactive)
REMARK    1  A    between atoms: C_8  and  N_9 
REMARK       I    between atoms: N_9  and  C_10 
REMARK    2  A    between atoms: C_10  and  C_11 
REMARK    3  A    between atoms: C_11  and  N_12 
REMARK    4  A    between atoms: N_12  and  C_13 
REMARK    5  A    between atoms: C_13  and  C_14 
ROOT
HETATM    1  C   UNL     1      42.570 -16.774   6.472  1.00  0.00     0.372 C 
ENDROOT
BRANCH   1   2
HETATM    2  C   UNL     1      41.475 -16.802   5.393  1.00  0.00     0.250 C 
HETATM    3  N   UNL     1      41.522 -15.694   4.573  1.00  0.00    -0.322 N 
HETATM    4  H   UNL     1      42.272 -15.044   4.791  1.00  0.00     0.169 HD
HETATM    5  O   UNL     1      40.706 -17.752   5.311  1.00  0.00    -0.271 OA
BRANCH   3   6
HETATM    6  C   UNL     1      40.673 -15.361   3.535  1.00  0.00     0.085 A 
HETATM    7  C   UNL     1      39.888 -14.223   3.581  1.00  0.00     0.052 A 
HETATM    8  C   UNL     1      39.731 -13.155   4.594  1.00  0.00     0.072 C 
HETATM    9  N   UNL     1      39.178 -14.212   2.415  1.00  0.00    -0.280 N 
HETATM   10  H   UNL     1      38.500 -13.526   2.100  1.00  0.00     0.189 HD
HETATM   11  N   UNL     1      39.433 -15.250   1.616  1.00  0.00    -0.177 NA
HETATM   12  C   UNL     1      40.350 -15.967   2.285  1.00  0.00     0.079 A 
HETATM   13  C   UNL     1      40.848 -17.217   1.657  1.00  0.00     0.075 C 
ENDBRANCH   3   6
ENDBRANCH   1   2
BRANCH   1  14
HETATM   14  N   UNL     1      43.917 -16.831   5.851  1.00  0.00     0.100 N 
HETATM   15  H   UNL     1      44.497 -16.129   6.319  1.00  0.00     0.317 HD
BRANCH  14  16
HETATM   16  C   UNL     1      44.588 -18.136   6.014  1.00  0.00     0.250 C 
HETATM   17  C   UNL     1      44.249 -18.796   7.359  1.00  0.00     0.048 C 
BRANCH  16  18
HETATM   18  C   UNL     1      44.451 -19.030   4.789  1.00  0.00    -0.024 A 
HETATM   19  C   UNL     1      44.659 -20.420   4.833  1.00  0.00     0.036 A 
HETATM   20  C   UNL     1      44.519 -21.198   3.681  1.00  0.00     0.073 A 
HETATM   21 CL   UNL     1      44.787 -22.897   3.772  1.00  0.00    -0.081 Cl
HETATM   22  C   UNL     1      44.167 -20.600   2.476  1.00  0.00     0.138 A 
HETATM   23  F   UNL     1      44.033 -21.330   1.359  1.00  0.00    -0.204 F 
HETATM   24  C   UNL     1      43.946 -19.229   2.409  1.00  0.00     0.044 A 
HETATM   25  C   UNL     1      44.083 -18.450   3.559  1.00  0.00     0.012 A 
ENDBRANCH  16  18
ENDBRANCH  14  16
ENDBRANCH   1  14
TORSDOF 5
ENDMDL
MODEL 8
REMARK VINA RESULT:      -7.3      3.639      4.742
REMARK  5 active torsions:
REMARK  status: ('A' for Active; 'I' for Inactive)
REMARK    1  A    between atoms: C_8  and  N_9 
REMARK       I    between atoms: N_9  and  C_10 
REMARK    2  A    between atoms: C_10  and  C_11 
REMARK    3  A    between atoms: C_11  and  N_12 
REMARK    4  A    between atoms: N_12  and  C_13 
REMARK    5  A    between atoms: C_13  and  C_14 
ROOT
HETATM    1  C   UNL     1      44.301 -18.908   6.595  1.00  0.00     0.372 C 
ENDROOT
BRANCH   1   2
HETATM    2  C   UNL     1      43.659 -17.594   7.071  1.00  0.00     0.250 C 
HETATM    3  N   UNL     1      43.689 -16.616   6.099  1.00  0.00    -0.322 N 
HETATM    4  H   UNL     1      44.107 -16.912   5.221  1.00  0.00     0.169 HD
HETATM    5  O   UNL     1      43.167 -17.511   8.191  1.00  0.00    -0.271 OA
BRANCH   3   6
HETATM    6  C   UNL     1      43.250 -15.309   6.187  1.00  0.00     0.085 A 
HETATM    7  C   UNL     1      41.931 -14.972   5.941  1.00  0.00     0.052 A 
HETATM    8  C   UNL     1      40.744 -15.777   5.568  1.00  0.00     0.072 C 
HETATM    9  N   UNL     1      41.854 -13.619   6.105  1.00  0.00    -0.280 N 
HETATM   10  H   UNL     1      41.041 -13.020   6.006  1.00  0.00     0.189 HD
HETATM   11  N   UNL     1      43.014 -13.047   6.433  1.00  0.00    -0.177 NA
HETATM   12  C   UNL     1      43.884 -14.068   6.490  1.00  0.00     0.079 A 
HETATM   13  C   UNL     1      45.296 -13.760   6.831  1.00  0.00     0.075 C 
ENDBRANCH   3   6
ENDBRANCH   1   2
BRANCH   1  14
HETATM   14  N   UNL     1      43.535 -19.481   5.461  1.00  0.00     0.100 N 
HETATM   15  H   UNL     1      42.715 -18.886   5.316  1.00  0.00     0.317 HD
BRANCH  14  16
HETATM   16  C   UNL     1      44.290 -19.504   4.191  1.00  0.00     0.250 C 
HETATM   17  C   UNL     1      44.700 -20.928   3.788  1.00  0.00     0.048 C 
BRANCH  16  18
HETATM   18  C   UNL     1      43.632 -18.674   3.096  1.00  0.00    -0.024 A 
HETATM   19  C   UNL     1      42.299 -18.234   3.171  1.00  0.00     0.036 A 
HETATM   20  C   UNL     1      41.741 -17.472   2.141  1.00  0.00     0.073 A 
HETATM   21 CL   UNL     1      40.103 -16.955   2.265  1.00  0.00    -0.081 Cl
HETATM   22  C   UNL     1      42.507 -17.139   1.028  1.00  0.00     0.138 A 
HETATM   23  F   UNL     1      41.987 -16.414   0.028  1.00  0.00    -0.204 F 
HETATM   24  C   UNL     1      43.830 -17.555   0.936  1.00  0.00     0.044 A 
HETATM   25  C   UNL     1      44.391 -18.313   1.965  1.00  0.00     0.012 A 
ENDBRANCH  16  18
ENDBRANCH  14  16
ENDBRANCH   1  14
TORSDOF 5
ENDMDL
MODEL 9
REMARK VINA RESULT:      -7.2      3.239      4.466
REMARK  5 active torsions:
REMARK  status: ('A' for Active; 'I' for Inactive)
REMARK    1  A    between atoms: C_8  and  N_9 
REMARK       I    between atoms: N_9  and  C_10 
REMARK    2  A    between atoms: C_10  and  C_11 
REMARK    3  A    between atoms: C_11  and  N_12 
REMARK    4  A    between atoms: N_12  and  C_13 
REMARK    5  A    between atoms: C_13  and  C_14 
ROOT
HETATM    1  C   UNL     1      43.575 -16.385   7.646  1.00  0.00     0.372 C 
ENDROOT
BRANCH   1   2
HETATM    2  C   UNL     1      43.850 -15.245   6.652  1.00  0.00     0.250 C 
HETATM    3  N   UNL     1      42.829 -15.091   5.738  1.00  0.00    -0.322 N 
HETATM    4  H   UNL     1      42.052 -15.733   5.867  1.00  0.00     0.169 HD
HETATM    5  O   UNL     1      44.868 -14.569   6.746  1.00  0.00    -0.271 OA
BRANCH   3   6
HETATM    6  C   UNL     1      42.755 -14.206   4.679  1.00  0.00     0.085 A 
HETATM    7  C   UNL     1      42.227 -12.937   4.835  1.00  0.00     0.052 A 
HETATM    8  C   UNL     1      41.664 -12.223   6.004  1.00  0.00     0.072 C 
HETATM    9  N   UNL     1      42.299 -12.348   3.605  1.00  0.00    -0.280 N 
HETATM   10  H   UNL     1      42.004 -11.415   3.338  1.00  0.00     0.189 HD
HETATM   11  N   UNL     1      42.825 -13.131   2.661  1.00  0.00    -0.177 NA
HETATM   12  C   UNL     1      43.115 -14.276   3.301  1.00  0.00     0.079 A 
HETATM   13  C   UNL     1      43.719 -15.378   2.513  1.00  0.00     0.075 C 
ENDBRANCH   3   6
ENDBRANCH   1   2
BRANCH   1  14
HETATM   14  N   UNL     1      42.959 -17.544   6.952  1.00  0.00     0.100 N 
HETATM   15  H   UNL     1      42.606 -17.206   6.053  1.00  0.00     0.317 HD
BRANCH  14  16
HETATM   16  C   UNL     1      43.911 -18.637   6.669  1.00  0.00     0.250 C 
HETATM   17  C   UNL     1      43.840 -19.753   7.721  1.00  0.00     0.048 C 
BRANCH  16  18
HETATM   18  C   UNL     1      43.869 -19.097   5.218  1.00  0.00    -0.024 A 
HETATM   19  C   UNL     1      43.002 -18.534   4.265  1.00  0.00     0.036 A 
HETATM   20  C   UNL     1      43.002 -18.989   2.944  1.00  0.00     0.073 A 
HETATM   21 CL   UNL     1      41.922 -18.279   1.806  1.00  0.00    -0.081 Cl
HETATM   22  C   UNL     1      43.869 -20.007   2.559  1.00  0.00     0.138 A 
HETATM   23  F   UNL     1      43.881 -20.460   1.297  1.00  0.00    -0.204 F 
HETATM   24  C   UNL     1      44.743 -20.572   3.480  1.00  0.00     0.044 A 
HETATM   25  C   UNL     1      44.746 -20.117   4.800  1.00  0.00     0.012 A 
ENDBRANCH  16  18
ENDBRANCH  14  16
ENDBRANCH   1  14
TORSDOF 5
ENDMDL
MODEL 10
REMARK VINA RESULT:      -7.2      3.301      6.074
REMARK  5 active torsions:
REMARK  status: ('A' for Active; 'I' for Inactive)
REMARK    1  A    between atoms: C_8  and  N_9 
REMARK       I    between atoms: N_9  and  C_10 
REMARK    2  A    between atoms: C_10  and  C_11 
REMARK    3  A    between atoms: C_11  and  N_12 
REMARK    4  A    between atoms: N_12  and  C_13 
REMARK    5  A    between atoms: C_13  and  C_14 
ROOT
HETATM    1  C   UNL     1      41.989 -17.029   0.722  1.00  0.00     0.372 C 
ENDROOT
BRANCH   1   2
HETATM    2  C   UNL     1      43.205 -17.696   1.388  1.00  0.00     0.250 C 
HETATM    3  N   UNL     1      42.847 -18.782   2.160  1.00  0.00    -0.322 N 
HETATM    4  H   UNL     1      41.852 -18.985   2.159  1.00  0.00     0.169 HD
HETATM    5  O   UNL     1      44.337 -17.275   1.180  1.00  0.00    -0.271 OA
BRANCH   3   6
HETATM    6  C   UNL     1      43.662 -19.586   2.934  1.00  0.00     0.085 A 
HETATM    7  C   UNL     1      44.122 -19.169   4.170  1.00  0.00     0.052 A 
HETATM    8  C   UNL     1      43.920 -17.925   4.947  1.00  0.00     0.072 C 
HETATM    9  N   UNL     1      44.895 -20.190   4.644  1.00  0.00    -0.280 N 
HETATM   10  H   UNL     1      45.397 -20.241   5.524  1.00  0.00     0.189 HD
HETATM   11  N   UNL     1      44.979 -21.235   3.817  1.00  0.00    -0.177 NA
HETATM   12  C   UNL     1      44.226 -20.884   2.762  1.00  0.00     0.079 A 
HETATM   13  C   UNL     1      44.116 -21.846   1.637  1.00  0.00     0.075 C 
ENDBRANCH   3   6
ENDBRANCH   1   2
BRANCH   1  14
HETATM   14  N   UNL     1      42.298 -15.623   0.364  1.00  0.00     0.100 N 
HETATM   15  H   UNL     1      42.045 -15.497  -0.619  1.00  0.00     0.317 HD
BRANCH  14  16
HETATM   16  C   UNL     1      41.528 -14.632   1.146  1.00  0.00     0.250 C 
HETATM   17  C   UNL     1      40.018 -14.744   0.893  1.00  0.00     0.048 C 
BRANCH  16  18
HETATM   18  C   UNL     1      41.948 -14.577   2.608  1.00  0.00    -0.024 A 
HETATM   19  C   UNL     1      41.171 -15.123   3.645  1.00  0.00     0.036 A 
HETATM   20  C   UNL     1      41.601 -15.049   4.973  1.00  0.00     0.073 A 
HETATM   21 CL   UNL     1      40.620 -15.725   6.217  1.00  0.00    -0.081 Cl
HETATM   22  C   UNL     1      42.810 -14.432   5.279  1.00  0.00     0.138 A 
HETATM   23  F   UNL     1      43.236 -14.347   6.548  1.00  0.00    -0.204 F 
HETATM   24  C   UNL     1      43.601 -13.894   4.271  1.00  0.00     0.044 A 
HETATM   25  C   UNL     1      43.174 -13.969   2.943  1.00  0.00     0.012 A 
ENDBRANCH  16  18
ENDBRANCH  14  16
ENDBRANCH   1  14
TORSDOF 5
ENDMDL
