MODEL 1
REMARK VINA RESULT:      -8.8      0.000      0.000
REMARK  8 active torsions:
REMARK  status: ('A' for Active; 'I' for Inactive)
REMARK    1  A    between atoms: C_7  and  C_8 
REMARK    2  A    between atoms: C_8  and  O_9 
REMARK    3  A    between atoms: O_9  and  C_10 
REMARK    4  A    between atoms: C_12  and  C_13 
REMARK       I    between atoms: C_13  and  N_14 
REMARK    5  A    between atoms: N_14  and  C_15 
REMARK    6  A    between atoms: C_15  and  C_16 
REMARK    7  A    between atoms: C_17  and  C_18 
REMARK    8  A    between atoms: C_18  and  N_19 
ROOT
HETATM    1  C   UNL     1      44.735 -13.965   7.169  1.00  0.00     0.252 C 
HETATM    2  N   UNL     1      44.345 -13.375   8.358  1.00  0.00    -0.353 N 
HETATM    3  O   UNL     1      45.770 -13.659   6.589  1.00  0.00    -0.268 OA
HETATM    4  H   UNL     1      43.379 -13.499   8.640  1.00  0.00     0.163 HD
ENDROOT
BRANCH   1   5
HETATM    5  C   UNL     1      43.779 -14.935   6.580  1.00  0.00     0.034 A 
HETATM    6  C   UNL     1      44.092 -16.297   6.644  1.00  0.00     0.053 A 
HETATM    7  C   UNL     1      43.255 -17.246   6.049  1.00  0.00     0.070 A 
HETATM    8  C   UNL     1      42.075 -16.826   5.432  1.00  0.00     0.037 A 
HETATM    9  C   UNL     1      41.750 -15.465   5.387  1.00  0.00     0.004 A 
HETATM   10  C   UNL     1      42.602 -14.516   5.953  1.00  0.00     0.017 A 
BRANCH   7  11
HETATM   11  O   UNL     1      43.703 -18.533   6.138  1.00  0.00    -0.346 OA
BRANCH  11  12
HETATM   12  C   UNL     1      44.908 -18.864   5.445  1.00  0.00     0.219 C 
BRANCH  12  13
HETATM   13  C   UNL     1      44.609 -19.744   4.285  1.00  0.00     0.024 A 
HETATM   14  C   UNL     1      44.168 -19.381   2.983  1.00  0.00     0.069 A 
HETATM   15  C   UNL     1      43.887 -18.028   2.448  1.00  0.00     0.073 C 
HETATM   16  N   UNL     1      44.012 -20.454   2.201  1.00  0.00    -0.133 NA
HETATM   17  O   UNL     1      44.336 -21.543   2.985  1.00  0.00    -0.217 OA
HETATM   18  C   UNL     1      44.688 -21.119   4.226  1.00  0.00     0.085 A 
HETATM   19  C   UNL     1      45.059 -22.166   5.196  1.00  0.00     0.079 C 
ENDBRANCH  12  13
ENDBRANCH  11  12
ENDBRANCH   7  11
ENDBRANCH   1   5
BRANCH   2  20
HETATM   20  C   UNL     1      45.012 -12.161   8.757  1.00  0.00     0.162 C 
BRANCH  20  21
HETATM   21  C   UNL     1      44.144 -11.296   9.636  1.00  0.00    -0.033 A 
HETATM   22  C   UNL     1      42.911 -10.740   9.223  1.00  0.00    -0.025 A 
HETATM   23  C   UNL     1      42.206  -9.910  10.119  1.00  0.00     0.009 A 
HETATM   24  C   UNL     1      42.694  -9.648  11.399  1.00  0.00     0.001 A 
HETATM   25  C   UNL     1      43.897 -10.208  11.808  1.00  0.00     0.001 A 
HETATM   26  C   UNL     1      44.615 -11.022  10.936  1.00  0.00     0.009 A 
BRANCH  22  27
HETATM   27  C   UNL     1      42.294 -11.009   7.869  1.00  0.00     0.274 C 
BRANCH  27  28
HETATM   28  N   UNL     1      40.907 -10.423   7.698  1.00  0.00    -0.067 N 
HETATM   29  H   UNL     1      40.836  -9.628   8.344  1.00  0.00     0.280 HD
HETATM   30  C   UNL     1      39.806 -11.398   8.032  1.00  0.00     0.235 C 
HETATM   31  C   UNL     1      39.554 -12.111   6.721  1.00  0.00     0.029 C 
HETATM   32  C   UNL     1      39.822 -11.073   5.643  1.00  0.00     0.029 C 
HETATM   33  C   UNL     1      40.572  -9.931   6.314  1.00  0.00     0.235 C 
ENDBRANCH  27  28
ENDBRANCH  22  27
ENDBRANCH  20  21
ENDBRANCH   2  20
TORSDOF 8
ENDMDL
MODEL 2
REMARK VINA RESULT:      -8.8      5.100      8.892
REMARK  8 active torsions:
REMARK  status: ('A' for Active; 'I' for Inactive)
REMARK    1  A    between atoms: C_7  and  C_8 
REMARK    2  A    between atoms: C_8  and  O_9 
REMARK    3  A    between atoms: O_9  and  C_10 
REMARK    4  A    between atoms: C_12  and  C_13 
REMARK       I    between atoms: C_13  and  N_14 
REMARK    5  A    between atoms: N_14  and  C_15 
REMARK    6  A    between atoms: C_15  and  C_16 
REMARK    7  A    between atoms: C_17  and  C_18 
REMARK    8  A    between atoms: C_18  and  N_19 
ROOT
HETATM    1  C   UNL     1      41.049 -15.263   3.762  1.00  0.00     0.252 C 
HETATM    2  N   UNL     1      40.813 -16.610   3.555  1.00  0.00    -0.353 N 
HETATM    3  O   UNL     1      41.919 -14.855   4.522  1.00  0.00    -0.268 OA
HETATM    4  H   UNL     1      39.935 -16.862   3.115  1.00  0.00     0.163 HD
ENDROOT
BRANCH   1   5
HETATM    5  C   UNL     1      40.123 -14.327   3.077  1.00  0.00     0.034 A 
HETATM    6  C   UNL     1      39.554 -14.727   1.862  1.00  0.00     0.053 A 
HETATM    7  C   UNL     1      38.726 -13.857   1.147  1.00  0.00     0.070 A 
HETATM    8  C   UNL     1      38.430 -12.601   1.681  1.00  0.00     0.037 A 
HETATM    9  C   UNL     1      38.981 -12.209   2.906  1.00  0.00     0.004 A 
HETATM   10  C   UNL     1      39.834 -13.065   3.603  1.00  0.00     0.017 A 
BRANCH   7  11
HETATM   11  O   UNL     1      38.280 -14.351  -0.046  1.00  0.00    -0.346 OA
BRANCH  11  12
HETATM   12  C   UNL     1      38.438 -13.528  -1.203  1.00  0.00     0.219 C 
BRANCH  12  13
HETATM   13  C   UNL     1      39.304 -14.206  -2.202  1.00  0.00     0.024 A 
HETATM   14  C   UNL     1      40.719 -14.337  -2.209  1.00  0.00     0.069 A 
HETATM   15  C   UNL     1      41.699 -13.825  -1.222  1.00  0.00     0.073 C 
HETATM   16  N   UNL     1      41.142 -15.025  -3.275  1.00  0.00    -0.133 NA
HETATM   17  O   UNL     1      40.008 -15.344  -3.993  1.00  0.00    -0.217 OA
HETATM   18  C   UNL     1      38.914 -14.854  -3.355  1.00  0.00     0.085 A 
HETATM   19  C   UNL     1      37.612 -15.103  -4.000  1.00  0.00     0.079 C 
ENDBRANCH  12  13
ENDBRANCH  11  12
ENDBRANCH   7  11
ENDBRANCH   1   5
BRANCH   2  20
HETATM   20  C   UNL     1      41.394 -17.546   4.485  1.00  0.00     0.162 C 
BRANCH  20  21
HETATM   21  C   UNL     1      42.482 -18.377   3.852  1.00  0.00    -0.033 A 
HETATM   22  C   UNL     1      43.415 -19.144   4.586  1.00  0.00    -0.025 A 
HETATM   23  C   UNL     1      44.416 -19.849   3.885  1.00  0.00     0.009 A 
HETATM   24  C   UNL     1      44.487 -19.812   2.493  1.00  0.00     0.001 A 
HETATM   25  C   UNL     1      43.560 -19.070   1.773  1.00  0.00     0.001 A 
HETATM   26  C   UNL     1      42.569 -18.359   2.445  1.00  0.00     0.009 A 
BRANCH  22  27
HETATM   27  C   UNL     1      43.381 -19.270   6.092  1.00  0.00     0.274 C 
BRANCH  27  28
HETATM   28  N   UNL     1      44.455 -18.470   6.800  1.00  0.00    -0.067 N 
HETATM   29  H   UNL     1      45.345 -18.955   6.638  1.00  0.00     0.280 HD
HETATM   30  C   UNL     1      44.237 -18.373   8.289  1.00  0.00     0.235 C 
HETATM   31  C   UNL     1      43.368 -17.144   8.441  1.00  0.00     0.029 C 
HETATM   32  C   UNL     1      43.799 -16.207   7.323  1.00  0.00     0.029 C 
HETATM   33  C   UNL     1      44.613 -17.041   6.345  1.00  0.00     0.235 C 
ENDBRANCH  27  28
ENDBRANCH  22  27
ENDBRANCH  20  21
ENDBRANCH   2  20
TORSDOF 8
ENDMDL
MODEL 3
REMARK VINA RESULT:      -8.7      5.021      8.817
REMARK  8 active torsions:
REMARK  status: ('A' for Active; 'I' for Inactive)
REMARK    1  A    between atoms: C_7  and  C_8 
REMARK    2  A    between atoms: C_8  and  O_9 
REMARK    3  A    between atoms: O_9  and  C_10 
REMARK    4  A    between atoms: C_12  and  C_13 
REMARK       I    between atoms: C_13  and  N_14 
REMARK    5  A    between atoms: N_14  and  C_15 
REMARK    6  A    between atoms: C_15  and  C_16 
REMARK    7  A    between atoms: C_17  and  C_18 
REMARK    8  A    between atoms: C_18  and  N_19 
ROOT
HETATM    1  C   UNL     1      41.136 -15.305   3.810  1.00  0.00     0.252 C 
HETATM    2  N   UNL     1      40.811 -16.646   3.699  1.00  0.00    -0.353 N 
HETATM    3  O   UNL     1      42.106 -14.913   4.448  1.00  0.00    -0.268 OA
HETATM    4  H   UNL     1      39.878 -16.868   3.371  1.00  0.00     0.163 HD
ENDROOT
BRANCH   1   5
HETATM    5  C   UNL     1      40.189 -14.351   3.183  1.00  0.00     0.034 A 
HETATM    6  C   UNL     1      39.565 -14.724   1.987  1.00  0.00     0.053 A 
HETATM    7  C   UNL     1      38.712 -13.836   1.325  1.00  0.00     0.070 A 
HETATM    8  C   UNL     1      38.448 -12.588   1.894  1.00  0.00     0.037 A 
HETATM    9  C   UNL     1      39.054 -12.223   3.102  1.00  0.00     0.004 A 
HETATM   10  C   UNL     1      39.931 -13.098   3.745  1.00  0.00     0.017 A 
BRANCH   7  11
HETATM   11  O   UNL     1      38.211 -14.305   0.144  1.00  0.00    -0.346 OA
BRANCH  11  12
HETATM   12  C   UNL     1      38.363 -13.478  -1.013  1.00  0.00     0.219 C 
BRANCH  12  13
HETATM   13  C   UNL     1      39.298 -14.112  -1.978  1.00  0.00     0.024 A 
HETATM   14  C   UNL     1      38.999 -14.807  -3.181  1.00  0.00     0.069 A 
HETATM   15  C   UNL     1      37.673 -15.083  -3.782  1.00  0.00     0.073 C 
HETATM   16  N   UNL     1      40.110 -15.231  -3.792  1.00  0.00    -0.133 NA
HETATM   17  O   UNL     1      41.158 -14.833  -2.988  1.00  0.00    -0.217 OA
HETATM   18  C   UNL     1      40.674 -14.169  -1.907  1.00  0.00     0.085 A 
HETATM   19  C   UNL     1      41.671 -13.679  -0.937  1.00  0.00     0.079 C 
ENDBRANCH  12  13
ENDBRANCH  11  12
ENDBRANCH   7  11
ENDBRANCH   1   5
BRANCH   2  20
HETATM   20  C   UNL     1      41.444 -17.569   4.606  1.00  0.00     0.162 C 
BRANCH  20  21
HETATM   21  C   UNL     1      42.516 -18.387   3.930  1.00  0.00    -0.033 A 
HETATM   22  C   UNL     1      43.439 -19.202   4.624  1.00  0.00    -0.025 A 
HETATM   23  C   UNL     1      44.427 -19.889   3.886  1.00  0.00     0.009 A 
HETATM   24  C   UNL     1      44.493 -19.788   2.498  1.00  0.00     0.001 A 
HETATM   25  C   UNL     1      43.575 -19.000   1.817  1.00  0.00     0.001 A 
HETATM   26  C   UNL     1      42.598 -18.305   2.525  1.00  0.00     0.009 A 
BRANCH  22  27
HETATM   27  C   UNL     1      43.410 -19.397   6.123  1.00  0.00     0.274 C 
BRANCH  27  28
HETATM   28  N   UNL     1      44.475 -18.616   6.866  1.00  0.00    -0.067 N 
HETATM   29  H   UNL     1      45.340 -19.166   6.814  1.00  0.00     0.280 HD
HETATM   30  C   UNL     1      44.142 -18.398   8.320  1.00  0.00     0.235 C 
HETATM   31  C   UNL     1      43.349 -17.109   8.314  1.00  0.00     0.029 C 
HETATM   32  C   UNL     1      43.933 -16.285   7.177  1.00  0.00     0.029 C 
HETATM   33  C   UNL     1      44.765 -17.237   6.331  1.00  0.00     0.235 C 
ENDBRANCH  27  28
ENDBRANCH  22  27
ENDBRANCH  20  21
ENDBRANCH   2  20
TORSDOF 8
ENDMDL
MODEL 4
REMARK VINA RESULT:      -8.7      5.037      8.871
REMARK  8 active torsions:
REMARK  status: ('A' for Active; 'I' for Inactive)
REMARK    1  A    between atoms: C_7  and  C_8 
REMARK    2  A    between atoms: C_8  and  O_9 
REMARK    3  A    between atoms: O_9  and  C_10 
REMARK    4  A    between atoms: C_12  and  C_13 
REMARK       I    between atoms: C_13  and  N_14 
REMARK    5  A    between atoms: N_14  and  C_15 
REMARK    6  A    between atoms: C_15  and  C_16 
REMARK    7  A    between atoms: C_17  and  C_18 
REMARK    8  A    between atoms: C_18  and  N_19 
ROOT
HETATM    1  C   UNL     1      41.980 -15.498   0.574  1.00  0.00     0.252 C 
HETATM    2  N   UNL     1      41.497 -15.895  -0.660  1.00  0.00    -0.353 N 
HETATM    3  O   UNL     1      42.074 -14.320   0.898  1.00  0.00    -0.268 OA
HETATM    4  H   UNL     1      41.679 -16.852  -0.940  1.00  0.00     0.163 HD
ENDROOT
BRANCH   1   5
HETATM    5  C   UNL     1      42.469 -16.583   1.461  1.00  0.00     0.034 A 
HETATM    6  C   UNL     1      41.881 -16.724   2.723  1.00  0.00     0.053 A 
HETATM    7  C   UNL     1      42.348 -17.689   3.619  1.00  0.00     0.070 A 
HETATM    8  C   UNL     1      43.377 -18.547   3.225  1.00  0.00     0.037 A 
HETATM    9  C   UNL     1      43.951 -18.422   1.955  1.00  0.00     0.004 A 
HETATM   10  C   UNL     1      43.505 -17.436   1.073  1.00  0.00     0.017 A 
BRANCH   7  11
HETATM   11  O   UNL     1      41.723 -17.686   4.834  1.00  0.00    -0.346 OA
BRANCH  11  12
HETATM   12  C   UNL     1      41.384 -16.418   5.400  1.00  0.00     0.219 C 
BRANCH  12  13
HETATM   13  C   UNL     1      42.591 -15.777   5.987  1.00  0.00     0.024 A 
HETATM   14  C   UNL     1      43.270 -14.604   5.562  1.00  0.00     0.069 A 
HETATM   15  C   UNL     1      42.953 -13.715   4.419  1.00  0.00     0.073 C 
HETATM   16  N   UNL     1      44.317 -14.332   6.349  1.00  0.00    -0.133 NA
HETATM   17  O   UNL     1      44.349 -15.335   7.295  1.00  0.00    -0.217 OA
HETATM   18  C   UNL     1      43.323 -16.197   7.077  1.00  0.00     0.085 A 
HETATM   19  C   UNL     1      43.218 -17.340   8.003  1.00  0.00     0.079 C 
ENDBRANCH  12  13
ENDBRANCH  11  12
ENDBRANCH   7  11
ENDBRANCH   1   5
BRANCH   2  20
HETATM   20  C   UNL     1      41.394 -14.898  -1.695  1.00  0.00     0.162 C 
BRANCH  20  21
HETATM   21  C   UNL     1      40.069 -14.955  -2.412  1.00  0.00    -0.033 A 
HETATM   22  C   UNL     1      38.935 -14.201  -2.033  1.00  0.00    -0.025 A 
HETATM   23  C   UNL     1      37.734 -14.371  -2.755  1.00  0.00     0.009 A 
HETATM   24  C   UNL     1      37.657 -15.249  -3.835  1.00  0.00     0.001 A 
HETATM   25  C   UNL     1      38.777 -15.977  -4.216  1.00  0.00     0.001 A 
HETATM   26  C   UNL     1      39.969 -15.833  -3.511  1.00  0.00     0.009 A 
BRANCH  22  27
HETATM   27  C   UNL     1      38.947 -13.198  -0.902  1.00  0.00     0.274 C 
BRANCH  27  28
HETATM   28  N   UNL     1      38.004 -13.540   0.233  1.00  0.00    -0.067 N 
HETATM   29  H   UNL     1      37.158 -13.937  -0.190  1.00  0.00     0.280 HD
HETATM   30  C   UNL     1      37.602 -12.339   1.051  1.00  0.00     0.235 C 
HETATM   31  C   UNL     1      38.679 -12.253   2.110  1.00  0.00     0.029 C 
HETATM   32  C   UNL     1      39.086 -13.692   2.385  1.00  0.00     0.029 C 
HETATM   33  C   UNL     1      38.529 -14.529   1.242  1.00  0.00     0.235 C 
ENDBRANCH  27  28
ENDBRANCH  22  27
ENDBRANCH  20  21
ENDBRANCH   2  20
TORSDOF 8
ENDMDL
MODEL 5
REMARK VINA RESULT:      -8.7      5.044      9.373
REMARK  8 active torsions:
REMARK  status: ('A' for Active; 'I' for Inactive)
REMARK    1  A    between atoms: C_7  and  C_8 
REMARK    2  A    between atoms: C_8  and  O_9 
REMARK    3  A    between atoms: O_9  and  C_10 
REMARK    4  A    between atoms: C_12  and  C_13 
REMARK       I    between atoms: C_13  and  N_14 
REMARK    5  A    between atoms: N_14  and  C_15 
REMARK    6  A    between atoms: C_15  and  C_16 
REMARK    7  A    between atoms: C_17  and  C_18 
REMARK    8  A    between atoms: C_18  and  N_19 
ROOT
HETATM    1  C   UNL     1      42.272 -16.847   1.546  1.00  0.00     0.252 C 
HETATM    2  N   UNL     1      42.886 -17.448   2.631  1.00  0.00    -0.353 N 
HETATM    3  O   UNL     1      42.661 -17.009   0.395  1.00  0.00    -0.268 OA
HETATM    4  H   UNL     1      42.666 -17.077   3.548  1.00  0.00     0.163 HD
ENDROOT
BRANCH   1   5
HETATM    5  C   UNL     1      41.161 -15.915   1.860  1.00  0.00     0.034 A 
HETATM    6  C   UNL     1      40.323 -15.506   0.818  1.00  0.00     0.053 A 
HETATM    7  C   UNL     1      39.301 -14.581   1.050  1.00  0.00     0.070 A 
HETATM    8  C   UNL     1      39.092 -14.105   2.347  1.00  0.00     0.037 A 
HETATM    9  C   UNL     1      39.916 -14.531   3.395  1.00  0.00     0.004 A 
HETATM   10  C   UNL     1      40.956 -15.429   3.155  1.00  0.00     0.017 A 
BRANCH   7  11
HETATM   11  O   UNL     1      38.592 -14.227  -0.062  1.00  0.00    -0.346 OA
BRANCH  11  12
HETATM   12  C   UNL     1      39.159 -13.236  -0.921  1.00  0.00     0.219 C 
BRANCH  12  13
HETATM   13  C   UNL     1      39.762 -13.878  -2.118  1.00  0.00     0.024 A 
HETATM   14  C   UNL     1      41.120 -13.878  -2.539  1.00  0.00     0.069 A 
HETATM   15  C   UNL     1      42.287 -13.233  -1.892  1.00  0.00     0.073 C 
HETATM   16  N   UNL     1      41.283 -14.575  -3.669  1.00  0.00    -0.133 NA
HETATM   17  O   UNL     1      40.027 -15.030  -4.016  1.00  0.00    -0.217 OA
HETATM   18  C   UNL     1      39.122 -14.613  -3.094  1.00  0.00     0.085 A 
HETATM   19  C   UNL     1      37.721 -15.011  -3.323  1.00  0.00     0.079 C 
ENDBRANCH  12  13
ENDBRANCH  11  12
ENDBRANCH   7  11
ENDBRANCH   1   5
BRANCH   2  20
HETATM   20  C   UNL     1      44.192 -18.023   2.431  1.00  0.00     0.162 C 
BRANCH  20  21
HETATM   21  C   UNL     1      44.232 -19.486   2.796  1.00  0.00    -0.033 A 
HETATM   22  C   UNL     1      44.531 -19.966   4.092  1.00  0.00    -0.025 A 
HETATM   23  C   UNL     1      44.582 -21.361   4.304  1.00  0.00     0.009 A 
HETATM   24  C   UNL     1      44.327 -22.260   3.270  1.00  0.00     0.001 A 
HETATM   25  C   UNL     1      44.017 -21.786   2.002  1.00  0.00     0.001 A 
HETATM   26  C   UNL     1      43.971 -20.414   1.767  1.00  0.00     0.009 A 
BRANCH  22  27
HETATM   27  C   UNL     1      44.779 -19.059   5.275  1.00  0.00     0.274 C 
BRANCH  27  28
HETATM   28  N   UNL     1      43.667 -19.070   6.303  1.00  0.00    -0.067 N 
HETATM   29  H   UNL     1      43.349 -20.042   6.390  1.00  0.00     0.280 HD
HETATM   30  C   UNL     1      42.485 -18.223   5.906  1.00  0.00     0.235 C 
HETATM   31  C   UNL     1      42.831 -16.853   6.449  1.00  0.00     0.029 C 
HETATM   32  C   UNL     1      43.628 -17.115   7.717  1.00  0.00     0.029 C 
HETATM   33  C   UNL     1      44.043 -18.578   7.678  1.00  0.00     0.235 C 
ENDBRANCH  27  28
ENDBRANCH  22  27
ENDBRANCH  20  21
ENDBRANCH   2  20
TORSDOF 8
ENDMDL
MODEL 6
REMARK VINA RESULT:      -8.5      5.355      8.860
REMARK  8 active torsions:
REMARK  status: ('A' for Active; 'I' for Inactive)
REMARK    1  A    between atoms: C_7  and  C_8 
REMARK    2  A    between atoms: C_8  and  O_9 
REMARK    3  A    between atoms: O_9  and  C_10 
REMARK    4  A    between atoms: C_12  and  C_13 
REMARK       I    between atoms: C_13  and  N_14 
REMARK    5  A    between atoms: N_14  and  C_15 
REMARK    6  A    between atoms: C_15  and  C_16 
REMARK    7  A    between atoms: C_17  and  C_18 
REMARK    8  A    between atoms: C_18  and  N_19 
ROOT
HETATM    1  C   UNL     1      40.480 -15.987   2.464  1.00  0.00     0.252 C 
HETATM    2  N   UNL     1      40.590 -16.059   3.842  1.00  0.00    -0.353 N 
HETATM    3  O   UNL     1      40.611 -16.968   1.741  1.00  0.00    -0.268 OA
HETATM    4  H   UNL     1      40.713 -15.186   4.341  1.00  0.00     0.163 HD
ENDROOT
BRANCH   1   5
HETATM    5  C   UNL     1      40.284 -14.631   1.897  1.00  0.00     0.034 A 
HETATM    6  C   UNL     1      39.406 -14.483   0.818  1.00  0.00     0.053 A 
HETATM    7  C   UNL     1      39.234 -13.238   0.208  1.00  0.00     0.070 A 
HETATM    8  C   UNL     1      39.910 -12.127   0.718  1.00  0.00     0.037 A 
HETATM    9  C   UNL     1      40.772 -12.269   1.812  1.00  0.00     0.004 A 
HETATM   10  C   UNL     1      40.967 -13.520   2.399  1.00  0.00     0.017 A 
BRANCH   7  11
HETATM   11  O   UNL     1      38.390 -13.243  -0.866  1.00  0.00    -0.346 OA
BRANCH  11  12
HETATM   12  C   UNL     1      38.895 -12.742  -2.107  1.00  0.00     0.219 C 
BRANCH  12  13
HETATM   13  C   UNL     1      39.648 -13.806  -2.822  1.00  0.00     0.024 A 
HETATM   14  C   UNL     1      41.053 -14.001  -2.902  1.00  0.00     0.069 A 
HETATM   15  C   UNL     1      42.134 -13.188  -2.296  1.00  0.00     0.073 C 
HETATM   16  N   UNL     1      41.358 -15.078  -3.634  1.00  0.00    -0.133 NA
HETATM   17  O   UNL     1      40.153 -15.598  -4.059  1.00  0.00    -0.217 OA
HETATM   18  C   UNL     1      39.135 -14.839  -3.577  1.00  0.00     0.085 A 
HETATM   19  C   UNL     1      37.771 -15.259  -3.949  1.00  0.00     0.079 C 
ENDBRANCH  12  13
ENDBRANCH  11  12
ENDBRANCH   7  11
ENDBRANCH   1   5
BRANCH   2  20
HETATM   20  C   UNL     1      41.174 -17.248   4.409  1.00  0.00     0.162 C 
BRANCH  20  21
HETATM   21  C   UNL     1      42.391 -16.941   5.245  1.00  0.00    -0.033 A 
HETATM   22  C   UNL     1      43.435 -17.863   5.486  1.00  0.00    -0.025 A 
HETATM   23  C   UNL     1      44.505 -17.477   6.322  1.00  0.00     0.009 A 
HETATM   24  C   UNL     1      44.553 -16.206   6.893  1.00  0.00     0.001 A 
HETATM   25  C   UNL     1      43.535 -15.296   6.642  1.00  0.00     0.001 A 
HETATM   26  C   UNL     1      42.465 -15.659   5.829  1.00  0.00     0.009 A 
BRANCH  22  27
HETATM   27  C   UNL     1      43.478 -19.244   4.872  1.00  0.00     0.274 C 
BRANCH  27  28
HETATM   28  N   UNL     1      44.454 -19.376   3.721  1.00  0.00    -0.067 N 
HETATM   29  H   UNL     1      45.346 -18.979   4.037  1.00  0.00     0.280 HD
HETATM   30  C   UNL     1      44.018 -18.627   2.486  1.00  0.00     0.235 C 
HETATM   31  C   UNL     1      43.167 -19.634   1.743  1.00  0.00     0.029 C 
HETATM   32  C   UNL     1      43.783 -20.988   2.056  1.00  0.00     0.029 C 
HETATM   33  C   UNL     1      44.713 -20.781   3.242  1.00  0.00     0.235 C 
ENDBRANCH  27  28
ENDBRANCH  22  27
ENDBRANCH  20  21
ENDBRANCH   2  20
TORSDOF 8
ENDMDL
MODEL 7
REMARK VINA RESULT:      -8.5      2.399      9.403
REMARK  8 active torsions:
REMARK  status: ('A' for Active; 'I' for Inactive)
REMARK    1  A    between atoms: C_7  and  C_8 
REMARK    2  A    between atoms: C_8  and  O_9 
REMARK    3  A    between atoms: O_9  and  C_10 
REMARK    4  A    between atoms: C_12  and  C_13 
REMARK       I    between atoms: C_13  and  N_14 
REMARK    5  A    between atoms: N_14  and  C_15 
REMARK    6  A    between atoms: C_15  and  C_16 
REMARK    7  A    between atoms: C_17  and  C_18 
REMARK    8  A    between atoms: C_18  and  N_19 
ROOT
HETATM    1  C   UNL     1      44.043 -14.995   6.729  1.00  0.00     0.252 C 
HETATM    2  N   UNL     1      43.713 -14.801   5.399  1.00  0.00    -0.353 N 
HETATM    3  O   UNL     1      43.592 -15.922   7.391  1.00  0.00    -0.268 OA
HETATM    4  H   UNL     1      43.924 -13.893   5.000  1.00  0.00     0.163 HD
ENDROOT
BRANCH   1   5
HETATM    5  C   UNL     1      44.908 -13.958   7.343  1.00  0.00     0.034 A 
HETATM    6  C   UNL     1      44.552 -13.455   8.599  1.00  0.00     0.053 A 
HETATM    7  C   UNL     1      45.298 -12.433   9.192  1.00  0.00     0.070 A 
HETATM    8  C   UNL     1      46.435 -11.950   8.540  1.00  0.00     0.037 A 
HETATM    9  C   UNL     1      46.806 -12.468   7.294  1.00  0.00     0.004 A 
HETATM   10  C   UNL     1      46.040 -13.466   6.688  1.00  0.00     0.017 A 
BRANCH   7  11
HETATM   11  O   UNL     1      44.813 -11.998  10.392  1.00  0.00    -0.346 OA
BRANCH  11  12
HETATM   12  C   UNL     1      44.351 -10.647  10.469  1.00  0.00     0.219 C 
BRANCH  12  13
HETATM   13  C   UNL     1      42.880 -10.618  10.680  1.00  0.00     0.024 A 
HETATM   14  C   UNL     1      41.843 -10.579   9.709  1.00  0.00     0.069 A 
HETATM   15  C   UNL     1      41.961 -10.553   8.232  1.00  0.00     0.073 C 
HETATM   16  N   UNL     1      40.635 -10.570  10.283  1.00  0.00    -0.133 NA
HETATM   17  O   UNL     1      40.863 -10.587  11.644  1.00  0.00    -0.217 OA
HETATM   18  C   UNL     1      42.200 -10.613  11.879  1.00  0.00     0.085 A 
HETATM   19  C   UNL     1      42.617 -10.627  13.294  1.00  0.00     0.079 C 
ENDBRANCH  12  13
ENDBRANCH  11  12
ENDBRANCH   7  11
ENDBRANCH   1   5
BRANCH   2  20
HETATM   20  C   UNL     1      42.582 -15.522   4.874  1.00  0.00     0.162 C 
BRANCH  20  21
HETATM   21  C   UNL     1      42.976 -16.482   3.779  1.00  0.00    -0.033 A 
HETATM   22  C   UNL     1      43.078 -17.881   3.957  1.00  0.00    -0.025 A 
HETATM   23  C   UNL     1      43.499 -18.675   2.869  1.00  0.00     0.009 A 
HETATM   24  C   UNL     1      43.795 -18.107   1.631  1.00  0.00     0.001 A 
HETATM   25  C   UNL     1      43.679 -16.735   1.454  1.00  0.00     0.001 A 
HETATM   26  C   UNL     1      43.275 -15.930   2.517  1.00  0.00     0.009 A 
BRANCH  22  27
HETATM   27  C   UNL     1      42.736 -18.578   5.254  1.00  0.00     0.274 C 
BRANCH  27  28
HETATM   28  N   UNL     1      43.942 -18.931   6.100  1.00  0.00    -0.067 N 
HETATM   29  H   UNL     1      44.503 -18.076   6.192  1.00  0.00     0.280 HD
HETATM   30  C   UNL     1      44.809 -19.998   5.480  1.00  0.00     0.235 C 
HETATM   31  C   UNL     1      44.203 -21.287   5.991  1.00  0.00     0.029 C 
HETATM   32  C   UNL     1      43.674 -20.959   7.379  1.00  0.00     0.029 C 
HETATM   33  C   UNL     1      43.640 -19.442   7.485  1.00  0.00     0.235 C 
ENDBRANCH  27  28
ENDBRANCH  22  27
ENDBRANCH  20  21
ENDBRANCH   2  20
TORSDOF 8
ENDMDL
MODEL 8
REMARK VINA RESULT:      -8.5      5.213      8.288
REMARK  8 active torsions:
REMARK  status: ('A' for Active; 'I' for Inactive)
REMARK    1  A    between atoms: C_7  and  C_8 
REMARK    2  A    between atoms: C_8  and  O_9 
REMARK    3  A    between atoms: O_9  and  C_10 
REMARK    4  A    between atoms: C_12  and  C_13 
REMARK       I    between atoms: C_13  and  N_14 
REMARK    5  A    between atoms: N_14  and  C_15 
REMARK    6  A    between atoms: C_15  and  C_16 
REMARK    7  A    between atoms: C_17  and  C_18 
REMARK    8  A    between atoms: C_18  and  N_19 
ROOT
HETATM    1  C   UNL     1      42.019 -13.817   0.847  1.00  0.00     0.252 C 
HETATM    2  N   UNL     1      41.405 -14.554  -0.151  1.00  0.00    -0.353 N 
HETATM    3  O   UNL     1      42.294 -12.630   0.715  1.00  0.00    -0.268 OA
HETATM    4  H   UNL     1      41.436 -15.564  -0.063  1.00  0.00     0.163 HD
ENDROOT
BRANCH   1   5
HETATM    5  C   UNL     1      42.411 -14.569   2.064  1.00  0.00     0.034 A 
HETATM    6  C   UNL     1      42.486 -15.964   1.988  1.00  0.00     0.053 A 
HETATM    7  C   UNL     1      42.790 -16.722   3.122  1.00  0.00     0.070 A 
HETATM    8  C   UNL     1      43.067 -16.070   4.325  1.00  0.00     0.037 A 
HETATM    9  C   UNL     1      43.014 -14.673   4.398  1.00  0.00     0.004 A 
HETATM   10  C   UNL     1      42.679 -13.920   3.273  1.00  0.00     0.017 A 
BRANCH   7  11
HETATM   11  O   UNL     1      42.779 -18.073   2.922  1.00  0.00    -0.346 OA
BRANCH  11  12
HETATM   12  C   UNL     1      43.974 -18.678   2.424  1.00  0.00     0.219 C 
BRANCH  12  13
HETATM   13  C   UNL     1      44.326 -19.869   3.241  1.00  0.00     0.024 A 
HETATM   14  C   UNL     1      44.334 -21.238   2.859  1.00  0.00     0.069 A 
HETATM   15  C   UNL     1      43.990 -21.833   1.546  1.00  0.00     0.073 C 
HETATM   16  N   UNL     1      44.717 -22.026   3.870  1.00  0.00    -0.133 NA
HETATM   17  O   UNL     1      44.951 -21.184   4.937  1.00  0.00    -0.217 OA
HETATM   18  C   UNL     1      44.715 -19.901   4.563  1.00  0.00     0.085 A 
HETATM   19  C   UNL     1      44.913 -18.869   5.598  1.00  0.00     0.079 C 
ENDBRANCH  12  13
ENDBRANCH  11  12
ENDBRANCH   7  11
ENDBRANCH   1   5
BRANCH   2  20
HETATM   20  C   UNL     1      41.374 -13.994  -1.478  1.00  0.00     0.162 C 
BRANCH  20  21
HETATM   21  C   UNL     1      40.181 -14.470  -2.268  1.00  0.00    -0.033 A 
HETATM   22  C   UNL     1      38.881 -13.930  -2.135  1.00  0.00    -0.025 A 
HETATM   23  C   UNL     1      37.832 -14.487  -2.898  1.00  0.00     0.009 A 
HETATM   24  C   UNL     1      38.062 -15.538  -3.784  1.00  0.00     0.001 A 
HETATM   25  C   UNL     1      39.342 -16.057  -3.925  1.00  0.00     0.001 A 
HETATM   26  C   UNL     1      40.390 -15.529  -3.174  1.00  0.00     0.009 A 
BRANCH  22  27
HETATM   27  C   UNL     1      38.557 -12.764  -1.229  1.00  0.00     0.274 C 
BRANCH  27  28
HETATM   28  N   UNL     1      37.593 -13.103  -0.111  1.00  0.00    -0.067 N 
HETATM   29  H   UNL     1      36.721 -13.415  -0.552  1.00  0.00     0.280 HD
HETATM   30  C   UNL     1      37.276 -11.925   0.775  1.00  0.00     0.235 C 
HETATM   31  C   UNL     1      38.357 -11.975   1.833  1.00  0.00     0.029 C 
HETATM   32  C   UNL     1      38.662 -13.452   2.024  1.00  0.00     0.029 C 
HETATM   33  C   UNL     1      38.048 -14.181   0.839  1.00  0.00     0.235 C 
ENDBRANCH  27  28
ENDBRANCH  22  27
ENDBRANCH  20  21
ENDBRANCH   2  20
TORSDOF 8
ENDMDL
MODEL 9
REMARK VINA RESULT:      -8.4      2.530      9.281
REMARK  8 active torsions:
REMARK  status: ('A' for Active; 'I' for Inactive)
REMARK    1  A    between atoms: C_7  and  C_8 
REMARK    2  A    between atoms: C_8  and  O_9 
REMARK    3  A    between atoms: O_9  and  C_10 
REMARK    4  A    between atoms: C_12  and  C_13 
REMARK       I    between atoms: C_13  and  N_14 
REMARK    5  A    between atoms: N_14  and  C_15 
REMARK    6  A    between atoms: C_15  and  C_16 
REMARK    7  A    between atoms: C_17  and  C_18 
REMARK    8  A    between atoms: C_18  and  N_19 
ROOT
HETATM    1  C   UNL     1      43.917 -14.965   6.819  1.00  0.00     0.252 C 
HETATM    2  N   UNL     1      42.594 -14.677   6.536  1.00  0.00    -0.353 N 
HETATM    3  O   UNL     1      44.405 -16.074   6.632  1.00  0.00    -0.268 OA
HETATM    4  H   UNL     1      42.210 -13.830   6.941  1.00  0.00     0.163 HD
ENDROOT
BRANCH   1   5
HETATM    5  C   UNL     1      44.700 -13.875   7.452  1.00  0.00     0.034 A 
HETATM    6  C   UNL     1      44.148 -13.216   8.556  1.00  0.00     0.053 A 
HETATM    7  C   UNL     1      44.817 -12.142   9.149  1.00  0.00     0.070 A 
HETATM    8  C   UNL     1      46.069 -11.762   8.659  1.00  0.00     0.037 A 
HETATM    9  C   UNL     1      46.633 -12.436   7.569  1.00  0.00     0.004 A 
HETATM   10  C   UNL     1      45.948 -13.487   6.958  1.00  0.00     0.017 A 
BRANCH   7  11
HETATM   11  O   UNL     1      44.145 -11.555  10.182  1.00  0.00    -0.346 OA
BRANCH  11  12
HETATM   12  C   UNL     1      43.183 -10.548   9.859  1.00  0.00     0.219 C 
BRANCH  12  13
HETATM   13  C   UNL     1      42.121 -10.499  10.898  1.00  0.00     0.024 A 
HETATM   14  C   UNL     1      40.730 -10.757  10.760  1.00  0.00     0.069 A 
HETATM   15  C   UNL     1      39.977 -11.137   9.542  1.00  0.00     0.073 C 
HETATM   16  N   UNL     1      40.089 -10.621  11.926  1.00  0.00    -0.133 NA
HETATM   17  O   UNL     1      41.051 -10.256  12.846  1.00  0.00    -0.217 OA
HETATM   18  C   UNL     1      42.260 -10.181  12.232  1.00  0.00     0.085 A 
HETATM   19  C   UNL     1      43.402  -9.792  13.079  1.00  0.00     0.079 C 
ENDBRANCH  12  13
ENDBRANCH  11  12
ENDBRANCH   7  11
ENDBRANCH   1   5
BRANCH   2  20
HETATM   20  C   UNL     1      41.698 -15.782   6.310  1.00  0.00     0.162 C 
BRANCH  20  21
HETATM   21  C   UNL     1      41.137 -15.783   4.910  1.00  0.00    -0.033 A 
HETATM   22  C   UNL     1      41.331 -16.835   3.984  1.00  0.00    -0.025 A 
HETATM   23  C   UNL     1      40.794 -16.705   2.686  1.00  0.00     0.009 A 
HETATM   24  C   UNL     1      40.068 -15.574   2.314  1.00  0.00     0.001 A 
HETATM   25  C   UNL     1      39.864 -14.550   3.229  1.00  0.00     0.001 A 
HETATM   26  C   UNL     1      40.394 -14.653   4.513  1.00  0.00     0.009 A 
BRANCH  22  27
HETATM   27  C   UNL     1      42.070 -18.109   4.322  1.00  0.00     0.274 C 
BRANCH  27  28
HETATM   28  N   UNL     1      43.572 -18.015   4.148  1.00  0.00    -0.067 N 
HETATM   29  H   UNL     1      43.857 -17.094   4.500  1.00  0.00     0.280 HD
HETATM   30  C   UNL     1      44.010 -18.124   2.709  1.00  0.00     0.235 C 
HETATM   31  C   UNL     1      44.184 -19.613   2.503  1.00  0.00     0.029 C 
HETATM   32  C   UNL     1      44.653 -20.151   3.846  1.00  0.00     0.029 C 
HETATM   33  C   UNL     1      44.380 -19.061   4.872  1.00  0.00     0.235 C 
ENDBRANCH  27  28
ENDBRANCH  22  27
ENDBRANCH  20  21
ENDBRANCH   2  20
TORSDOF 8
ENDMDL
MODEL 10
REMARK VINA RESULT:      -8.3      2.465      3.389
REMARK  8 active torsions:
REMARK  status: ('A' for Active; 'I' for Inactive)
REMARK    1  A    between atoms: C_7  and  C_8 
REMARK    2  A    between atoms: C_8  and  O_9 
REMARK    3  A    between atoms: O_9  and  C_10 
REMARK    4  A    between atoms: C_12  and  C_13 
REMARK       I    between atoms: C_13  and  N_14 
REMARK    5  A    between atoms: N_14  and  C_15 
REMARK    6  A    between atoms: C_15  and  C_16 
REMARK    7  A    between atoms: C_17  and  C_18 
REMARK    8  A    between atoms: C_18  and  N_19 
ROOT
HETATM    1  C   UNL     1      44.900 -14.028   7.126  1.00  0.00     0.252 C 
HETATM    2  N   UNL     1      44.322 -13.532   8.282  1.00  0.00    -0.353 N 
HETATM    3  O   UNL     1      45.823 -13.459   6.555  1.00  0.00    -0.268 OA
HETATM    4  H   UNL     1      43.423 -13.917   8.549  1.00  0.00     0.163 HD
ENDROOT
BRANCH   1   5
HETATM    5  C   UNL     1      44.276 -15.248   6.558  1.00  0.00     0.034 A 
HETATM    6  C   UNL     1      43.171 -15.098   5.714  1.00  0.00     0.053 A 
HETATM    7  C   UNL     1      42.510 -16.218   5.204  1.00  0.00     0.070 A 
HETATM    8  C   UNL     1      42.994 -17.493   5.504  1.00  0.00     0.037 A 
HETATM    9  C   UNL     1      44.114 -17.645   6.330  1.00  0.00     0.004 A 
HETATM   10  C   UNL     1      44.753 -16.526   6.865  1.00  0.00     0.017 A 
BRANCH   7  11
HETATM   11  O   UNL     1      41.416 -15.932   4.437  1.00  0.00    -0.346 OA
BRANCH  11  12
HETATM   12  C   UNL     1      41.031 -16.891   3.449  1.00  0.00     0.219 C 
BRANCH  12  13
HETATM   13  C   UNL     1      41.173 -16.312   2.088  1.00  0.00     0.024 A 
HETATM   14  C   UNL     1      40.261 -15.490   1.372  1.00  0.00     0.069 A 
HETATM   15  C   UNL     1      38.927 -15.003   1.796  1.00  0.00     0.073 C 
HETATM   16  N   UNL     1      40.743 -15.155   0.170  1.00  0.00    -0.133 NA
HETATM   17  O   UNL     1      41.976 -15.766   0.074  1.00  0.00    -0.217 OA
HETATM   18  C   UNL     1      42.230 -16.457   1.216  1.00  0.00     0.085 A 
HETATM   19  C   UNL     1      43.515 -17.179   1.273  1.00  0.00     0.079 C 
ENDBRANCH  12  13
ENDBRANCH  11  12
ENDBRANCH   7  11
ENDBRANCH   1   5
BRANCH   2  20
HETATM   20  C   UNL     1      44.606 -12.167   8.644  1.00  0.00     0.162 C 
BRANCH  20  21
HETATM   21  C   UNL     1      43.760 -11.698   9.802  1.00  0.00    -0.033 A 
HETATM   22  C   UNL     1      42.618 -10.876   9.660  1.00  0.00    -0.025 A 
HETATM   23  C   UNL     1      41.930 -10.464  10.822  1.00  0.00     0.009 A 
HETATM   24  C   UNL     1      42.347 -10.866  12.090  1.00  0.00     0.001 A 
HETATM   25  C   UNL     1      43.459 -11.686  12.225  1.00  0.00     0.001 A 
HETATM   26  C   UNL     1      44.159 -12.096  11.094  1.00  0.00     0.009 A 
BRANCH  22  27
HETATM   27  C   UNL     1      42.078 -10.431   8.321  1.00  0.00     0.274 C 
BRANCH  27  28
HETATM   28  N   UNL     1      41.149 -11.435   7.668  1.00  0.00    -0.067 N 
HETATM   29  H   UNL     1      41.141 -12.268   8.266  1.00  0.00     0.280 HD
HETATM   30  C   UNL     1      41.599 -11.849   6.289  1.00  0.00     0.235 C 
HETATM   31  C   UNL     1      40.958 -10.821   5.383  1.00  0.00     0.029 C 
HETATM   32  C   UNL     1      39.642 -10.460   6.055  1.00  0.00     0.029 C 
HETATM   33  C   UNL     1      39.724 -10.980   7.482  1.00  0.00     0.235 C 
ENDBRANCH  27  28
ENDBRANCH  22  27
ENDBRANCH  20  21
ENDBRANCH   2  20
TORSDOF 8
ENDMDL
