MODEL 1
REMARK VINA RESULT:      -9.1      0.000      0.000
REMARK  3 active torsions:
REMARK  status: ('A' for Active; 'I' for Inactive)
REMARK    1  A    between atoms: C_7  and  C_8 
REMARK    2  A    between atoms: N_9  and  N_10 
REMARK       I    between atoms: N_10  and  C_11 
REMARK    3  A    between atoms: C_11  and  C_12 
ROOT
HETATM    1  N   UNL     1      41.877 -15.524   2.898  1.00  0.00    -0.242 N 
HETATM    2  C   UNL     1      41.817 -15.135   1.573  1.00  0.00     0.292 C 
HETATM    3  O   UNL     1      42.092 -15.773   0.569  1.00  0.00    -0.264 OA
HETATM    4  H   UNL     1      41.429 -14.915   3.582  1.00  0.00     0.192 HD
ENDROOT
BRANCH   1   5
HETATM    5  N   UNL     1      42.294 -16.729   3.407  1.00  0.00    -0.183 NA
HETATM    6  C   UNL     1      43.557 -17.003   3.468  1.00  0.00     0.153 C 
BRANCH   6   7
HETATM    7  C   UNL     1      43.999 -18.280   4.007  1.00  0.00     0.018 A 
HETATM    8  C   UNL     1      44.452 -18.448   5.311  1.00  0.00     0.018 A 
HETATM    9  C   UNL     1      44.614 -17.471   6.420  1.00  0.00     0.069 C 
HETATM   10  N   UNL     1      44.777 -19.771   5.474  1.00  0.00    -0.358 N 
HETATM   11  H   UNL     1      45.138 -20.182   6.323  1.00  0.00     0.166 HD
HETATM   12  C   UNL     1      44.543 -20.474   4.318  1.00  0.00     0.043 A 
HETATM   13  C   UNL     1      44.058 -19.566   3.375  1.00  0.00     0.004 A 
HETATM   14  C   UNL     1      44.726 -21.835   4.044  1.00  0.00     0.030 A 
HETATM   15  C   UNL     1      43.739 -20.056   2.089  1.00  0.00     0.014 A 
HETATM   16  C   UNL     1      43.916 -21.415   1.798  1.00  0.00     0.001 A 
HETATM   17  C   UNL     1      44.401 -22.290   2.763  1.00  0.00     0.002 A 
ENDBRANCH   6   7
ENDBRANCH   1   5
BRANCH   2  18
HETATM   18  C   UNL     1      41.356 -13.695   1.425  1.00  0.00     0.157 A 
HETATM   19  N   UNL     1      42.282 -12.779   1.485  1.00  0.00    -0.166 NA
HETATM   20  N   UNL     1      41.896 -11.478   1.361  1.00  0.00    -0.242 N 
HETATM   21  C   UNL     1      40.609 -11.027   1.178  1.00  0.00     0.272 A 
HETATM   22  H   UNL     1      42.624 -10.773   1.446  1.00  0.00     0.192 HD
HETATM   23  O   UNL     1      40.336  -9.836   1.097  1.00  0.00    -0.266 OA
HETATM   24  C   UNL     1      39.568 -12.064   1.071  1.00  0.00     0.046 A 
HETATM   25  C   UNL     1      39.929 -13.404   1.190  1.00  0.00     0.016 A 
HETATM   26  C   UNL     1      38.235 -11.706   0.836  1.00  0.00     0.018 A 
HETATM   27  C   UNL     1      38.951 -14.398   1.060  1.00  0.00     0.015 A 
HETATM   28  C   UNL     1      37.620 -14.041   0.824  1.00  0.00     0.001 A 
HETATM   29  C   UNL     1      37.263 -12.698   0.714  1.00  0.00     0.001 A 
ENDBRANCH   2  18
TORSDOF 3
ENDMDL
MODEL 2
REMARK VINA RESULT:      -9.0      6.148      7.588
REMARK  3 active torsions:
REMARK  status: ('A' for Active; 'I' for Inactive)
REMARK    1  A    between atoms: C_7  and  C_8 
REMARK    2  A    between atoms: N_9  and  N_10 
REMARK       I    between atoms: N_10  and  C_11 
REMARK    3  A    between atoms: C_11  and  C_12 
ROOT
HETATM    1  N   UNL     1      43.864 -13.828   7.618  1.00  0.00    -0.242 N 
HETATM    2  C   UNL     1      44.742 -12.992   8.283  1.00  0.00     0.292 C 
HETATM    3  O   UNL     1      45.866 -12.640   7.960  1.00  0.00    -0.264 OA
HETATM    4  H   UNL     1      42.902 -13.852   7.953  1.00  0.00     0.192 HD
ENDROOT
BRANCH   1   5
HETATM    5  N   UNL     1      44.063 -14.491   6.433  1.00  0.00    -0.183 NA
HETATM    6  C   UNL     1      43.065 -15.048   5.828  1.00  0.00     0.153 C 
BRANCH   6   7
HETATM    7  C   UNL     1      43.275 -15.752   4.572  1.00  0.00     0.018 A 
HETATM    8  C   UNL     1      43.204 -15.138   3.326  1.00  0.00     0.018 A 
HETATM    9  C   UNL     1      42.909 -13.731   2.948  1.00  0.00     0.069 C 
HETATM   10  N   UNL     1      43.461 -16.092   2.375  1.00  0.00    -0.358 N 
HETATM   11  H   UNL     1      43.472 -15.933   1.377  1.00  0.00     0.166 HD
HETATM   12  C   UNL     1      43.705 -17.310   2.961  1.00  0.00     0.043 A 
HETATM   13  C   UNL     1      43.592 -17.132   4.342  1.00  0.00     0.004 A 
HETATM   14  C   UNL     1      44.012 -18.542   2.373  1.00  0.00     0.030 A 
HETATM   15  C   UNL     1      43.802 -18.255   5.172  1.00  0.00     0.014 A 
HETATM   16  C   UNL     1      44.111 -19.495   4.601  1.00  0.00     0.001 A 
HETATM   17  C   UNL     1      44.215 -19.635   3.221  1.00  0.00     0.002 A 
ENDBRANCH   6   7
ENDBRANCH   1   5
BRANCH   2  18
HETATM   18  C   UNL     1      44.168 -12.499   9.601  1.00  0.00     0.157 A 
HETATM   19  N   UNL     1      44.610 -13.078  10.681  1.00  0.00    -0.166 NA
HETATM   20  N   UNL     1      44.109 -12.659  11.877  1.00  0.00    -0.242 N 
HETATM   21  C   UNL     1      43.167 -11.674  12.061  1.00  0.00     0.272 A 
HETATM   22  H   UNL     1      44.436 -13.145  12.708  1.00  0.00     0.192 HD
HETATM   23  O   UNL     1      42.746 -11.365  13.169  1.00  0.00    -0.266 OA
HETATM   24  C   UNL     1      42.695 -10.991  10.842  1.00  0.00     0.046 A 
HETATM   25  C   UNL     1      43.191 -11.394   9.605  1.00  0.00     0.016 A 
HETATM   26  C   UNL     1      41.773  -9.942  10.932  1.00  0.00     0.018 A 
HETATM   27  C   UNL     1      42.771 -10.732   8.444  1.00  0.00     0.015 A 
HETATM   28  C   UNL     1      41.852  -9.683   8.532  1.00  0.00     0.001 A 
HETATM   29  C   UNL     1      41.353  -9.289   9.773  1.00  0.00     0.001 A 
ENDBRANCH   2  18
TORSDOF 3
ENDMDL
MODEL 3
REMARK VINA RESULT:      -8.9      3.066      3.457
REMARK  3 active torsions:
REMARK  status: ('A' for Active; 'I' for Inactive)
REMARK    1  A    between atoms: C_7  and  C_8 
REMARK    2  A    between atoms: N_9  and  N_10 
REMARK       I    between atoms: N_10  and  C_11 
REMARK    3  A    between atoms: C_11  and  C_12 
ROOT
HETATM    1  N   UNL     1      41.862 -15.936   0.281  1.00  0.00    -0.242 N 
HETATM    2  C   UNL     1      41.523 -14.602   0.416  1.00  0.00     0.292 C 
HETATM    3  O   UNL     1      41.884 -13.797   1.260  1.00  0.00    -0.264 OA
HETATM    4  H   UNL     1      41.608 -16.393  -0.594  1.00  0.00     0.192 HD
ENDROOT
BRANCH   1   5
HETATM    5  N   UNL     1      42.675 -16.687   1.092  1.00  0.00    -0.183 NA
HETATM    6  C   UNL     1      42.161 -17.398   2.042  1.00  0.00     0.153 C 
BRANCH   6   7
HETATM    7  C   UNL     1      43.022 -18.195   2.903  1.00  0.00     0.018 A 
HETATM    8  C   UNL     1      43.550 -17.731   4.103  1.00  0.00     0.018 A 
HETATM    9  C   UNL     1      43.414 -16.415   4.784  1.00  0.00     0.069 C 
HETATM   10  N   UNL     1      44.302 -18.739   4.647  1.00  0.00    -0.358 N 
HETATM   11  H   UNL     1      44.809 -18.683   5.520  1.00  0.00     0.166 HD
HETATM   12  C   UNL     1      44.278 -19.852   3.843  1.00  0.00     0.043 A 
HETATM   13  C   UNL     1      43.485 -19.542   2.736  1.00  0.00     0.004 A 
HETATM   14  C   UNL     1      44.895 -21.096   4.015  1.00  0.00     0.030 A 
HETATM   15  C   UNL     1      43.305 -20.539   1.752  1.00  0.00     0.014 A 
HETATM   16  C   UNL     1      43.915 -21.790   1.908  1.00  0.00     0.001 A 
HETATM   17  C   UNL     1      44.697 -22.063   3.025  1.00  0.00     0.002 A 
ENDBRANCH   6   7
ENDBRANCH   1   5
BRANCH   2  18
HETATM   18  C   UNL     1      40.545 -14.154  -0.658  1.00  0.00     0.157 A 
HETATM   19  N   UNL     1      39.296 -14.479  -0.480  1.00  0.00    -0.166 NA
HETATM   20  N   UNL     1      38.398 -14.094  -1.430  1.00  0.00    -0.242 N 
HETATM   21  C   UNL     1      38.682 -13.389  -2.576  1.00  0.00     0.272 A 
HETATM   22  H   UNL     1      37.434 -14.387  -1.295  1.00  0.00     0.192 HD
HETATM   23  O   UNL     1      37.822 -13.096  -3.398  1.00  0.00    -0.266 OA
HETATM   24  C   UNL     1      40.088 -12.986  -2.758  1.00  0.00     0.046 A 
HETATM   25  C   UNL     1      41.031 -13.361  -1.803  1.00  0.00     0.016 A 
HETATM   26  C   UNL     1      40.467 -12.223  -3.869  1.00  0.00     0.018 A 
HETATM   27  C   UNL     1      42.364 -12.959  -1.952  1.00  0.00     0.015 A 
HETATM   28  C   UNL     1      42.743 -12.196  -3.061  1.00  0.00     0.001 A 
HETATM   29  C   UNL     1      41.797 -11.830  -4.018  1.00  0.00     0.001 A 
ENDBRANCH   2  18
TORSDOF 3
ENDMDL
MODEL 4
REMARK VINA RESULT:      -8.9      2.115      2.377
REMARK  3 active torsions:
REMARK  status: ('A' for Active; 'I' for Inactive)
REMARK    1  A    between atoms: C_7  and  C_8 
REMARK    2  A    between atoms: N_9  and  N_10 
REMARK       I    between atoms: N_10  and  C_11 
REMARK    3  A    between atoms: C_11  and  C_12 
ROOT
HETATM    1  N   UNL     1      42.407 -16.018   1.919  1.00  0.00    -0.242 N 
HETATM    2  C   UNL     1      41.167 -15.493   1.605  1.00  0.00     0.292 C 
HETATM    3  O   UNL     1      40.058 -15.890   1.927  1.00  0.00    -0.264 OA
HETATM    4  H   UNL     1      43.221 -15.440   1.715  1.00  0.00     0.192 HD
ENDROOT
BRANCH   1   5
HETATM    5  N   UNL     1      42.687 -17.142   2.655  1.00  0.00    -0.183 NA
HETATM    6  C   UNL     1      43.851 -17.285   3.200  1.00  0.00     0.153 C 
BRANCH   6   7
HETATM    7  C   UNL     1      44.148 -18.477   3.980  1.00  0.00     0.018 A 
HETATM    8  C   UNL     1      44.364 -18.462   5.353  1.00  0.00     0.018 A 
HETATM    9  C   UNL     1      44.367 -17.337   6.327  1.00  0.00     0.069 C 
HETATM   10  N   UNL     1      44.608 -19.751   5.753  1.00  0.00    -0.358 N 
HETATM   11  H   UNL     1      44.803 -20.040   6.701  1.00  0.00     0.166 HD
HETATM   12  C   UNL     1      44.552 -20.610   4.683  1.00  0.00     0.043 A 
HETATM   13  C   UNL     1      44.269 -19.841   3.552  1.00  0.00     0.004 A 
HETATM   14  C   UNL     1      44.730 -21.997   4.638  1.00  0.00     0.030 A 
HETATM   15  C   UNL     1      44.159 -20.506   2.312  1.00  0.00     0.014 A 
HETATM   16  C   UNL     1      44.334 -21.894   2.247  1.00  0.00     0.001 A 
HETATM   17  C   UNL     1      44.615 -22.627   3.395  1.00  0.00     0.002 A 
ENDBRANCH   6   7
ENDBRANCH   1   5
BRANCH   2  18
HETATM   18  C   UNL     1      41.279 -14.267   0.715  1.00  0.00     0.157 A 
HETATM   19  N   UNL     1      41.487 -13.129   1.317  1.00  0.00    -0.166 NA
HETATM   20  N   UNL     1      41.586 -12.011   0.544  1.00  0.00    -0.242 N 
HETATM   21  C   UNL     1      41.484 -11.961  -0.827  1.00  0.00     0.272 A 
HETATM   22  H   UNL     1      41.711 -11.127   1.030  1.00  0.00     0.192 HD
HETATM   23  O   UNL     1      41.562 -10.911  -1.454  1.00  0.00    -0.266 OA
HETATM   24  C   UNL     1      41.288 -13.252  -1.510  1.00  0.00     0.046 A 
HETATM   25  C   UNL     1      41.186 -14.414  -0.750  1.00  0.00     0.016 A 
HETATM   26  C   UNL     1      41.221 -13.309  -2.908  1.00  0.00     0.018 A 
HETATM   27  C   UNL     1      41.029 -15.649  -1.391  1.00  0.00     0.015 A 
HETATM   28  C   UNL     1      40.964 -15.707  -2.787  1.00  0.00     0.001 A 
HETATM   29  C   UNL     1      41.058 -14.540  -3.543  1.00  0.00     0.001 A 
ENDBRANCH   2  18
TORSDOF 3
ENDMDL
MODEL 5
REMARK VINA RESULT:      -8.8      2.677      3.057
REMARK  3 active torsions:
REMARK  status: ('A' for Active; 'I' for Inactive)
REMARK    1  A    between atoms: C_7  and  C_8 
REMARK    2  A    between atoms: N_9  and  N_10 
REMARK       I    between atoms: N_10  and  C_11 
REMARK    3  A    between atoms: C_11  and  C_12 
ROOT
HETATM    1  N   UNL     1      42.633 -16.883   0.608  1.00  0.00    -0.242 N 
HETATM    2  C   UNL     1      41.413 -16.244   0.490  1.00  0.00     0.292 C 
HETATM    3  O   UNL     1      40.409 -16.366   1.174  1.00  0.00    -0.264 OA
HETATM    4  H   UNL     1      43.407 -16.511   0.060  1.00  0.00     0.192 HD
ENDROOT
BRANCH   1   5
HETATM    5  N   UNL     1      42.999 -17.842   1.519  1.00  0.00    -0.183 NA
HETATM    6  C   UNL     1      43.511 -17.494   2.655  1.00  0.00     0.153 C 
BRANCH   6   7
HETATM    7  C   UNL     1      43.899 -18.510   3.620  1.00  0.00     0.018 A 
HETATM    8  C   UNL     1      44.097 -18.250   4.972  1.00  0.00     0.018 A 
HETATM    9  C   UNL     1      43.993 -16.984   5.746  1.00  0.00     0.069 C 
HETATM   10  N   UNL     1      44.446 -19.429   5.579  1.00  0.00    -0.358 N 
HETATM   11  H   UNL     1      44.654 -19.540   6.561  1.00  0.00     0.166 HD
HETATM   12  C   UNL     1      44.475 -20.455   4.666  1.00  0.00     0.043 A 
HETATM   13  C   UNL     1      44.141 -19.911   3.425  1.00  0.00     0.004 A 
HETATM   14  C   UNL     1      44.773 -21.810   4.850  1.00  0.00     0.030 A 
HETATM   15  C   UNL     1      44.103 -20.779   2.311  1.00  0.00     0.014 A 
HETATM   16  C   UNL     1      44.397 -22.138   2.477  1.00  0.00     0.001 A 
HETATM   17  C   UNL     1      44.726 -22.644   3.730  1.00  0.00     0.002 A 
ENDBRANCH   6   7
ENDBRANCH   1   5
BRANCH   2  18
HETATM   18  C   UNL     1      41.386 -15.287  -0.690  1.00  0.00     0.157 A 
HETATM   19  N   UNL     1      41.098 -15.803  -1.852  1.00  0.00    -0.166 NA
HETATM   20  N   UNL     1      41.072 -14.968  -2.929  1.00  0.00    -0.242 N 
HETATM   21  C   UNL     1      41.325 -13.616  -2.913  1.00  0.00     0.272 A 
HETATM   22  H   UNL     1      40.882 -15.392  -3.833  1.00  0.00     0.192 HD
HETATM   23  O   UNL     1      41.304 -12.932  -3.929  1.00  0.00    -0.266 OA
HETATM   24  C   UNL     1      41.612 -13.025  -1.594  1.00  0.00     0.046 A 
HETATM   25  C   UNL     1      41.643 -13.850  -0.472  1.00  0.00     0.016 A 
HETATM   26  C   UNL     1      41.834 -11.648  -1.469  1.00  0.00     0.018 A 
HETATM   27  C   UNL     1      41.885 -13.293   0.790  1.00  0.00     0.015 A 
HETATM   28  C   UNL     1      42.106 -11.919   0.915  1.00  0.00     0.001 A 
HETATM   29  C   UNL     1      42.082 -11.098  -0.212  1.00  0.00     0.001 A 
ENDBRANCH   2  18
TORSDOF 3
ENDMDL
MODEL 6
REMARK VINA RESULT:      -8.7      3.007      8.778
REMARK  3 active torsions:
REMARK  status: ('A' for Active; 'I' for Inactive)
REMARK    1  A    between atoms: C_7  and  C_8 
REMARK    2  A    between atoms: N_9  and  N_10 
REMARK       I    between atoms: N_10  and  C_11 
REMARK    3  A    between atoms: C_11  and  C_12 
ROOT
HETATM    1  N   UNL     1      42.174 -16.125   1.273  1.00  0.00    -0.242 N 
HETATM    2  C   UNL     1      41.570 -16.912   2.237  1.00  0.00     0.292 C 
HETATM    3  O   UNL     1      40.394 -17.216   2.357  1.00  0.00    -0.264 OA
HETATM    4  H   UNL     1      43.192 -16.141   1.232  1.00  0.00     0.192 HD
ENDROOT
BRANCH   1   5
HETATM    5  N   UNL     1      41.579 -15.467   0.226  1.00  0.00    -0.183 NA
HETATM    6  C   UNL     1      41.048 -14.302   0.412  1.00  0.00     0.153 C 
BRANCH   6   7
HETATM    7  C   UNL     1      40.417 -13.605  -0.698  1.00  0.00     0.018 A 
HETATM    8  C   UNL     1      39.041 -13.456  -0.829  1.00  0.00     0.018 A 
HETATM    9  C   UNL     1      37.923 -13.929   0.031  1.00  0.00     0.069 C 
HETATM   10  N   UNL     1      38.804 -12.746  -1.978  1.00  0.00    -0.358 N 
HETATM   11  H   UNL     1      37.891 -12.493  -2.329  1.00  0.00     0.166 HD
HETATM   12  C   UNL     1      39.985 -12.420  -2.599  1.00  0.00     0.043 A 
HETATM   13  C   UNL     1      41.018 -12.948  -1.823  1.00  0.00     0.004 A 
HETATM   14  C   UNL     1      40.207 -11.704  -3.782  1.00  0.00     0.030 A 
HETATM   15  C   UNL     1      42.345 -12.742  -2.260  1.00  0.00     0.014 A 
HETATM   16  C   UNL     1      42.586 -12.027  -3.440  1.00  0.00     0.001 A 
HETATM   17  C   UNL     1      41.531 -11.516  -4.188  1.00  0.00     0.002 A 
ENDBRANCH   6   7
ENDBRANCH   1   5
BRANCH   2  18
HETATM   18  C   UNL     1      42.569 -17.415   3.266  1.00  0.00     0.157 A 
HETATM   19  N   UNL     1      42.760 -16.659   4.309  1.00  0.00    -0.166 NA
HETATM   20  N   UNL     1      43.654 -17.083   5.246  1.00  0.00    -0.242 N 
HETATM   21  C   UNL     1      44.388 -18.246   5.198  1.00  0.00     0.272 A 
HETATM   22  H   UNL     1      43.820 -16.465   6.036  1.00  0.00     0.192 HD
HETATM   23  O   UNL     1      45.193 -18.551   6.071  1.00  0.00    -0.266 OA
HETATM   24  C   UNL     1      44.144 -19.120   4.038  1.00  0.00     0.046 A 
HETATM   25  C   UNL     1      43.233 -18.717   3.064  1.00  0.00     0.016 A 
HETATM   26  C   UNL     1      44.807 -20.348   3.925  1.00  0.00     0.018 A 
HETATM   27  C   UNL     1      42.972 -19.555   1.972  1.00  0.00     0.015 A 
HETATM   28  C   UNL     1      43.633 -20.781   1.860  1.00  0.00     0.001 A 
HETATM   29  C   UNL     1      44.550 -21.177   2.833  1.00  0.00     0.001 A 
ENDBRANCH   2  18
TORSDOF 3
ENDMDL
MODEL 7
REMARK VINA RESULT:      -8.5      1.815      1.961
REMARK  3 active torsions:
REMARK  status: ('A' for Active; 'I' for Inactive)
REMARK    1  A    between atoms: C_7  and  C_8 
REMARK    2  A    between atoms: N_9  and  N_10 
REMARK       I    between atoms: N_10  and  C_11 
REMARK    3  A    between atoms: C_11  and  C_12 
ROOT
HETATM    1  N   UNL     1      42.188 -15.186   3.182  1.00  0.00    -0.242 N 
HETATM    2  C   UNL     1      42.800 -13.953   3.304  1.00  0.00     0.292 C 
HETATM    3  O   UNL     1      43.816 -13.654   3.913  1.00  0.00    -0.264 OA
HETATM    4  H   UNL     1      41.454 -15.272   2.479  1.00  0.00     0.192 HD
ENDROOT
BRANCH   1   5
HETATM    5  N   UNL     1      42.566 -16.377   3.748  1.00  0.00    -0.183 NA
HETATM    6  C   UNL     1      43.635 -16.979   3.336  1.00  0.00     0.153 C 
BRANCH   6   7
HETATM    7  C   UNL     1      44.036 -18.242   3.936  1.00  0.00     0.018 A 
HETATM    8  C   UNL     1      44.442 -18.369   5.260  1.00  0.00     0.018 A 
HETATM    9  C   UNL     1      44.584 -17.354   6.337  1.00  0.00     0.069 C 
HETATM   10  N   UNL     1      44.738 -19.689   5.482  1.00  0.00    -0.358 N 
HETATM   11  H   UNL     1      45.063 -20.075   6.357  1.00  0.00     0.166 HD
HETATM   12  C   UNL     1      44.530 -20.432   4.345  1.00  0.00     0.043 A 
HETATM   13  C   UNL     1      44.093 -19.552   3.353  1.00  0.00     0.004 A 
HETATM   14  C   UNL     1      44.698 -21.804   4.128  1.00  0.00     0.030 A 
HETATM   15  C   UNL     1      43.809 -20.084   2.076  1.00  0.00     0.014 A 
HETATM   16  C   UNL     1      43.971 -21.455   1.841  1.00  0.00     0.001 A 
HETATM   17  C   UNL     1      44.409 -22.301   2.854  1.00  0.00     0.002 A 
ENDBRANCH   6   7
ENDBRANCH   1   5
BRANCH   2  18
HETATM   18  C   UNL     1      42.036 -12.864   2.570  1.00  0.00     0.157 A 
HETATM   19  N   UNL     1      42.479 -12.538   1.389  1.00  0.00    -0.166 NA
HETATM   20  N   UNL     1      41.816 -11.560   0.709  1.00  0.00    -0.242 N 
HETATM   21  C   UNL     1      40.712 -10.870   1.153  1.00  0.00     0.272 A 
HETATM   22  H   UNL     1      42.195 -11.292  -0.195  1.00  0.00     0.192 HD
HETATM   23  O   UNL     1      40.181  -9.985   0.493  1.00  0.00    -0.266 OA
HETATM   24  C   UNL     1      40.187 -11.265   2.473  1.00  0.00     0.046 A 
HETATM   25  C   UNL     1      40.840 -12.264   3.191  1.00  0.00     0.016 A 
HETATM   26  C   UNL     1      39.037 -10.654   2.988  1.00  0.00     0.018 A 
HETATM   27  C   UNL     1      40.332 -12.667   4.433  1.00  0.00     0.015 A 
HETATM   28  C   UNL     1      39.183 -12.059   4.948  1.00  0.00     0.001 A 
HETATM   29  C   UNL     1      38.538 -11.053   4.228  1.00  0.00     0.001 A 
ENDBRANCH   2  18
TORSDOF 3
ENDMDL
MODEL 8
REMARK VINA RESULT:      -8.5      5.260      6.754
REMARK  3 active torsions:
REMARK  status: ('A' for Active; 'I' for Inactive)
REMARK    1  A    between atoms: C_7  and  C_8 
REMARK    2  A    between atoms: N_9  and  N_10 
REMARK       I    between atoms: N_10  and  C_11 
REMARK    3  A    between atoms: C_11  and  C_12 
ROOT
HETATM    1  N   UNL     1      43.655 -14.442   6.999  1.00  0.00    -0.242 N 
HETATM    2  C   UNL     1      44.416 -13.369   7.427  1.00  0.00     0.292 C 
HETATM    3  O   UNL     1      45.631 -13.264   7.493  1.00  0.00    -0.264 OA
HETATM    4  H   UNL     1      42.663 -14.272   6.839  1.00  0.00     0.192 HD
ENDROOT
BRANCH   1   5
HETATM    5  N   UNL     1      44.092 -15.670   6.571  1.00  0.00    -0.183 NA
HETATM    6  C   UNL     1      43.236 -16.592   6.270  1.00  0.00     0.153 C 
BRANCH   6   7
HETATM    7  C   UNL     1      43.699 -17.894   5.816  1.00  0.00     0.018 A 
HETATM    8  C   UNL     1      44.122 -18.902   6.676  1.00  0.00     0.018 A 
HETATM    9  C   UNL     1      44.227 -18.937   8.159  1.00  0.00     0.069 C 
HETATM   10  N   UNL     1      44.478 -19.983   5.911  1.00  0.00    -0.358 N 
HETATM   11  H   UNL     1      44.828 -20.861   6.268  1.00  0.00     0.166 HD
HETATM   12  C   UNL     1      44.294 -19.715   4.576  1.00  0.00     0.043 A 
HETATM   13  C   UNL     1      43.809 -18.410   4.481  1.00  0.00     0.004 A 
HETATM   14  C   UNL     1      44.521 -20.528   3.460  1.00  0.00     0.030 A 
HETATM   15  C   UNL     1      43.538 -17.897   3.194  1.00  0.00     0.014 A 
HETATM   16  C   UNL     1      43.759 -18.696   2.065  1.00  0.00     0.001 A 
HETATM   17  C   UNL     1      44.243 -19.993   2.199  1.00  0.00     0.002 A 
ENDBRANCH   6   7
ENDBRANCH   1   5
BRANCH   2  18
HETATM   18  C   UNL     1      43.552 -12.204   7.880  1.00  0.00     0.157 A 
HETATM   19  N   UNL     1      42.623 -11.815   7.053  1.00  0.00    -0.166 NA
HETATM   20  N   UNL     1      41.836 -10.768   7.431  1.00  0.00    -0.242 N 
HETATM   21  C   UNL     1      41.927 -10.070   8.613  1.00  0.00     0.272 A 
HETATM   22  H   UNL     1      41.139 -10.452   6.761  1.00  0.00     0.192 HD
HETATM   23  O   UNL     1      41.196  -9.122   8.874  1.00  0.00    -0.266 OA
HETATM   24  C   UNL     1      42.952 -10.536   9.564  1.00  0.00     0.046 A 
HETATM   25  C   UNL     1      43.771 -11.605   9.210  1.00  0.00     0.016 A 
HETATM   26  C   UNL     1      43.089  -9.920  10.814  1.00  0.00     0.018 A 
HETATM   27  C   UNL     1      44.728 -12.074  10.118  1.00  0.00     0.015 A 
HETATM   28  C   UNL     1      44.864 -11.461  11.367  1.00  0.00     0.001 A 
HETATM   29  C   UNL     1      44.048 -10.385  11.713  1.00  0.00     0.001 A 
ENDBRANCH   2  18
TORSDOF 3
ENDMDL
MODEL 9
REMARK VINA RESULT:      -8.4      2.925      8.551
REMARK  3 active torsions:
REMARK  status: ('A' for Active; 'I' for Inactive)
REMARK    1  A    between atoms: C_7  and  C_8 
REMARK    2  A    between atoms: N_9  and  N_10 
REMARK       I    between atoms: N_10  and  C_11 
REMARK    3  A    between atoms: C_11  and  C_12 
ROOT
HETATM    1  N   UNL     1      42.132 -17.844   1.893  1.00  0.00    -0.242 N 
HETATM    2  C   UNL     1      43.508 -17.971   1.952  1.00  0.00     0.292 C 
HETATM    3  O   UNL     1      44.365 -17.367   1.327  1.00  0.00    -0.264 OA
HETATM    4  H   UNL     1      41.592 -18.302   2.626  1.00  0.00     0.192 HD
ENDROOT
BRANCH   1   5
HETATM    5  N   UNL     1      41.394 -17.018   1.083  1.00  0.00    -0.183 NA
HETATM    6  C   UNL     1      41.282 -15.762   1.371  1.00  0.00     0.153 C 
BRANCH   6   7
HETATM    7  C   UNL     1      40.500 -14.885   0.513  1.00  0.00     0.018 A 
HETATM    8  C   UNL     1      39.644 -13.902   0.997  1.00  0.00     0.018 A 
HETATM    9  C   UNL     1      39.302 -13.505   2.389  1.00  0.00     0.069 C 
HETATM   10  N   UNL     1      39.081 -13.269  -0.083  1.00  0.00    -0.358 N 
HETATM   11  H   UNL     1      38.414 -12.512  -0.032  1.00  0.00     0.166 HD
HETATM   12  C   UNL     1      39.548 -13.805  -1.257  1.00  0.00     0.043 A 
HETATM   13  C   UNL     1      40.439 -14.826  -0.919  1.00  0.00     0.004 A 
HETATM   14  C   UNL     1      39.248 -13.463  -2.581  1.00  0.00     0.030 A 
HETATM   15  C   UNL     1      41.059 -15.537  -1.969  1.00  0.00     0.014 A 
HETATM   16  C   UNL     1      40.771 -15.208  -3.300  1.00  0.00     0.001 A 
HETATM   17  C   UNL     1      39.878 -14.184  -3.599  1.00  0.00     0.002 A 
ENDBRANCH   6   7
ENDBRANCH   1   5
BRANCH   2  18
HETATM   18  C   UNL     1      43.937 -19.043   2.939  1.00  0.00     0.157 A 
HETATM   19  N   UNL     1      44.326 -20.179   2.432  1.00  0.00    -0.166 NA
HETATM   20  N   UNL     1      44.711 -21.161   3.294  1.00  0.00    -0.242 N 
HETATM   21  C   UNL     1      44.729 -21.074   4.667  1.00  0.00     0.272 A 
HETATM   22  H   UNL     1      44.977 -22.053   2.885  1.00  0.00     0.192 HD
HETATM   23  O   UNL     1      45.069 -22.010   5.380  1.00  0.00    -0.266 OA
HETATM   24  C   UNL     1      44.327 -19.777   5.240  1.00  0.00     0.046 A 
HETATM   25  C   UNL     1      43.930 -18.751   4.385  1.00  0.00     0.016 A 
HETATM   26  C   UNL     1      44.359 -19.576   6.625  1.00  0.00     0.018 A 
HETATM   27  C   UNL     1      43.575 -17.506   4.918  1.00  0.00     0.015 A 
HETATM   28  C   UNL     1      43.608 -17.303   6.301  1.00  0.00     0.001 A 
HETATM   29  C   UNL     1      43.998 -18.336   7.153  1.00  0.00     0.001 A 
ENDBRANCH   2  18
TORSDOF 3
ENDMDL
MODEL 10
REMARK VINA RESULT:      -8.4      5.879      7.175
REMARK  3 active torsions:
REMARK  status: ('A' for Active; 'I' for Inactive)
REMARK    1  A    between atoms: C_7  and  C_8 
REMARK    2  A    between atoms: N_9  and  N_10 
REMARK       I    between atoms: N_10  and  C_11 
REMARK    3  A    between atoms: C_11  and  C_12 
ROOT
HETATM    1  N   UNL     1      44.206 -14.226   7.512  1.00  0.00    -0.242 N 
HETATM    2  C   UNL     1      45.075 -13.180   7.761  1.00  0.00     0.292 C 
HETATM    3  O   UNL     1      46.076 -12.847   7.145  1.00  0.00    -0.264 OA
HETATM    4  H   UNL     1      43.325 -14.229   8.025  1.00  0.00     0.192 HD
ENDROOT
BRANCH   1   5
HETATM    5  N   UNL     1      44.280 -15.168   6.518  1.00  0.00    -0.183 NA
HETATM    6  C   UNL     1      43.256 -15.912   6.253  1.00  0.00     0.153 C 
BRANCH   6   7
HETATM    7  C   UNL     1      43.334 -16.911   5.198  1.00  0.00     0.018 A 
HETATM    8  C   UNL     1      44.173 -18.019   5.251  1.00  0.00     0.018 A 
HETATM    9  C   UNL     1      45.147 -18.456   6.287  1.00  0.00     0.069 C 
HETATM   10  N   UNL     1      43.984 -18.743   4.102  1.00  0.00    -0.358 N 
HETATM   11  H   UNL     1      44.465 -19.599   3.866  1.00  0.00     0.166 HD
HETATM   12  C   UNL     1      43.040 -18.146   3.302  1.00  0.00     0.043 A 
HETATM   13  C   UNL     1      42.615 -16.990   3.960  1.00  0.00     0.004 A 
HETATM   14  C   UNL     1      42.541 -18.542   2.056  1.00  0.00     0.030 A 
HETATM   15  C   UNL     1      41.633 -16.194   3.329  1.00  0.00     0.014 A 
HETATM   16  C   UNL     1      41.122 -16.576   2.083  1.00  0.00     0.001 A 
HETATM   17  C   UNL     1      41.570 -17.735   1.457  1.00  0.00     0.002 A 
ENDBRANCH   6   7
ENDBRANCH   1   5
BRANCH   2  18
HETATM   18  C   UNL     1      44.678 -12.393   8.998  1.00  0.00     0.157 A 
HETATM   19  N   UNL     1      45.417 -12.563  10.058  1.00  0.00    -0.166 NA
HETATM   20  N   UNL     1      45.080 -11.873  11.184  1.00  0.00    -0.242 N 
HETATM   21  C   UNL     1      44.021 -11.005  11.318  1.00  0.00     0.272 A 
HETATM   22  H   UNL     1      45.645 -12.044  12.013  1.00  0.00     0.192 HD
HETATM   23  O   UNL     1      43.767 -10.436  12.372  1.00  0.00    -0.266 OA
HETATM   24  C   UNL     1      43.208 -10.783  10.109  1.00  0.00     0.046 A 
HETATM   25  C   UNL     1      43.528 -11.470   8.940  1.00  0.00     0.016 A 
HETATM   26  C   UNL     1      42.138  -9.880  10.132  1.00  0.00     0.018 A 
HETATM   27  C   UNL     1      42.780 -11.244   7.778  1.00  0.00     0.015 A 
HETATM   28  C   UNL     1      41.712 -10.341   7.800  1.00  0.00     0.001 A 
HETATM   29  C   UNL     1      41.391  -9.662   8.975  1.00  0.00     0.001 A 
ENDBRANCH   2  18
TORSDOF 3
ENDMDL
