MODEL 1
REMARK VINA RESULT:      -8.6      0.000      0.000
REMARK  8 active torsions:
REMARK  status: ('A' for Active; 'I' for Inactive)
REMARK    1  A    between atoms: C_2  and  O_3 
REMARK    2  A    between atoms: O_3  and  C_4 
REMARK    3  A    between atoms: C_4  and  C_5 
REMARK    4  A    between atoms: C_6  and  C_8 
REMARK    5  A    between atoms: C_6  and  O_7 
REMARK    6  A    between atoms: C_16  and  C_17 
REMARK    7  A    between atoms: C_18  and  C_19 
REMARK    8  A    between atoms: N_26  and  C_27 
ROOT
HETATM    1  C   UNL     1      41.949 -14.960   3.391  1.00  0.00     0.177 C 
HETATM    2  C   UNL     1      41.488 -15.432   2.005  1.00  0.00     0.250 C 
HETATM    3  N   UNL     1      42.634 -15.917   1.253  1.00  0.00    -0.303 N 
HETATM    4  C   UNL     1      43.590 -16.701   1.797  1.00  0.00     0.319 C 
HETATM    5  O   UNL     1      44.343 -17.365   1.099  1.00  0.00    -0.247 OA
HETATM    6  N   UNL     1      43.706 -16.668   3.141  1.00  0.00    -0.333 N 
HETATM    7  C   UNL     1      42.740 -16.090   4.057  1.00  0.00     0.142 C 
HETATM    8  H   UNL     1      42.502 -16.086   0.261  1.00  0.00     0.167 HD
HETATM    9  H   UNL     1      44.415 -17.293   3.507  1.00  0.00     0.165 HD
ENDROOT
BRANCH   7  10
HETATM   10  C   UNL     1      43.521 -15.668   5.271  1.00  0.00     0.015 A 
HETATM   11  C   UNL     1      44.083 -16.494   6.294  1.00  0.00     0.097 A 
HETATM   12  N   UNL     1      44.677 -15.752   7.238  1.00  0.00    -0.167 NA
HETATM   13  N   UNL     1      44.541 -14.467   6.846  1.00  0.00    -0.244 N 
HETATM   14  C   UNL     1      43.861 -14.382   5.654  1.00  0.00     0.130 A 
BRANCH  11  15
HETATM   15  C   UNL     1      44.073 -17.953   6.415  1.00  0.00    -0.005 A 
HETATM   16  C   UNL     1      44.553 -18.773   5.386  1.00  0.00     0.014 A 
HETATM   17  C   UNL     1      44.531 -20.164   5.519  1.00  0.00     0.001 A 
HETATM   18  C   UNL     1      44.043 -20.746   6.688  1.00  0.00     0.000 A 
HETATM   19  C   UNL     1      43.583 -19.939   7.727  1.00  0.00     0.001 A 
HETATM   20  C   UNL     1      43.600 -18.550   7.592  1.00  0.00     0.014 A 
ENDBRANCH  11  15
BRANCH  13  21
HETATM   21  C   UNL     1      45.059 -13.406   7.641  1.00  0.00     0.058 A 
HETATM   22  C   UNL     1      44.290 -12.904   8.704  1.00  0.00     0.031 A 
HETATM   23  C   UNL     1      44.772 -11.858   9.491  1.00  0.00     0.002 A 
HETATM   24  C   UNL     1      46.022 -11.304   9.227  1.00  0.00     0.000 A 
HETATM   25  C   UNL     1      46.793 -11.796   8.175  1.00  0.00     0.002 A 
HETATM   26  C   UNL     1      46.317 -12.845   7.382  1.00  0.00     0.031 A 
ENDBRANCH  13  21
ENDBRANCH   7  10
BRANCH   1  27
HETATM   27  C   UNL     1      40.779 -14.562   4.261  1.00  0.00     0.270 C 
HETATM   28  O   UNL     1      40.351 -15.228   5.191  1.00  0.00    -0.265 OA
BRANCH  27  29
HETATM   29  O   UNL     1      40.286 -13.357   3.872  1.00  0.00    -0.321 OA
BRANCH  29  30
HETATM   30  C   UNL     1      41.130 -12.217   4.106  1.00  0.00     0.174 C 
HETATM   31  C   UNL     1      41.157 -11.829   5.573  1.00  0.00     0.034 C 
ENDBRANCH  29  30
ENDBRANCH  27  29
ENDBRANCH   1  27
BRANCH   2  32
HETATM   32  C   UNL     1      40.329 -16.497   2.059  1.00  0.00     0.439 C 
HETATM   33  F   UNL     1      39.106 -15.926   2.064  1.00  0.00    -0.166 F 
HETATM   34  F   UNL     1      40.384 -17.314   0.976  1.00  0.00    -0.166 F 
HETATM   35  F   UNL     1      40.416 -17.288   3.150  1.00  0.00    -0.166 F 
ENDBRANCH   2  32
BRANCH   2  36
HETATM   36  O   UNL     1      41.094 -14.294   1.229  1.00  0.00    -0.363 OA
HETATM   37  H   UNL     1      40.200 -14.495   0.904  1.00  0.00     0.213 HD
ENDBRANCH   2  36
TORSDOF 8
ENDMDL
MODEL 2
REMARK VINA RESULT:      -8.6      2.347      5.923
REMARK  8 active torsions:
REMARK  status: ('A' for Active; 'I' for Inactive)
REMARK    1  A    between atoms: C_2  and  O_3 
REMARK    2  A    between atoms: O_3  and  C_4 
REMARK    3  A    between atoms: C_4  and  C_5 
REMARK    4  A    between atoms: C_6  and  C_8 
REMARK    5  A    between atoms: C_6  and  O_7 
REMARK    6  A    between atoms: C_16  and  C_17 
REMARK    7  A    between atoms: C_18  and  C_19 
REMARK    8  A    between atoms: N_26  and  C_27 
ROOT
HETATM    1  C   UNL     1      41.540 -14.206   3.905  1.00  0.00     0.177 C 
HETATM    2  C   UNL     1      40.493 -13.104   3.695  1.00  0.00     0.250 C 
HETATM    3  N   UNL     1      39.556 -13.106   4.806  1.00  0.00    -0.303 N 
HETATM    4  C   UNL     1      39.945 -13.239   6.093  1.00  0.00     0.319 C 
HETATM    5  O   UNL     1      39.215 -12.909   7.017  1.00  0.00    -0.247 OA
HETATM    6  N   UNL     1      41.152 -13.805   6.304  1.00  0.00    -0.333 N 
HETATM    7  C   UNL     1      42.167 -14.030   5.292  1.00  0.00     0.142 C 
HETATM    8  H   UNL     1      38.711 -12.553   4.704  1.00  0.00     0.167 HD
HETATM    9  H   UNL     1      41.415 -13.857   7.282  1.00  0.00     0.165 HD
ENDROOT
BRANCH   7  10
HETATM   10  C   UNL     1      42.969 -15.212   5.765  1.00  0.00     0.015 A 
HETATM   11  C   UNL     1      44.115 -15.220   6.618  1.00  0.00     0.097 A 
HETATM   12  N   UNL     1      44.582 -16.464   6.784  1.00  0.00    -0.167 NA
HETATM   13  N   UNL     1      43.756 -17.271   6.084  1.00  0.00    -0.244 N 
HETATM   14  C   UNL     1      42.761 -16.548   5.469  1.00  0.00     0.130 A 
BRANCH  11  15
HETATM   15  C   UNL     1      44.789 -14.098   7.274  1.00  0.00    -0.005 A 
HETATM   16  C   UNL     1      46.002 -13.591   6.788  1.00  0.00     0.014 A 
HETATM   17  C   UNL     1      46.631 -12.522   7.432  1.00  0.00     0.001 A 
HETATM   18  C   UNL     1      46.047 -11.941   8.555  1.00  0.00     0.000 A 
HETATM   19  C   UNL     1      44.830 -12.422   9.035  1.00  0.00     0.001 A 
HETATM   20  C   UNL     1      44.203 -13.494   8.396  1.00  0.00     0.014 A 
ENDBRANCH  11  15
BRANCH  13  21
HETATM   21  C   UNL     1      43.978 -18.677   6.040  1.00  0.00     0.058 A 
HETATM   22  C   UNL     1      44.606 -19.238   4.916  1.00  0.00     0.031 A 
HETATM   23  C   UNL     1      44.826 -20.615   4.845  1.00  0.00     0.002 A 
HETATM   24  C   UNL     1      44.423 -21.441   5.892  1.00  0.00     0.000 A 
HETATM   25  C   UNL     1      43.799 -20.892   7.011  1.00  0.00     0.002 A 
HETATM   26  C   UNL     1      43.577 -19.513   7.090  1.00  0.00     0.031 A 
ENDBRANCH  13  21
ENDBRANCH   7  10
BRANCH   1  27
HETATM   27  C   UNL     1      42.613 -14.167   2.842  1.00  0.00     0.270 C 
HETATM   28  O   UNL     1      43.725 -13.686   2.998  1.00  0.00    -0.265 OA
BRANCH  27  29
HETATM   29  O   UNL     1      42.170 -14.754   1.699  1.00  0.00    -0.321 OA
BRANCH  29  30
HETATM   30  C   UNL     1      42.075 -16.188   1.714  1.00  0.00     0.174 C 
HETATM   31  C   UNL     1      43.443 -16.844   1.696  1.00  0.00     0.034 C 
ENDBRANCH  29  30
ENDBRANCH  27  29
ENDBRANCH   1  27
BRANCH   2  32
HETATM   32  C   UNL     1      41.122 -11.678   3.462  1.00  0.00     0.439 C 
HETATM   33  F   UNL     1      41.632 -11.538   2.219  1.00  0.00    -0.166 F 
HETATM   34  F   UNL     1      40.181 -10.712   3.620  1.00  0.00    -0.166 F 
HETATM   35  F   UNL     1      42.110 -11.410   4.342  1.00  0.00    -0.166 F 
ENDBRANCH   2  32
BRANCH   2  36
HETATM   36  O   UNL     1      39.644 -13.467   2.600  1.00  0.00    -0.363 OA
HETATM   37  H   UNL     1      38.887 -12.858   2.641  1.00  0.00     0.213 HD
ENDBRANCH   2  36
TORSDOF 8
ENDMDL
MODEL 3
REMARK VINA RESULT:      -8.2      3.048      6.943
REMARK  8 active torsions:
REMARK  status: ('A' for Active; 'I' for Inactive)
REMARK    1  A    between atoms: C_2  and  O_3 
REMARK    2  A    between atoms: O_3  and  C_4 
REMARK    3  A    between atoms: C_4  and  C_5 
REMARK    4  A    between atoms: C_6  and  C_8 
REMARK    5  A    between atoms: C_6  and  O_7 
REMARK    6  A    between atoms: C_16  and  C_17 
REMARK    7  A    between atoms: C_18  and  C_19 
REMARK    8  A    between atoms: N_26  and  C_27 
ROOT
HETATM    1  C   UNL     1      41.462 -14.192   3.933  1.00  0.00     0.177 C 
HETATM    2  C   UNL     1      40.467 -13.058   4.217  1.00  0.00     0.250 C 
HETATM    3  N   UNL     1      39.602 -12.873   3.064  1.00  0.00    -0.303 N 
HETATM    4  C   UNL     1      39.060 -13.904   2.380  1.00  0.00     0.319 C 
HETATM    5  O   UNL     1      38.093 -13.746   1.648  1.00  0.00    -0.247 OA
HETATM    6  N   UNL     1      39.676 -15.099   2.502  1.00  0.00    -0.333 N 
HETATM    7  C   UNL     1      40.680 -15.434   3.493  1.00  0.00     0.142 C 
HETATM    8  H   UNL     1      39.022 -12.039   3.046  1.00  0.00     0.167 HD
HETATM    9  H   UNL     1      39.218 -15.848   1.995  1.00  0.00     0.165 HD
ENDROOT
BRANCH   7  10
HETATM   10  C   UNL     1      41.527 -16.514   2.878  1.00  0.00     0.015 A 
HETATM   11  C   UNL     1      41.976 -16.624   1.525  1.00  0.00     0.097 A 
HETATM   12  N   UNL     1      42.680 -17.749   1.343  1.00  0.00    -0.167 NA
HETATM   13  N   UNL     1      42.724 -18.362   2.545  1.00  0.00    -0.244 N 
HETATM   14  C   UNL     1      42.051 -17.635   3.498  1.00  0.00     0.130 A 
BRANCH  11  15
HETATM   15  C   UNL     1      41.759 -15.713   0.401  1.00  0.00    -0.005 A 
HETATM   16  C   UNL     1      42.163 -14.372   0.461  1.00  0.00     0.014 A 
HETATM   17  C   UNL     1      41.943 -13.517  -0.622  1.00  0.00     0.001 A 
HETATM   18  C   UNL     1      41.332 -13.996  -1.778  1.00  0.00     0.000 A 
HETATM   19  C   UNL     1      40.945 -15.333  -1.858  1.00  0.00     0.001 A 
HETATM   20  C   UNL     1      41.160 -16.187  -0.775  1.00  0.00     0.014 A 
ENDBRANCH  11  15
BRANCH  13  21
HETATM   21  C   UNL     1      43.397 -19.607   2.702  1.00  0.00     0.058 A 
HETATM   22  C   UNL     1      43.280 -20.583   1.698  1.00  0.00     0.031 A 
HETATM   23  C   UNL     1      43.923 -21.815   1.833  1.00  0.00     0.002 A 
HETATM   24  C   UNL     1      44.685 -22.084   2.967  1.00  0.00     0.000 A 
HETATM   25  C   UNL     1      44.807 -21.121   3.968  1.00  0.00     0.002 A 
HETATM   26  C   UNL     1      44.168 -19.884   3.839  1.00  0.00     0.031 A 
ENDBRANCH  13  21
ENDBRANCH   7  10
BRANCH   1  27
HETATM   27  C   UNL     1      42.304 -14.511   5.147  1.00  0.00     0.270 C 
HETATM   28  O   UNL     1      42.100 -15.449   5.903  1.00  0.00    -0.265 OA
BRANCH  27  29
HETATM   29  O   UNL     1      43.323 -13.620   5.265  1.00  0.00    -0.321 OA
BRANCH  29  30
HETATM   30  C   UNL     1      43.780 -13.347   6.601  1.00  0.00     0.174 C 
HETATM   31  C   UNL     1      45.145 -13.956   6.864  1.00  0.00     0.034 C 
ENDBRANCH  29  30
ENDBRANCH  27  29
ENDBRANCH   1  27
BRANCH   2  32
HETATM   32  C   UNL     1      39.641 -13.267   5.542  1.00  0.00     0.439 C 
HETATM   33  F   UNL     1      40.344 -12.931   6.645  1.00  0.00    -0.166 F 
HETATM   34  F   UNL     1      38.522 -12.498   5.531  1.00  0.00    -0.166 F 
HETATM   35  F   UNL     1      39.234 -14.546   5.690  1.00  0.00    -0.166 F 
ENDBRANCH   2  32
BRANCH   2  36
HETATM   36  O   UNL     1      41.173 -11.813   4.252  1.00  0.00    -0.363 OA
HETATM   37  H   UNL     1      42.117 -12.046   4.276  1.00  0.00     0.213 HD
ENDBRANCH   2  36
TORSDOF 8
ENDMDL
MODEL 4
REMARK VINA RESULT:      -8.2      3.028      7.337
REMARK  8 active torsions:
REMARK  status: ('A' for Active; 'I' for Inactive)
REMARK    1  A    between atoms: C_2  and  O_3 
REMARK    2  A    between atoms: O_3  and  C_4 
REMARK    3  A    between atoms: C_4  and  C_5 
REMARK    4  A    between atoms: C_6  and  C_8 
REMARK    5  A    between atoms: C_6  and  O_7 
REMARK    6  A    between atoms: C_16  and  C_17 
REMARK    7  A    between atoms: C_18  and  C_19 
REMARK    8  A    between atoms: N_26  and  C_27 
ROOT
HETATM    1  C   UNL     1      43.429 -16.833   5.222  1.00  0.00     0.177 C 
HETATM    2  C   UNL     1      44.153 -17.200   6.525  1.00  0.00     0.250 C 
HETATM    3  N   UNL     1      44.912 -16.054   6.997  1.00  0.00    -0.303 N 
HETATM    4  C   UNL     1      44.420 -14.796   6.992  1.00  0.00     0.319 C 
HETATM    5  O   UNL     1      44.913 -13.915   7.682  1.00  0.00    -0.247 OA
HETATM    6  N   UNL     1      43.397 -14.551   6.146  1.00  0.00    -0.333 N 
HETATM    7  C   UNL     1      42.613 -15.558   5.456  1.00  0.00     0.142 C 
HETATM    8  H   UNL     1      45.580 -16.213   7.744  1.00  0.00     0.167 HD
HETATM    9  H   UNL     1      43.041 -13.603   6.198  1.00  0.00     0.165 HD
ENDROOT
BRANCH   7  10
HETATM   10  C   UNL     1      42.112 -14.903   4.198  1.00  0.00     0.015 A 
HETATM   11  C   UNL     1      41.311 -13.726   4.071  1.00  0.00     0.097 A 
HETATM   12  N   UNL     1      41.031 -13.472   2.785  1.00  0.00    -0.167 NA
HETATM   13  N   UNL     1      41.650 -14.435   2.070  1.00  0.00    -0.244 N 
HETATM   14  C   UNL     1      42.325 -15.306   2.891  1.00  0.00     0.130 A 
BRANCH  11  15
HETATM   15  C   UNL     1      40.794 -12.840   5.116  1.00  0.00    -0.005 A 
HETATM   16  C   UNL     1      39.798 -13.266   6.004  1.00  0.00     0.014 A 
HETATM   17  C   UNL     1      39.315 -12.403   6.993  1.00  0.00     0.001 A 
HETATM   18  C   UNL     1      39.834 -11.116   7.111  1.00  0.00     0.000 A 
HETATM   19  C   UNL     1      40.841 -10.689   6.246  1.00  0.00     0.001 A 
HETATM   20  C   UNL     1      41.319 -11.548   5.255  1.00  0.00     0.014 A 
ENDBRANCH  11  15
BRANCH  13  21
HETATM   21  C   UNL     1      41.546 -14.465   0.650  1.00  0.00     0.058 A 
HETATM   22  C   UNL     1      41.766 -13.286  -0.080  1.00  0.00     0.031 A 
HETATM   23  C   UNL     1      41.661 -13.288  -1.473  1.00  0.00     0.002 A 
HETATM   24  C   UNL     1      41.336 -14.463  -2.146  1.00  0.00     0.000 A 
HETATM   25  C   UNL     1      41.117 -15.639  -1.429  1.00  0.00     0.002 A 
HETATM   26  C   UNL     1      41.222 -15.644  -0.035  1.00  0.00     0.031 A 
ENDBRANCH  13  21
ENDBRANCH   7  10
BRANCH   1  27
HETATM   27  C   UNL     1      42.524 -17.949   4.754  1.00  0.00     0.270 C 
HETATM   28  O   UNL     1      41.305 -17.925   4.819  1.00  0.00    -0.265 OA
BRANCH  27  29
HETATM   29  O   UNL     1      43.258 -18.971   4.239  1.00  0.00    -0.321 OA
BRANCH  29  30
HETATM   30  C   UNL     1      43.929 -18.710   2.995  1.00  0.00     0.174 C 
HETATM   31  C   UNL     1      42.997 -18.876   1.808  1.00  0.00     0.034 C 
ENDBRANCH  29  30
ENDBRANCH  27  29
ENDBRANCH   1  27
BRANCH   2  32
HETATM   32  C   UNL     1      43.193 -17.766   7.638  1.00  0.00     0.439 C 
HETATM   33  F   UNL     1      43.103 -19.112   7.604  1.00  0.00    -0.166 F 
HETATM   34  F   UNL     1      43.644 -17.426   8.873  1.00  0.00    -0.166 F 
HETATM   35  F   UNL     1      41.941 -17.270   7.529  1.00  0.00    -0.166 F 
ENDBRANCH   2  32
BRANCH   2  36
HETATM   36  O   UNL     1      45.196 -18.137   6.233  1.00  0.00    -0.363 OA
HETATM   37  H   UNL     1      45.360 -18.059   5.278  1.00  0.00     0.213 HD
ENDBRANCH   2  36
TORSDOF 8
ENDMDL
MODEL 5
REMARK VINA RESULT:      -8.1      4.561      7.416
REMARK  8 active torsions:
REMARK  status: ('A' for Active; 'I' for Inactive)
REMARK    1  A    between atoms: C_2  and  O_3 
REMARK    2  A    between atoms: O_3  and  C_4 
REMARK    3  A    between atoms: C_4  and  C_5 
REMARK    4  A    between atoms: C_6  and  C_8 
REMARK    5  A    between atoms: C_6  and  O_7 
REMARK    6  A    between atoms: C_16  and  C_17 
REMARK    7  A    between atoms: C_18  and  C_19 
REMARK    8  A    between atoms: N_26  and  C_27 
ROOT
HETATM    1  C   UNL     1      41.931 -13.361  -1.564  1.00  0.00     0.177 C 
HETATM    2  C   UNL     1      41.561 -12.994  -3.008  1.00  0.00     0.250 C 
HETATM    3  N   UNL     1      41.243 -14.204  -3.749  1.00  0.00    -0.303 N 
HETATM    4  C   UNL     1      40.489 -15.201  -3.237  1.00  0.00     0.319 C 
HETATM    5  O   UNL     1      39.957 -16.033  -3.958  1.00  0.00    -0.247 OA
HETATM    6  N   UNL     1      40.401 -15.262  -1.892  1.00  0.00    -0.333 N 
HETATM    7  C   UNL     1      40.808 -14.217  -0.971  1.00  0.00     0.142 C 
HETATM    8  H   UNL     1      41.161 -14.125  -4.757  1.00  0.00     0.167 HD
HETATM    9  H   UNL     1      39.801 -16.007  -1.554  1.00  0.00     0.165 HD
ENDROOT
BRANCH   7  10
HETATM   10  C   UNL     1      41.172 -14.914   0.312  1.00  0.00     0.015 A 
HETATM   11  C   UNL     1      40.788 -14.571   1.645  1.00  0.00     0.097 A 
HETATM   12  N   UNL     1      41.341 -15.407   2.534  1.00  0.00    -0.167 NA
HETATM   13  N   UNL     1      42.053 -16.301   1.816  1.00  0.00    -0.244 N 
HETATM   14  C   UNL     1      41.959 -16.041   0.469  1.00  0.00     0.130 A 
BRANCH  11  15
HETATM   15  C   UNL     1      39.927 -13.482   2.110  1.00  0.00    -0.005 A 
HETATM   16  C   UNL     1      38.750 -13.143   1.429  1.00  0.00     0.014 A 
HETATM   17  C   UNL     1      37.943 -12.097   1.885  1.00  0.00     0.001 A 
HETATM   18  C   UNL     1      38.297 -11.392   3.034  1.00  0.00     0.000 A 
HETATM   19  C   UNL     1      39.455 -11.735   3.731  1.00  0.00     0.001 A 
HETATM   20  C   UNL     1      40.263 -12.776   3.273  1.00  0.00     0.014 A 
ENDBRANCH  11  15
BRANCH  13  21
HETATM   21  C   UNL     1      42.785 -17.336   2.464  1.00  0.00     0.058 A 
HETATM   22  C   UNL     1      43.236 -18.432   1.711  1.00  0.00     0.031 A 
HETATM   23  C   UNL     1      43.948 -19.465   2.325  1.00  0.00     0.002 A 
HETATM   24  C   UNL     1      44.213 -19.413   3.691  1.00  0.00     0.000 A 
HETATM   25  C   UNL     1      43.769 -18.328   4.446  1.00  0.00     0.002 A 
HETATM   26  C   UNL     1      43.057 -17.290   3.838  1.00  0.00     0.031 A 
ENDBRANCH  13  21
ENDBRANCH   7  10
BRANCH   1  27
HETATM   27  C   UNL     1      42.149 -12.130  -0.715  1.00  0.00     0.270 C 
HETATM   28  O   UNL     1      41.345 -11.699   0.097  1.00  0.00    -0.265 OA
BRANCH  27  29
HETATM   29  O   UNL     1      43.367 -11.584  -0.973  1.00  0.00    -0.321 OA
BRANCH  29  30
HETATM   30  C   UNL     1      43.500 -10.175  -0.725  1.00  0.00     0.174 C 
HETATM   31  C   UNL     1      43.556  -9.379  -2.016  1.00  0.00     0.034 C 
ENDBRANCH  29  30
ENDBRANCH  27  29
ENDBRANCH   1  27
BRANCH   2  32
HETATM   32  C   UNL     1      40.406 -11.927  -3.107  1.00  0.00     0.439 C 
HETATM   33  F   UNL     1      40.846 -10.672  -2.874  1.00  0.00    -0.166 F 
HETATM   34  F   UNL     1      39.858 -11.934  -4.349  1.00  0.00    -0.166 F 
HETATM   35  F   UNL     1      39.406 -12.178  -2.236  1.00  0.00    -0.166 F 
ENDBRANCH   2  32
BRANCH   2  36
HETATM   36  O   UNL     1      42.733 -12.536  -3.691  1.00  0.00    -0.363 OA
HETATM   37  H   UNL     1      43.462 -12.632  -3.055  1.00  0.00     0.213 HD
ENDBRANCH   2  36
TORSDOF 8
ENDMDL
MODEL 6
REMARK VINA RESULT:      -7.8      3.287      6.717
REMARK  8 active torsions:
REMARK  status: ('A' for Active; 'I' for Inactive)
REMARK    1  A    between atoms: C_2  and  O_3 
REMARK    2  A    between atoms: O_3  and  C_4 
REMARK    3  A    between atoms: C_4  and  C_5 
REMARK    4  A    between atoms: C_6  and  C_8 
REMARK    5  A    between atoms: C_6  and  O_7 
REMARK    6  A    between atoms: C_16  and  C_17 
REMARK    7  A    between atoms: C_18  and  C_19 
REMARK    8  A    between atoms: N_26  and  C_27 
ROOT
HETATM    1  C   UNL     1      42.099 -14.474   4.404  1.00  0.00     0.177 C 
HETATM    2  C   UNL     1      42.138 -14.481   5.938  1.00  0.00     0.250 C 
HETATM    3  N   UNL     1      41.196 -15.466   6.443  1.00  0.00    -0.303 N 
HETATM    4  C   UNL     1      41.065 -16.698   5.904  1.00  0.00     0.319 C 
HETATM    5  O   UNL     1      40.537 -17.612   6.521  1.00  0.00    -0.247 OA
HETATM    6  N   UNL     1      41.494 -16.850   4.633  1.00  0.00    -0.333 N 
HETATM    7  C   UNL     1      42.316 -15.905   3.901  1.00  0.00     0.142 C 
HETATM    8  H   UNL     1      40.988 -15.446   7.436  1.00  0.00     0.167 HD
HETATM    9  H   UNL     1      41.403 -17.796   4.280  1.00  0.00     0.165 HD
ENDROOT
BRANCH   7  10
HETATM   10  C   UNL     1      41.986 -16.108   2.447  1.00  0.00     0.015 A 
HETATM   11  C   UNL     1      42.303 -17.225   1.615  1.00  0.00     0.097 A 
HETATM   12  N   UNL     1      41.877 -17.026   0.361  1.00  0.00    -0.167 NA
HETATM   13  N   UNL     1      41.268 -15.822   0.358  1.00  0.00    -0.244 N 
HETATM   14  C   UNL     1      41.302 -15.247   1.607  1.00  0.00     0.130 A 
BRANCH  11  15
HETATM   15  C   UNL     1      42.998 -18.467   1.958  1.00  0.00    -0.005 A 
HETATM   16  C   UNL     1      42.524 -19.712   1.523  1.00  0.00     0.014 A 
HETATM   17  C   UNL     1      43.199 -20.887   1.865  1.00  0.00     0.001 A 
HETATM   18  C   UNL     1      44.362 -20.826   2.631  1.00  0.00     0.000 A 
HETATM   19  C   UNL     1      44.855 -19.592   3.051  1.00  0.00     0.001 A 
HETATM   20  C   UNL     1      44.178 -18.419   2.714  1.00  0.00     0.014 A 
ENDBRANCH  11  15
BRANCH  13  21
HETATM   21  C   UNL     1      40.703 -15.295  -0.838  1.00  0.00     0.058 A 
HETATM   22  C   UNL     1      39.809 -14.215  -0.758  1.00  0.00     0.031 A 
HETATM   23  C   UNL     1      39.235 -13.687  -1.916  1.00  0.00     0.002 A 
HETATM   24  C   UNL     1      39.547 -14.231  -3.160  1.00  0.00     0.000 A 
HETATM   25  C   UNL     1      40.434 -15.303  -3.248  1.00  0.00     0.002 A 
HETATM   26  C   UNL     1      41.014 -15.836  -2.093  1.00  0.00     0.031 A 
ENDBRANCH  13  21
ENDBRANCH   7  10
BRANCH   1  27
HETATM   27  C   UNL     1      43.149 -13.555   3.824  1.00  0.00     0.270 C 
HETATM   28  O   UNL     1      44.218 -13.929   3.365  1.00  0.00    -0.265 OA
BRANCH  27  29
HETATM   29  O   UNL     1      42.730 -12.264   3.872  1.00  0.00    -0.321 OA
BRANCH  29  30
HETATM   30  C   UNL     1      41.469 -11.979   3.243  1.00  0.00     0.174 C 
HETATM   31  C   UNL     1      40.740 -10.841   3.934  1.00  0.00     0.034 C 
ENDBRANCH  29  30
ENDBRANCH  27  29
ENDBRANCH   1  27
BRANCH   2  32
HETATM   32  C   UNL     1      43.583 -14.695   6.528  1.00  0.00     0.439 C 
HETATM   33  F   UNL     1      43.557 -15.124   7.808  1.00  0.00    -0.166 F 
HETATM   34  F   UNL     1      44.257 -15.627   5.807  1.00  0.00    -0.166 F 
HETATM   35  F   UNL     1      44.319 -13.564   6.491  1.00  0.00    -0.166 F 
ENDBRANCH   2  32
BRANCH   2  36
HETATM   36  O   UNL     1      41.568 -13.261   6.427  1.00  0.00    -0.363 OA
HETATM   37  H   UNL     1      40.655 -13.245   6.093  1.00  0.00     0.213 HD
ENDBRANCH   2  36
TORSDOF 8
ENDMDL
MODEL 7
REMARK VINA RESULT:      -7.6      4.507      7.594
REMARK  8 active torsions:
REMARK  status: ('A' for Active; 'I' for Inactive)
REMARK    1  A    between atoms: C_2  and  O_3 
REMARK    2  A    between atoms: O_3  and  C_4 
REMARK    3  A    between atoms: C_4  and  C_5 
REMARK    4  A    between atoms: C_6  and  C_8 
REMARK    5  A    between atoms: C_6  and  O_7 
REMARK    6  A    between atoms: C_16  and  C_17 
REMARK    7  A    between atoms: C_18  and  C_19 
REMARK    8  A    between atoms: N_26  and  C_27 
ROOT
HETATM    1  C   UNL     1      40.956 -11.825   1.641  1.00  0.00     0.177 C 
HETATM    2  C   UNL     1      41.058 -10.313   1.397  1.00  0.00     0.250 C 
HETATM    3  N   UNL     1      42.328 -10.010   0.759  1.00  0.00    -0.303 N 
HETATM    4  C   UNL     1      42.840 -10.752  -0.247  1.00  0.00     0.319 C 
HETATM    5  O   UNL     1      43.710 -10.313  -0.985  1.00  0.00    -0.247 OA
HETATM    6  N   UNL     1      42.382 -12.017  -0.357  1.00  0.00    -0.333 N 
HETATM    7  C   UNL     1      41.217 -12.555   0.320  1.00  0.00     0.142 C 
HETATM    8  H   UNL     1      42.603  -9.034   0.709  1.00  0.00     0.167 HD
HETATM    9  H   UNL     1      42.771 -12.526  -1.143  1.00  0.00     0.165 HD
ENDROOT
BRANCH   7  10
HETATM   10  C   UNL     1      41.467 -14.031   0.465  1.00  0.00     0.015 A 
HETATM   11  C   UNL     1      40.995 -15.096  -0.363  1.00  0.00     0.097 A 
HETATM   12  N   UNL     1      41.394 -16.285   0.108  1.00  0.00    -0.167 NA
HETATM   13  N   UNL     1      42.136 -16.023   1.205  1.00  0.00    -0.244 N 
HETATM   14  C   UNL     1      42.214 -14.671   1.440  1.00  0.00     0.130 A 
BRANCH  11  15
HETATM   15  C   UNL     1      40.176 -15.032  -1.574  1.00  0.00    -0.005 A 
HETATM   16  C   UNL     1      40.512 -15.764  -2.721  1.00  0.00     0.014 A 
HETATM   17  C   UNL     1      39.720 -15.686  -3.869  1.00  0.00     0.001 A 
HETATM   18  C   UNL     1      38.577 -14.889  -3.877  1.00  0.00     0.000 A 
HETATM   19  C   UNL     1      38.221 -14.173  -2.735  1.00  0.00     0.001 A 
HETATM   20  C   UNL     1      39.015 -14.246  -1.590  1.00  0.00     0.014 A 
ENDBRANCH  11  15
BRANCH  13  21
HETATM   21  C   UNL     1      42.712 -17.083   1.962  1.00  0.00     0.058 A 
HETATM   22  C   UNL     1      42.431 -17.178   3.334  1.00  0.00     0.031 A 
HETATM   23  C   UNL     1      42.992 -18.202   4.100  1.00  0.00     0.002 A 
HETATM   24  C   UNL     1      43.835 -19.137   3.505  1.00  0.00     0.000 A 
HETATM   25  C   UNL     1      44.120 -19.050   2.143  1.00  0.00     0.002 A 
HETATM   26  C   UNL     1      43.561 -18.028   1.369  1.00  0.00     0.031 A 
ENDBRANCH  13  21
ENDBRANCH   7  10
BRANCH   1  27
HETATM   27  C   UNL     1      39.602 -12.211   2.189  1.00  0.00     0.270 C 
HETATM   28  O   UNL     1      38.693 -12.681   1.520  1.00  0.00    -0.265 OA
BRANCH  27  29
HETATM   29  O   UNL     1      39.546 -11.977   3.526  1.00  0.00    -0.321 OA
BRANCH  29  30
HETATM   30  C   UNL     1      40.437 -12.750   4.347  1.00  0.00     0.174 C 
HETATM   31  C   UNL     1      40.013 -14.205   4.424  1.00  0.00     0.034 C 
ENDBRANCH  29  30
ENDBRANCH  27  29
ENDBRANCH   1  27
BRANCH   2  32
HETATM   32  C   UNL     1      39.841  -9.726   0.588  1.00  0.00     0.439 C 
HETATM   33  F   UNL     1      38.750  -9.543   1.362  1.00  0.00    -0.166 F 
HETATM   34  F   UNL     1      40.162  -8.518   0.057  1.00  0.00    -0.166 F 
HETATM   35  F   UNL     1      39.483 -10.523  -0.441  1.00  0.00    -0.166 F 
ENDBRANCH   2  32
BRANCH   2  36
HETATM   36  O   UNL     1      41.200  -9.644   2.655  1.00  0.00    -0.363 OA
HETATM   37  H   UNL     1      40.310  -9.632   3.048  1.00  0.00     0.213 HD
ENDBRANCH   2  36
TORSDOF 8
ENDMDL
MODEL 8
REMARK VINA RESULT:      -7.4      4.650      7.737
REMARK  8 active torsions:
REMARK  status: ('A' for Active; 'I' for Inactive)
REMARK    1  A    between atoms: C_2  and  O_3 
REMARK    2  A    between atoms: O_3  and  C_4 
REMARK    3  A    between atoms: C_4  and  C_5 
REMARK    4  A    between atoms: C_6  and  C_8 
REMARK    5  A    between atoms: C_6  and  O_7 
REMARK    6  A    between atoms: C_16  and  C_17 
REMARK    7  A    between atoms: C_18  and  C_19 
REMARK    8  A    between atoms: N_26  and  C_27 
ROOT
HETATM    1  C   UNL     1      40.674 -13.074  -1.268  1.00  0.00     0.177 C 
HETATM    2  C   UNL     1      41.116 -12.001  -2.273  1.00  0.00     0.250 C 
HETATM    3  N   UNL     1      41.647 -10.854  -1.556  1.00  0.00    -0.303 N 
HETATM    4  C   UNL     1      42.476 -10.970  -0.496  1.00  0.00     0.319 C 
HETATM    5  O   UNL     1      43.169 -10.035  -0.121  1.00  0.00    -0.247 OA
HETATM    6  N   UNL     1      42.457 -12.151   0.159  1.00  0.00    -0.333 N 
HETATM    7  C   UNL     1      41.843 -13.374  -0.324  1.00  0.00     0.142 C 
HETATM    8  H   UNL     1      41.804 -10.003  -2.088  1.00  0.00     0.167 HD
HETATM    9  H   UNL     1      43.116 -12.203   0.928  1.00  0.00     0.165 HD
ENDROOT
BRANCH   7  10
HETATM   10  C   UNL     1      41.464 -14.159   0.902  1.00  0.00     0.015 A 
HETATM   11  C   UNL     1      40.277 -14.052   1.691  1.00  0.00     0.097 A 
HETATM   12  N   UNL     1      40.315 -14.894   2.732  1.00  0.00    -0.167 NA
HETATM   13  N   UNL     1      41.481 -15.565   2.630  1.00  0.00    -0.244 N 
HETATM   14  C   UNL     1      42.193 -15.157   1.526  1.00  0.00     0.130 A 
BRANCH  11  15
HETATM   15  C   UNL     1      39.115 -13.182   1.501  1.00  0.00    -0.005 A 
HETATM   16  C   UNL     1      37.960 -13.639   0.854  1.00  0.00     0.014 A 
HETATM   17  C   UNL     1      36.863 -12.791   0.679  1.00  0.00     0.001 A 
HETATM   18  C   UNL     1      36.906 -11.485   1.162  1.00  0.00     0.000 A 
HETATM   19  C   UNL     1      38.042 -11.026   1.827  1.00  0.00     0.001 A 
HETATM   20  C   UNL     1      39.139 -11.871   1.997  1.00  0.00     0.014 A 
ENDBRANCH  11  15
BRANCH  13  21
HETATM   21  C   UNL     1      41.844 -16.544   3.598  1.00  0.00     0.058 A 
HETATM   22  C   UNL     1      42.698 -17.595   3.226  1.00  0.00     0.031 A 
HETATM   23  C   UNL     1      43.060 -18.572   4.155  1.00  0.00     0.002 A 
HETATM   24  C   UNL     1      42.576 -18.509   5.459  1.00  0.00     0.000 A 
HETATM   25  C   UNL     1      41.728 -17.469   5.837  1.00  0.00     0.002 A 
HETATM   26  C   UNL     1      41.362 -16.486   4.913  1.00  0.00     0.031 A 
ENDBRANCH  13  21
ENDBRANCH   7  10
BRANCH   1  27
HETATM   27  C   UNL     1      40.230 -14.340  -1.963  1.00  0.00     0.270 C 
HETATM   28  O   UNL     1      40.885 -15.370  -2.007  1.00  0.00    -0.265 OA
BRANCH  27  29
HETATM   29  O   UNL     1      39.000 -14.172  -2.514  1.00  0.00    -0.321 OA
BRANCH  29  30
HETATM   30  C   UNL     1      38.635 -15.095  -3.553  1.00  0.00     0.174 C 
HETATM   31  C   UNL     1      37.157 -15.011  -3.887  1.00  0.00     0.034 C 
ENDBRANCH  29  30
ENDBRANCH  27  29
ENDBRANCH   1  27
BRANCH   2  32
HETATM   32  C   UNL     1      42.129 -12.535  -3.355  1.00  0.00     0.439 C 
HETATM   33  F   UNL     1      41.535 -13.337  -4.264  1.00  0.00    -0.166 F 
HETATM   34  F   UNL     1      42.687 -11.502  -4.036  1.00  0.00    -0.166 F 
HETATM   35  F   UNL     1      43.145 -13.231  -2.799  1.00  0.00    -0.166 F 
ENDBRANCH   2  32
BRANCH   2  36
HETATM   36  O   UNL     1      39.957 -11.439  -2.899  1.00  0.00    -0.363 OA
HETATM   37  H   UNL     1      39.542 -12.171  -3.388  1.00  0.00     0.213 HD
ENDBRANCH   2  36
TORSDOF 8
ENDMDL
MODEL 9
REMARK VINA RESULT:      -7.3      3.528      7.147
REMARK  8 active torsions:
REMARK  status: ('A' for Active; 'I' for Inactive)
REMARK    1  A    between atoms: C_2  and  O_3 
REMARK    2  A    between atoms: O_3  and  C_4 
REMARK    3  A    between atoms: C_4  and  C_5 
REMARK    4  A    between atoms: C_6  and  C_8 
REMARK    5  A    between atoms: C_6  and  O_7 
REMARK    6  A    between atoms: C_16  and  C_17 
REMARK    7  A    between atoms: C_18  and  C_19 
REMARK    8  A    between atoms: N_26  and  C_27 
ROOT
HETATM    1  C   UNL     1      40.546 -13.247   1.568  1.00  0.00     0.177 C 
HETATM    2  C   UNL     1      39.360 -12.275   1.636  1.00  0.00     0.250 C 
HETATM    3  N   UNL     1      38.219 -12.854   0.947  1.00  0.00    -0.303 N 
HETATM    4  C   UNL     1      37.860 -14.150   1.083  1.00  0.00     0.319 C 
HETATM    5  O   UNL     1      36.739 -14.536   0.783  1.00  0.00    -0.247 OA
HETATM    6  N   UNL     1      38.817 -15.000   1.510  1.00  0.00    -0.333 N 
HETATM    7  C   UNL     1      40.091 -14.615   2.088  1.00  0.00     0.142 C 
HETATM    8  H   UNL     1      37.430 -12.244   0.758  1.00  0.00     0.167 HD
HETATM    9  H   UNL     1      38.495 -15.954   1.626  1.00  0.00     0.165 HD
ENDROOT
BRANCH   7  10
HETATM   10  C   UNL     1      41.041 -15.741   1.784  1.00  0.00     0.015 A 
HETATM   11  C   UNL     1      41.598 -16.114   0.522  1.00  0.00     0.097 A 
HETATM   12  N   UNL     1      42.375 -17.199   0.642  1.00  0.00    -0.167 NA
HETATM   13  N   UNL     1      42.361 -17.528   1.951  1.00  0.00    -0.244 N 
HETATM   14  C   UNL     1      41.577 -16.658   2.672  1.00  0.00     0.130 A 
BRANCH  11  15
HETATM   15  C   UNL     1      41.419 -15.490  -0.790  1.00  0.00    -0.005 A 
HETATM   16  C   UNL     1      41.882 -14.193  -1.049  1.00  0.00     0.014 A 
HETATM   17  C   UNL     1      41.696 -13.613  -2.307  1.00  0.00     0.001 A 
HETATM   18  C   UNL     1      41.061 -14.329  -3.320  1.00  0.00     0.000 A 
HETATM   19  C   UNL     1      40.615 -15.627  -3.080  1.00  0.00     0.001 A 
HETATM   20  C   UNL     1      40.795 -16.205  -1.822  1.00  0.00     0.014 A 
ENDBRANCH  11  15
BRANCH  13  21
HETATM   21  C   UNL     1      43.088 -18.657   2.425  1.00  0.00     0.058 A 
HETATM   22  C   UNL     1      43.702 -18.599   3.686  1.00  0.00     0.031 A 
HETATM   23  C   UNL     1      44.428 -19.689   4.169  1.00  0.00     0.002 A 
HETATM   24  C   UNL     1      44.547 -20.844   3.399  1.00  0.00     0.000 A 
HETATM   25  C   UNL     1      43.941 -20.910   2.145  1.00  0.00     0.002 A 
HETATM   26  C   UNL     1      43.210 -19.822   1.656  1.00  0.00     0.031 A 
ENDBRANCH  13  21
ENDBRANCH   7  10
BRANCH   1  27
HETATM   27  C   UNL     1      41.722 -12.749   2.376  1.00  0.00     0.270 C 
HETATM   28  O   UNL     1      42.460 -11.839   2.034  1.00  0.00    -0.265 OA
BRANCH  27  29
HETATM   29  O   UNL     1      41.828 -13.446   3.538  1.00  0.00    -0.321 OA
BRANCH  29  30
HETATM   30  C   UNL     1      42.607 -12.834   4.580  1.00  0.00     0.174 C 
HETATM   31  C   UNL     1      41.768 -12.540   5.810  1.00  0.00     0.034 C 
ENDBRANCH  29  30
ENDBRANCH  27  29
ENDBRANCH   1  27
BRANCH   2  32
HETATM   32  C   UNL     1      38.996 -11.832   3.103  1.00  0.00     0.439 C 
HETATM   33  F   UNL     1      39.866 -10.925   3.597  1.00  0.00    -0.166 F 
HETATM   34  F   UNL     1      37.764 -11.264   3.136  1.00  0.00    -0.166 F 
HETATM   35  F   UNL     1      38.968 -12.878   3.957  1.00  0.00    -0.166 F 
ENDBRANCH   2  32
BRANCH   2  36
HETATM   36  O   UNL     1      39.642 -11.134   0.818  1.00  0.00    -0.363 OA
HETATM   37  H   UNL     1      40.604 -11.002   0.874  1.00  0.00     0.213 HD
ENDBRANCH   2  36
TORSDOF 8
ENDMDL
MODEL 10
REMARK VINA RESULT:      -7.3      2.414      5.434
REMARK  8 active torsions:
REMARK  status: ('A' for Active; 'I' for Inactive)
REMARK    1  A    between atoms: C_2  and  O_3 
REMARK    2  A    between atoms: O_3  and  C_4 
REMARK    3  A    between atoms: C_4  and  C_5 
REMARK    4  A    between atoms: C_6  and  C_8 
REMARK    5  A    between atoms: C_6  and  O_7 
REMARK    6  A    between atoms: C_16  and  C_17 
REMARK    7  A    between atoms: C_18  and  C_19 
REMARK    8  A    between atoms: N_26  and  C_27 
ROOT
HETATM    1  C   UNL     1      41.309 -14.669   4.797  1.00  0.00     0.177 C 
HETATM    2  C   UNL     1      41.352 -15.390   3.443  1.00  0.00     0.250 C 
HETATM    3  N   UNL     1      41.463 -14.411   2.375  1.00  0.00    -0.303 N 
HETATM    4  C   UNL     1      42.289 -13.344   2.441  1.00  0.00     0.319 C 
HETATM    5  O   UNL     1      42.623 -12.732   1.436  1.00  0.00    -0.247 OA
HETATM    6  N   UNL     1      42.678 -12.957   3.674  1.00  0.00    -0.333 N 
HETATM    7  C   UNL     1      42.515 -13.730   4.891  1.00  0.00     0.142 C 
HETATM    8  H   UNL     1      41.317 -14.738   1.425  1.00  0.00     0.167 HD
HETATM    9  H   UNL     1      43.320 -12.172   3.673  1.00  0.00     0.165 HD
ENDROOT
BRANCH   7  10
HETATM   10  C   UNL     1      42.435 -12.728   6.010  1.00  0.00     0.015 A 
HETATM   11  C   UNL     1      41.606 -11.568   6.103  1.00  0.00     0.097 A 
HETATM   12  N   UNL     1      41.844 -10.896   7.238  1.00  0.00    -0.167 NA
HETATM   13  N   UNL     1      42.786 -11.601   7.900  1.00  0.00    -0.244 N 
HETATM   14  C   UNL     1      43.154 -12.722   7.193  1.00  0.00     0.130 A 
BRANCH  11  15
HETATM   15  C   UNL     1      40.606 -11.067   5.159  1.00  0.00    -0.005 A 
HETATM   16  C   UNL     1      40.877  -9.979   4.318  1.00  0.00     0.014 A 
HETATM   17  C   UNL     1      39.907  -9.514   3.427  1.00  0.00     0.001 A 
HETATM   18  C   UNL     1      38.664 -10.140   3.356  1.00  0.00     0.000 A 
HETATM   19  C   UNL     1      38.391 -11.237   4.172  1.00  0.00     0.001 A 
HETATM   20  C   UNL     1      39.357 -11.699   5.067  1.00  0.00     0.014 A 
ENDBRANCH  11  15
BRANCH  13  21
HETATM   21  C   UNL     1      43.281 -11.151   9.157  1.00  0.00     0.058 A 
HETATM   22  C   UNL     1      42.441 -10.401   9.997  1.00  0.00     0.031 A 
HETATM   23  C   UNL     1      42.906  -9.941  11.230  1.00  0.00     0.002 A 
HETATM   24  C   UNL     1      44.208 -10.224  11.635  1.00  0.00     0.000 A 
HETATM   25  C   UNL     1      45.048 -10.968  10.807  1.00  0.00     0.002 A 
HETATM   26  C   UNL     1      44.589 -11.434   9.571  1.00  0.00     0.031 A 
ENDBRANCH  13  21
ENDBRANCH   7  10
BRANCH   1  27
HETATM   27  C   UNL     1      41.319 -15.646   5.949  1.00  0.00     0.270 C 
HETATM   28  O   UNL     1      40.357 -16.310   6.302  1.00  0.00    -0.265 OA
BRANCH  27  29
HETATM   29  O   UNL     1      42.550 -15.690   6.523  1.00  0.00    -0.321 OA
BRANCH  29  30
HETATM   30  C   UNL     1      42.882 -16.896   7.230  1.00  0.00     0.174 C 
HETATM   31  C   UNL     1      44.258 -17.411   6.850  1.00  0.00     0.034 C 
ENDBRANCH  29  30
ENDBRANCH  27  29
ENDBRANCH   1  27
BRANCH   2  32
HETATM   32  C   UNL     1      42.479 -16.487   3.352  1.00  0.00     0.439 C 
HETATM   33  F   UNL     1      42.169 -17.602   4.047  1.00  0.00    -0.166 F 
HETATM   34  F   UNL     1      42.676 -16.861   2.062  1.00  0.00    -0.166 F 
HETATM   35  F   UNL     1      43.665 -16.034   3.813  1.00  0.00    -0.166 F 
ENDBRANCH   2  32
BRANCH   2  36
HETATM   36  O   UNL     1      40.066 -15.963   3.176  1.00  0.00    -0.363 OA
HETATM   37  H   UNL     1      39.674 -15.414   2.476  1.00  0.00     0.213 HD
ENDBRANCH   2  36
TORSDOF 8
ENDMDL
