MODEL 1
REMARK VINA RESULT:      -8.2      0.000      0.000
REMARK  4 active torsions:
REMARK  status: ('A' for Active; 'I' for Inactive)
REMARK    1  A    between atoms: O_2  and  C_3 
REMARK    2  A    between atoms: C_4  and  C_5 
REMARK    3  A    between atoms: C_9  and  N_10 
REMARK    4  A    between atoms: C_13  and  C_14 
ROOT
HETATM    1  C   UNL     1      41.000 -14.524   2.644  1.00  0.00     0.167 C 
HETATM    2  N   UNL     1      40.578 -14.459   4.046  1.00  0.00    -0.074 N 
HETATM    3  C   UNL     1      40.892 -15.406   4.990  1.00  0.00     0.736 A 
HETATM    4  N   UNL     1      40.474 -14.999   6.160  1.00  0.00     0.131 NA
HETATM    5  C   UNL     1      39.979 -13.759   5.894  1.00  0.00     0.753 A 
HETATM    6  N   UNL     1      40.043 -13.367   4.624  1.00  0.00     0.037 NA
HETATM    7  N   UNL     1      41.567 -16.528   4.662  1.00  0.00    -0.214 N 
HETATM    8  C   UNL     1      42.386 -16.474   3.457  1.00  0.00     0.135 C 
HETATM    9  C   UNL     1      41.529 -15.935   2.302  1.00  0.00     0.063 C 
HETATM   10  H   UNL     1      41.980 -17.031   5.444  1.00  0.00     0.178 HD
ENDROOT
BRANCH   1  11
HETATM   11  C   UNL     1      39.927 -14.115   1.636  1.00  0.00     0.001 A 
HETATM   12  C   UNL     1      40.274 -13.280   0.554  1.00  0.00     0.076 A 
HETATM   13  C   UNL     1      39.306 -12.889  -0.378  1.00  0.00     0.037 A 
HETATM   14  C   UNL     1      37.997 -13.356  -0.272  1.00  0.00     0.003 A 
HETATM   15  C   UNL     1      37.650 -14.215   0.765  1.00  0.00     0.001 A 
HETATM   16  C   UNL     1      38.606 -14.596   1.709  1.00  0.00     0.012 A 
BRANCH  12  17
HETATM   17  O   UNL     1      41.581 -12.862   0.494  1.00  0.00    -0.355 OA
HETATM   18  C   UNL     1      42.046 -12.511  -0.807  1.00  0.00     0.210 C 
ENDBRANCH  12  17
ENDBRANCH   1  11
BRANCH   8  19
HETATM   19  C   UNL     1      42.958 -17.847   3.163  1.00  0.00    -0.035 A 
HETATM   20  C   UNL     1      43.831 -18.488   4.059  1.00  0.00     0.010 A 
HETATM   21  C   UNL     1      44.333 -19.760   3.780  1.00  0.00     0.019 A 
HETATM   22  C   UNL     1      43.976 -20.401   2.596  1.00  0.00     0.011 A 
HETATM   23 BR   UNL     1      44.652 -22.125   2.217  1.00  0.00    -0.051 Br
HETATM   24  C   UNL     1      43.124 -19.777   1.687  1.00  0.00     0.019 A 
HETATM   25  C   UNL     1      42.619 -18.506   1.970  1.00  0.00     0.010 A 
ENDBRANCH   8  19
BRANCH   5  26
HETATM   26  N   UNL     1      39.472 -13.048   6.898  1.00  0.00    -0.229 N 
HETATM   27  H   UNL     1      40.037 -12.284   7.241  1.00  0.00     0.174 HD
HETATM   28  H   UNL     1      38.968 -13.562   7.607  1.00  0.00     0.174 HD
ENDBRANCH   5  26
TORSDOF 4
ENDMDL
MODEL 2
REMARK VINA RESULT:      -7.7      3.674      6.907
REMARK  4 active torsions:
REMARK  status: ('A' for Active; 'I' for Inactive)
REMARK    1  A    between atoms: O_2  and  C_3 
REMARK    2  A    between atoms: C_4  and  C_5 
REMARK    3  A    between atoms: C_9  and  N_10 
REMARK    4  A    between atoms: C_13  and  C_14 
ROOT
HETATM    1  C   UNL     1      42.034 -16.427   4.320  1.00  0.00     0.167 C 
HETATM    2  N   UNL     1      42.801 -15.398   5.027  1.00  0.00    -0.074 N 
HETATM    3  C   UNL     1      42.505 -14.057   4.996  1.00  0.00     0.736 A 
HETATM    4  N   UNL     1      43.298 -13.424   5.820  1.00  0.00     0.131 NA
HETATM    5  C   UNL     1      44.011 -14.432   6.394  1.00  0.00     0.753 A 
HETATM    6  N   UNL     1      43.729 -15.660   5.967  1.00  0.00     0.037 NA
HETATM    7  N   UNL     1      41.503 -13.577   4.229  1.00  0.00    -0.214 N 
HETATM    8  C   UNL     1      40.446 -14.514   3.866  1.00  0.00     0.135 C 
HETATM    9  C   UNL     1      41.089 -15.780   3.281  1.00  0.00     0.063 C 
HETATM   10  H   UNL     1      41.187 -12.639   4.464  1.00  0.00     0.178 HD
ENDROOT
BRANCH   1  11
HETATM   11  C   UNL     1      42.883 -17.505   3.648  1.00  0.00     0.001 A 
HETATM   12  C   UNL     1      43.201 -18.681   4.359  1.00  0.00     0.076 A 
HETATM   13  C   UNL     1      43.982 -19.679   3.764  1.00  0.00     0.037 A 
HETATM   14  C   UNL     1      44.416 -19.541   2.447  1.00  0.00     0.003 A 
HETATM   15  C   UNL     1      44.073 -18.407   1.719  1.00  0.00     0.001 A 
HETATM   16  C   UNL     1      43.309 -17.400   2.311  1.00  0.00     0.012 A 
BRANCH  12  17
HETATM   17  O   UNL     1      42.735 -18.765   5.647  1.00  0.00    -0.355 OA
HETATM   18  C   UNL     1      43.654 -19.311   6.590  1.00  0.00     0.210 C 
ENDBRANCH  12  17
ENDBRANCH   1  11
BRANCH   8  19
HETATM   19  C   UNL     1      39.484 -13.853   2.899  1.00  0.00    -0.035 A 
HETATM   20  C   UNL     1      38.860 -14.579   1.870  1.00  0.00     0.010 A 
HETATM   21  C   UNL     1      37.961 -13.958   1.000  1.00  0.00     0.019 A 
HETATM   22  C   UNL     1      37.685 -12.600   1.145  1.00  0.00     0.011 A 
HETATM   23 BR   UNL     1      36.466 -11.758  -0.028  1.00  0.00    -0.051 Br
HETATM   24  C   UNL     1      38.303 -11.858   2.150  1.00  0.00     0.019 A 
HETATM   25  C   UNL     1      39.199 -12.483   3.021  1.00  0.00     0.010 A 
ENDBRANCH   8  19
BRANCH   5  26
HETATM   26  N   UNL     1      44.922 -14.122   7.311  1.00  0.00    -0.229 N 
HETATM   27  H   UNL     1      45.640 -13.468   7.033  1.00  0.00     0.174 HD
HETATM   28  H   UNL     1      45.235 -14.874   7.911  1.00  0.00     0.174 HD
ENDBRANCH   5  26
TORSDOF 4
ENDMDL
MODEL 3
REMARK VINA RESULT:      -7.7      1.943      2.671
REMARK  4 active torsions:
REMARK  status: ('A' for Active; 'I' for Inactive)
REMARK    1  A    between atoms: O_2  and  C_3 
REMARK    2  A    between atoms: C_4  and  C_5 
REMARK    3  A    between atoms: C_9  and  N_10 
REMARK    4  A    between atoms: C_13  and  C_14 
ROOT
HETATM    1  C   UNL     1      42.054 -14.764   0.697  1.00  0.00     0.167 C 
HETATM    2  N   UNL     1      41.033 -14.394   1.681  1.00  0.00    -0.074 N 
HETATM    3  C   UNL     1      40.756 -15.119   2.814  1.00  0.00     0.736 A 
HETATM    4  N   UNL     1      39.886 -14.466   3.539  1.00  0.00     0.131 NA
HETATM    5  C   UNL     1      39.719 -13.306   2.845  1.00  0.00     0.753 A 
HETATM    6  N   UNL     1      40.416 -13.198   1.717  1.00  0.00     0.037 NA
HETATM    7  N   UNL     1      41.374 -16.293   3.066  1.00  0.00    -0.214 N 
HETATM    8  C   UNL     1      42.663 -16.508   2.420  1.00  0.00     0.135 C 
HETATM    9  C   UNL     1      42.518 -16.221   0.919  1.00  0.00     0.063 C 
HETATM   10  H   UNL     1      41.311 -16.620   4.027  1.00  0.00     0.178 HD
ENDROOT
BRANCH   1  11
HETATM   11  C   UNL     1      41.634 -14.570  -0.759  1.00  0.00     0.001 A 
HETATM   12  C   UNL     1      42.010 -13.392  -1.438  1.00  0.00     0.076 A 
HETATM   13  C   UNL     1      41.633 -13.191  -2.771  1.00  0.00     0.037 A 
HETATM   14  C   UNL     1      40.918 -14.173  -3.456  1.00  0.00     0.003 A 
HETATM   15  C   UNL     1      40.578 -15.358  -2.813  1.00  0.00     0.001 A 
HETATM   16  C   UNL     1      40.937 -15.558  -1.478  1.00  0.00     0.012 A 
BRANCH  12  17
HETATM   17  O   UNL     1      42.724 -12.468  -0.716  1.00  0.00    -0.355 OA
HETATM   18  C   UNL     1      42.833 -11.180  -1.320  1.00  0.00     0.210 C 
ENDBRANCH  12  17
ENDBRANCH   1  11
BRANCH   8  19
HETATM   19  C   UNL     1      43.148 -17.918   2.697  1.00  0.00    -0.035 A 
HETATM   20  C   UNL     1      43.099 -18.919   1.712  1.00  0.00     0.010 A 
HETATM   21  C   UNL     1      43.568 -20.207   1.979  1.00  0.00     0.019 A 
HETATM   22  C   UNL     1      44.080 -20.510   3.239  1.00  0.00     0.011 A 
HETATM   23 BR   UNL     1      44.717 -22.252   3.602  1.00  0.00    -0.051 Br
HETATM   24  C   UNL     1      44.123 -19.536   4.235  1.00  0.00     0.019 A 
HETATM   25  C   UNL     1      43.658 -18.247   3.964  1.00  0.00     0.010 A 
ENDBRANCH   8  19
BRANCH   5  26
HETATM   26  N   UNL     1      38.883 -12.392   3.329  1.00  0.00    -0.229 N 
HETATM   27  H   UNL     1      38.325 -11.887   2.655  1.00  0.00     0.174 HD
HETATM   28  H   UNL     1      39.217 -11.841   4.108  1.00  0.00     0.174 HD
ENDBRANCH   5  26
TORSDOF 4
ENDMDL
MODEL 4
REMARK VINA RESULT:      -7.6      4.058      6.983
REMARK  4 active torsions:
REMARK  status: ('A' for Active; 'I' for Inactive)
REMARK    1  A    between atoms: O_2  and  C_3 
REMARK    2  A    between atoms: C_4  and  C_5 
REMARK    3  A    between atoms: C_9  and  N_10 
REMARK    4  A    between atoms: C_13  and  C_14 
ROOT
HETATM    1  C   UNL     1      43.119 -15.849   4.150  1.00  0.00     0.167 C 
HETATM    2  N   UNL     1      41.724 -15.553   3.814  1.00  0.00    -0.074 N 
HETATM    3  C   UNL     1      40.981 -14.564   4.412  1.00  0.00     0.736 A 
HETATM    4  N   UNL     1      39.823 -14.477   3.811  1.00  0.00     0.131 NA
HETATM    5  C   UNL     1      39.934 -15.380   2.798  1.00  0.00     0.753 A 
HETATM    6  N   UNL     1      41.085 -16.046   2.736  1.00  0.00     0.037 NA
HETATM    7  N   UNL     1      41.478 -13.828   5.428  1.00  0.00    -0.214 N 
HETATM    8  C   UNL     1      42.930 -13.737   5.524  1.00  0.00     0.135 C 
HETATM    9  C   UNL     1      43.518 -15.155   5.472  1.00  0.00     0.063 C 
HETATM   10  H   UNL     1      40.977 -12.965   5.626  1.00  0.00     0.178 HD
ENDROOT
BRANCH   1  11
HETATM   11  C   UNL     1      43.454 -17.338   4.225  1.00  0.00     0.001 A 
HETATM   12  C   UNL     1      44.008 -17.983   3.100  1.00  0.00     0.076 A 
HETATM   13  C   UNL     1      44.317 -19.347   3.145  1.00  0.00     0.037 A 
HETATM   14  C   UNL     1      44.122 -20.074   4.318  1.00  0.00     0.003 A 
HETATM   15  C   UNL     1      43.617 -19.442   5.449  1.00  0.00     0.001 A 
HETATM   16  C   UNL     1      43.291 -18.086   5.407  1.00  0.00     0.012 A 
BRANCH  12  17
HETATM   17  O   UNL     1      44.189 -17.212   1.978  1.00  0.00    -0.355 OA
HETATM   18  C   UNL     1      43.564 -17.707   0.795  1.00  0.00     0.210 C 
ENDBRANCH  12  17
ENDBRANCH   1  11
BRANCH   8  19
HETATM   19  C   UNL     1      43.317 -12.995   6.788  1.00  0.00    -0.035 A 
HETATM   20  C   UNL     1      44.450 -13.357   7.537  1.00  0.00     0.010 A 
HETATM   21  C   UNL     1      44.801 -12.649   8.688  1.00  0.00     0.019 A 
HETATM   22  C   UNL     1      44.015 -11.579   9.109  1.00  0.00     0.011 A 
HETATM   23 BR   UNL     1      44.490 -10.619  10.666  1.00  0.00    -0.051 Br
HETATM   24  C   UNL     1      42.879 -11.213   8.391  1.00  0.00     0.019 A 
HETATM   25  C   UNL     1      42.532 -11.920   7.236  1.00  0.00     0.010 A 
ENDBRANCH   8  19
BRANCH   5  26
HETATM   26  N   UNL     1      38.906 -15.534   1.969  1.00  0.00    -0.229 N 
HETATM   27  H   UNL     1      38.873 -16.398   1.445  1.00  0.00     0.174 HD
HETATM   28  H   UNL     1      38.606 -14.713   1.462  1.00  0.00     0.174 HD
ENDBRANCH   5  26
TORSDOF 4
ENDMDL
MODEL 5
REMARK VINA RESULT:      -7.4      3.957      7.390
REMARK  4 active torsions:
REMARK  status: ('A' for Active; 'I' for Inactive)
REMARK    1  A    between atoms: O_2  and  C_3 
REMARK    2  A    between atoms: C_4  and  C_5 
REMARK    3  A    between atoms: C_9  and  N_10 
REMARK    4  A    between atoms: C_13  and  C_14 
ROOT
HETATM    1  C   UNL     1      43.764 -17.743   3.989  1.00  0.00     0.167 C 
HETATM    2  N   UNL     1      43.722 -19.025   3.282  1.00  0.00    -0.074 N 
HETATM    3  C   UNL     1      42.949 -19.269   2.173  1.00  0.00     0.736 A 
HETATM    4  N   UNL     1      43.225 -20.460   1.711  1.00  0.00     0.131 NA
HETATM    5  C   UNL     1      44.233 -20.878   2.526  1.00  0.00     0.753 A 
HETATM    6  N   UNL     1      44.596 -20.030   3.485  1.00  0.00     0.037 NA
HETATM    7  N   UNL     1      42.097 -18.339   1.692  1.00  0.00    -0.214 N 
HETATM    8  C   UNL     1      42.384 -16.949   2.026  1.00  0.00     0.135 C 
HETATM    9  C   UNL     1      42.591 -16.840   3.544  1.00  0.00     0.063 C 
HETATM   10  H   UNL     1      41.773 -18.496   0.741  1.00  0.00     0.178 HD
ENDROOT
BRANCH   1  11
HETATM   11  C   UNL     1      43.781 -17.856   5.512  1.00  0.00     0.001 A 
HETATM   12  C   UNL     1      43.815 -16.683   6.295  1.00  0.00     0.076 A 
HETATM   13  C   UNL     1      43.837 -16.764   7.692  1.00  0.00     0.037 A 
HETATM   14  C   UNL     1      43.780 -18.003   8.327  1.00  0.00     0.003 A 
HETATM   15  C   UNL     1      43.702 -19.167   7.569  1.00  0.00     0.001 A 
HETATM   16  C   UNL     1      43.697 -19.095   6.175  1.00  0.00     0.012 A 
BRANCH  12  17
HETATM   17  O   UNL     1      43.857 -15.492   5.614  1.00  0.00    -0.355 OA
HETATM   18  C   UNL     1      44.018 -14.333   6.430  1.00  0.00     0.210 C 
ENDBRANCH  12  17
ENDBRANCH   1  11
BRANCH   8  19
HETATM   19  C   UNL     1      41.264 -16.058   1.528  1.00  0.00    -0.035 A 
HETATM   20  C   UNL     1      40.064 -15.912   2.246  1.00  0.00     0.010 A 
HETATM   21  C   UNL     1      39.051 -15.072   1.782  1.00  0.00     0.019 A 
HETATM   22  C   UNL     1      39.222 -14.376   0.587  1.00  0.00     0.011 A 
HETATM   23 BR   UNL     1      37.853 -13.236  -0.042  1.00  0.00    -0.051 Br
HETATM   24  C   UNL     1      40.397 -14.517  -0.148  1.00  0.00     0.019 A 
HETATM   25  C   UNL     1      41.412 -15.356   0.321  1.00  0.00     0.010 A 
ENDBRANCH   8  19
BRANCH   5  26
HETATM   26  N   UNL     1      44.765 -22.079   2.314  1.00  0.00    -0.229 N 
HETATM   27  H   UNL     1      45.736 -22.194   2.566  1.00  0.00     0.174 HD
HETATM   28  H   UNL     1      44.480 -22.558   1.471  1.00  0.00     0.174 HD
ENDBRANCH   5  26
TORSDOF 4
ENDMDL
MODEL 6
REMARK VINA RESULT:      -7.2      1.027      1.944
REMARK  4 active torsions:
REMARK  status: ('A' for Active; 'I' for Inactive)
REMARK    1  A    between atoms: O_2  and  C_3 
REMARK    2  A    between atoms: C_4  and  C_5 
REMARK    3  A    between atoms: C_9  and  N_10 
REMARK    4  A    between atoms: C_13  and  C_14 
ROOT
HETATM    1  C   UNL     1      42.154 -14.187   2.788  1.00  0.00     0.167 C 
HETATM    2  N   UNL     1      41.216 -14.225   3.913  1.00  0.00    -0.074 N 
HETATM    3  C   UNL     1      41.007 -15.326   4.707  1.00  0.00     0.736 A 
HETATM    4  N   UNL     1      40.207 -15.002   5.688  1.00  0.00     0.131 NA
HETATM    5  C   UNL     1      40.015 -13.667   5.498  1.00  0.00     0.753 A 
HETATM    6  N   UNL     1      40.630 -13.135   4.445  1.00  0.00     0.037 NA
HETATM    7  N   UNL     1      41.615 -16.503   4.449  1.00  0.00    -0.214 N 
HETATM    8  C   UNL     1      42.850 -16.449   3.674  1.00  0.00     0.135 C 
HETATM    9  C   UNL     1      42.601 -15.617   2.407  1.00  0.00     0.063 C 
HETATM   10  H   UNL     1      41.616 -17.170   5.217  1.00  0.00     0.178 HD
ENDROOT
BRANCH   1  11
HETATM   11  C   UNL     1      41.634 -13.460   1.549  1.00  0.00     0.001 A 
HETATM   12  C   UNL     1      40.542 -13.998   0.837  1.00  0.00     0.076 A 
HETATM   13  C   UNL     1      40.052 -13.351  -0.304  1.00  0.00     0.037 A 
HETATM   14  C   UNL     1      40.610 -12.145  -0.723  1.00  0.00     0.003 A 
HETATM   15  C   UNL     1      41.659 -11.580  -0.005  1.00  0.00     0.001 A 
HETATM   16  C   UNL     1      42.164 -12.228   1.124  1.00  0.00     0.012 A 
BRANCH  12  17
HETATM   17  O   UNL     1      40.026 -15.181   1.305  1.00  0.00    -0.355 OA
HETATM   18  C   UNL     1      38.679 -15.114   1.768  1.00  0.00     0.210 C 
ENDBRANCH  12  17
ENDBRANCH   1  11
BRANCH   8  19
HETATM   19  C   UNL     1      43.321 -17.856   3.360  1.00  0.00    -0.035 A 
HETATM   20  C   UNL     1      43.976 -18.644   4.321  1.00  0.00     0.010 A 
HETATM   21  C   UNL     1      44.386 -19.944   4.020  1.00  0.00     0.019 A 
HETATM   22  C   UNL     1      44.156 -20.465   2.749  1.00  0.00     0.011 A 
HETATM   23 BR   UNL     1      44.708 -22.226   2.340  1.00  0.00    -0.051 Br
HETATM   24  C   UNL     1      43.522 -19.696   1.776  1.00  0.00     0.019 A 
HETATM   25  C   UNL     1      43.108 -18.397   2.081  1.00  0.00     0.010 A 
ENDBRANCH   8  19
BRANCH   5  26
HETATM   26  N   UNL     1      39.238 -13.010   6.353  1.00  0.00    -0.229 N 
HETATM   27  H   UNL     1      38.726 -12.220   5.985  1.00  0.00     0.174 HD
HETATM   28  H   UNL     1      39.596 -12.888   7.291  1.00  0.00     0.174 HD
ENDBRANCH   5  26
TORSDOF 4
ENDMDL
MODEL 7
REMARK VINA RESULT:      -7.1      2.466      3.221
REMARK  4 active torsions:
REMARK  status: ('A' for Active; 'I' for Inactive)
REMARK    1  A    between atoms: O_2  and  C_3 
REMARK    2  A    between atoms: C_4  and  C_5 
REMARK    3  A    between atoms: C_9  and  N_10 
REMARK    4  A    between atoms: C_13  and  C_14 
ROOT
HETATM    1  C   UNL     1      42.695 -13.944   4.529  1.00  0.00     0.167 C 
HETATM    2  N   UNL     1      43.265 -14.030   5.877  1.00  0.00    -0.074 N 
HETATM    3  C   UNL     1      43.894 -15.143   6.378  1.00  0.00     0.736 A 
HETATM    4  N   UNL     1      44.392 -14.860   7.553  1.00  0.00     0.131 NA
HETATM    5  C   UNL     1      44.111 -13.536   7.695  1.00  0.00     0.753 A 
HETATM    6  N   UNL     1      43.448 -12.971   6.688  1.00  0.00     0.037 NA
HETATM    7  N   UNL     1      43.966 -16.289   5.669  1.00  0.00    -0.214 N 
HETATM    8  C   UNL     1      43.843 -16.174   4.221  1.00  0.00     0.135 C 
HETATM    9  C   UNL     1      42.589 -15.350   3.896  1.00  0.00     0.063 C 
HETATM   10  H   UNL     1      44.661 -16.958   5.992  1.00  0.00     0.178 HD
ENDROOT
BRANCH   1  11
HETATM   11  C   UNL     1      41.343 -13.238   4.454  1.00  0.00     0.001 A 
HETATM   12  C   UNL     1      41.031 -12.455   3.322  1.00  0.00     0.076 A 
HETATM   13  C   UNL     1      39.800 -11.796   3.234  1.00  0.00     0.037 A 
HETATM   14  C   UNL     1      38.850 -11.941   4.244  1.00  0.00     0.003 A 
HETATM   15  C   UNL     1      39.126 -12.744   5.344  1.00  0.00     0.001 A 
HETATM   16  C   UNL     1      40.358 -13.392   5.447  1.00  0.00     0.012 A 
BRANCH  12  17
HETATM   17  O   UNL     1      42.001 -12.360   2.355  1.00  0.00    -0.355 OA
HETATM   18  C   UNL     1      41.645 -12.902   1.085  1.00  0.00     0.210 C 
ENDBRANCH  12  17
ENDBRANCH   1  11
BRANCH   8  19
HETATM   19  C   UNL     1      43.807 -17.556   3.597  1.00  0.00    -0.035 A 
HETATM   20  C   UNL     1      43.364 -17.756   2.278  1.00  0.00     0.010 A 
HETATM   21  C   UNL     1      43.356 -19.033   1.714  1.00  0.00     0.019 A 
HETATM   22  C   UNL     1      43.781 -20.125   2.467  1.00  0.00     0.011 A 
HETATM   23 BR   UNL     1      43.774 -21.854   1.704  1.00  0.00    -0.051 Br
HETATM   24  C   UNL     1      44.211 -19.951   3.781  1.00  0.00     0.019 A 
HETATM   25  C   UNL     1      44.222 -18.671   4.342  1.00  0.00     0.010 A 
ENDBRANCH   8  19
BRANCH   5  26
HETATM   26  N   UNL     1      44.502 -12.918   8.806  1.00  0.00    -0.229 N 
HETATM   27  H   UNL     1      45.276 -12.276   8.718  1.00  0.00     0.174 HD
HETATM   28  H   UNL     1      44.493 -13.465   9.656  1.00  0.00     0.174 HD
ENDBRANCH   5  26
TORSDOF 4
ENDMDL
MODEL 8
REMARK VINA RESULT:      -7.0      1.886      2.527
REMARK  4 active torsions:
REMARK  status: ('A' for Active; 'I' for Inactive)
REMARK    1  A    between atoms: O_2  and  C_3 
REMARK    2  A    between atoms: C_4  and  C_5 
REMARK    3  A    between atoms: C_9  and  N_10 
REMARK    4  A    between atoms: C_13  and  C_14 
ROOT
HETATM    1  C   UNL     1      41.726 -13.649   0.954  1.00  0.00     0.167 C 
HETATM    2  N   UNL     1      40.665 -13.355   1.921  1.00  0.00    -0.074 N 
HETATM    3  C   UNL     1      40.422 -14.100   3.049  1.00  0.00     0.736 A 
HETATM    4  N   UNL     1      39.496 -13.512   3.759  1.00  0.00     0.131 NA
HETATM    5  C   UNL     1      39.257 -12.366   3.063  1.00  0.00     0.753 A 
HETATM    6  N   UNL     1      39.963 -12.206   1.947  1.00  0.00     0.037 NA
HETATM    7  N   UNL     1      41.118 -15.226   3.310  1.00  0.00    -0.214 N 
HETATM    8  C   UNL     1      42.431 -15.348   2.687  1.00  0.00     0.135 C 
HETATM    9  C   UNL     1      42.290 -15.070   1.183  1.00  0.00     0.063 C 
HETATM   10  H   UNL     1      41.064 -15.559   4.270  1.00  0.00     0.178 HD
ENDROOT
BRANCH   1  11
HETATM   11  C   UNL     1      41.318 -13.483  -0.509  1.00  0.00     0.001 A 
HETATM   12  C   UNL     1      42.000 -12.551  -1.318  1.00  0.00     0.076 A 
HETATM   13  C   UNL     1      41.640 -12.379  -2.660  1.00  0.00     0.037 A 
HETATM   14  C   UNL     1      40.632 -13.159  -3.223  1.00  0.00     0.003 A 
HETATM   15  C   UNL     1      39.980 -14.113  -2.449  1.00  0.00     0.001 A 
HETATM   16  C   UNL     1      40.322 -14.279  -1.106  1.00  0.00     0.012 A 
BRANCH  12  17
HETATM   17  O   UNL     1      42.992 -11.821  -0.711  1.00  0.00    -0.355 OA
HETATM   18  C   UNL     1      43.277 -10.563  -1.319  1.00  0.00     0.210 C 
ENDBRANCH  12  17
ENDBRANCH   1  11
BRANCH   8  19
HETATM   19  C   UNL     1      43.011 -16.719   2.971  1.00  0.00    -0.035 A 
HETATM   20  C   UNL     1      43.075 -17.235   4.276  1.00  0.00     0.010 A 
HETATM   21  C   UNL     1      43.594 -18.509   4.517  1.00  0.00     0.019 A 
HETATM   22  C   UNL     1      44.065 -19.276   3.454  1.00  0.00     0.011 A 
HETATM   23 BR   UNL     1      44.767 -21.001   3.776  1.00  0.00    -0.051 Br
HETATM   24  C   UNL     1      44.025 -18.778   2.153  1.00  0.00     0.019 A 
HETATM   25  C   UNL     1      43.501 -17.505   1.915  1.00  0.00     0.010 A 
ENDBRANCH   8  19
BRANCH   5  26
HETATM   26  N   UNL     1      38.350 -11.515   3.533  1.00  0.00    -0.229 N 
HETATM   27  H   UNL     1      37.585 -11.913   4.059  1.00  0.00     0.174 HD
HETATM   28  H   UNL     1      38.100 -10.741   2.933  1.00  0.00     0.174 HD
ENDBRANCH   5  26
TORSDOF 4
ENDMDL
MODEL 9
REMARK VINA RESULT:      -7.0      3.250      6.477
REMARK  4 active torsions:
REMARK  status: ('A' for Active; 'I' for Inactive)
REMARK    1  A    between atoms: O_2  and  C_3 
REMARK    2  A    between atoms: C_4  and  C_5 
REMARK    3  A    between atoms: C_9  and  N_10 
REMARK    4  A    between atoms: C_13  and  C_14 
ROOT
HETATM    1  C   UNL     1      42.474 -16.800   4.969  1.00  0.00     0.167 C 
HETATM    2  N   UNL     1      43.281 -15.640   5.357  1.00  0.00    -0.074 N 
HETATM    3  C   UNL     1      43.167 -14.396   4.785  1.00  0.00     0.736 A 
HETATM    4  N   UNL     1      43.934 -13.556   5.430  1.00  0.00     0.131 NA
HETATM    5  C   UNL     1      44.440 -14.317   6.440  1.00  0.00     0.753 A 
HETATM    6  N   UNL     1      44.052 -15.590   6.460  1.00  0.00     0.037 NA
HETATM    7  N   UNL     1      42.332 -14.172   3.749  1.00  0.00    -0.214 N 
HETATM    8  C   UNL     1      41.212 -15.094   3.597  1.00  0.00     0.135 C 
HETATM    9  C   UNL     1      41.749 -16.532   3.630  1.00  0.00     0.063 C 
HETATM   10  H   UNL     1      42.115 -13.195   3.567  1.00  0.00     0.178 HD
ENDROOT
BRANCH   1  11
HETATM   11  C   UNL     1      43.249 -18.114   4.885  1.00  0.00     0.001 A 
HETATM   12  C   UNL     1      44.020 -18.392   3.737  1.00  0.00     0.076 A 
HETATM   13  C   UNL     1      44.734 -19.592   3.636  1.00  0.00     0.037 A 
HETATM   14  C   UNL     1      44.725 -20.506   4.688  1.00  0.00     0.003 A 
HETATM   15  C   UNL     1      44.003 -20.227   5.844  1.00  0.00     0.001 A 
HETATM   16  C   UNL     1      43.276 -19.039   5.945  1.00  0.00     0.012 A 
BRANCH  12  17
HETATM   17  O   UNL     1      44.001 -17.448   2.740  1.00  0.00    -0.355 OA
HETATM   18  C   UNL     1      44.018 -17.969   1.413  1.00  0.00     0.210 C 
ENDBRANCH  12  17
ENDBRANCH   1  11
BRANCH   8  19
HETATM   19  C   UNL     1      40.462 -14.785   2.316  1.00  0.00    -0.035 A 
HETATM   20  C   UNL     1      39.085 -14.505   2.319  1.00  0.00     0.010 A 
HETATM   21  C   UNL     1      38.414 -14.203   1.132  1.00  0.00     0.019 A 
HETATM   22  C   UNL     1      39.113 -14.190  -0.072  1.00  0.00     0.011 A 
HETATM   23 BR   UNL     1      38.208 -13.779  -1.680  1.00  0.00    -0.051 Br
HETATM   24  C   UNL     1      40.475 -14.479  -0.100  1.00  0.00     0.019 A 
HETATM   25  C   UNL     1      41.145 -14.777   1.089  1.00  0.00     0.010 A 
ENDBRANCH   8  19
BRANCH   5  26
HETATM   26  N   UNL     1      45.271 -13.748   7.309  1.00  0.00    -0.229 N 
HETATM   27  H   UNL     1      46.163 -14.201   7.443  1.00  0.00     0.174 HD
HETATM   28  H   UNL     1      44.856 -13.359   8.145  1.00  0.00     0.174 HD
ENDBRANCH   5  26
TORSDOF 4
ENDMDL
MODEL 10
REMARK VINA RESULT:      -6.8      4.031      6.891
REMARK  4 active torsions:
REMARK  status: ('A' for Active; 'I' for Inactive)
REMARK    1  A    between atoms: O_2  and  C_3 
REMARK    2  A    between atoms: C_4  and  C_5 
REMARK    3  A    between atoms: C_9  and  N_10 
REMARK    4  A    between atoms: C_13  and  C_14 
ROOT
HETATM    1  C   UNL     1      43.026 -15.672   3.392  1.00  0.00     0.167 C 
HETATM    2  N   UNL     1      41.587 -15.427   3.263  1.00  0.00    -0.074 N 
HETATM    3  C   UNL     1      40.874 -14.578   4.074  1.00  0.00     0.736 A 
HETATM    4  N   UNL     1      39.648 -14.488   3.627  1.00  0.00     0.131 NA
HETATM    5  C   UNL     1      39.680 -15.240   2.493  1.00  0.00     0.753 A 
HETATM    6  N   UNL     1      40.846 -15.814   2.207  1.00  0.00     0.037 NA
HETATM    7  N   UNL     1      41.454 -13.951   5.119  1.00  0.00    -0.214 N 
HETATM    8  C   UNL     1      42.901 -13.777   5.060  1.00  0.00     0.135 C 
HETATM    9  C   UNL     1      43.548 -15.134   4.744  1.00  0.00     0.063 C 
HETATM   10  H   UNL     1      40.939 -13.158   5.492  1.00  0.00     0.178 HD
ENDROOT
BRANCH   1  11
HETATM   11  C   UNL     1      43.441 -17.132   3.221  1.00  0.00     0.001 A 
HETATM   12  C   UNL     1      43.278 -18.030   4.296  1.00  0.00     0.076 A 
HETATM   13  C   UNL     1      43.656 -19.371   4.163  1.00  0.00     0.037 A 
HETATM   14  C   UNL     1      44.157 -19.844   2.951  1.00  0.00     0.003 A 
HETATM   15  C   UNL     1      44.283 -18.980   1.869  1.00  0.00     0.001 A 
HETATM   16  C   UNL     1      43.924 -17.637   1.999  1.00  0.00     0.012 A 
BRANCH  12  17
HETATM   17  O   UNL     1      42.767 -17.510   5.459  1.00  0.00    -0.355 OA
HETATM   18  C   UNL     1      43.153 -18.193   6.650  1.00  0.00     0.210 C 
ENDBRANCH  12  17
ENDBRANCH   1  11
BRANCH   8  19
HETATM   19  C   UNL     1      43.401 -13.186   6.363  1.00  0.00    -0.035 A 
HETATM   20  C   UNL     1      42.719 -12.139   7.006  1.00  0.00     0.010 A 
HETATM   21  C   UNL     1      43.185 -11.620   8.216  1.00  0.00     0.019 A 
HETATM   22  C   UNL     1      44.344 -12.136   8.790  1.00  0.00     0.011 A 
HETATM   23 BR   UNL     1      44.974 -11.437  10.429  1.00  0.00    -0.051 Br
HETATM   24  C   UNL     1      45.044 -13.164   8.162  1.00  0.00     0.019 A 
HETATM   25  C   UNL     1      44.574 -13.684   6.953  1.00  0.00     0.010 A 
ENDBRANCH   8  19
BRANCH   5  26
HETATM   26  N   UNL     1      38.567 -15.351   1.773  1.00  0.00    -0.229 N 
HETATM   27  H   UNL     1      38.645 -15.837   0.891  1.00  0.00     0.174 HD
HETATM   28  H   UNL     1      37.949 -14.551   1.768  1.00  0.00     0.174 HD
ENDBRANCH   5  26
TORSDOF 4
ENDMDL
