MODEL 1
REMARK VINA RESULT:      -9.0      0.000      0.000
REMARK  5 active torsions:
REMARK  status: ('A' for Active; 'I' for Inactive)
REMARK    1  A    between atoms: C_2  and  C_3 
REMARK    2  A    between atoms: C_3  and  C_4 
REMARK    3  A    between atoms: C_8  and  N_9 
REMARK       I    between atoms: N_9  and  C_10 
REMARK    4  A    between atoms: C_10  and  C_11 
REMARK    5  A    between atoms: N_13  and  C_14 
ROOT
HETATM    1  C   UNL     1      40.882 -13.364   4.248  1.00  0.00     0.106 C 
HETATM    2  C   UNL     1      41.031 -14.864   4.142  1.00  0.00     0.148 C 
HETATM    3  N   UNL     1      42.456 -15.076   4.147  1.00  0.00    -0.299 N 
HETATM    4  C   UNL     1      43.145 -13.912   3.766  1.00  0.00     0.226 C 
HETATM    5  O   UNL     1      44.341 -13.723   3.611  1.00  0.00    -0.273 OA
HETATM    6  C   UNL     1      42.126 -12.814   3.572  1.00  0.00     0.119 C 
ENDROOT
BRANCH   1   7
HETATM    7  C   UNL     1      40.741 -12.896   5.697  1.00  0.00     0.242 C 
HETATM    8  N   UNL     1      41.598 -11.876   6.067  1.00  0.00    -0.156 N 
HETATM    9  H   UNL     1      42.287 -11.516   5.417  1.00  0.00     0.187 HD
HETATM   10  O   UNL     1      39.912 -13.450   6.415  1.00  0.00    -0.272 OA
BRANCH   8  11
HETATM   11  C   UNL     1      41.564 -11.319   7.323  1.00  0.00     0.725 A 
HETATM   12  N   UNL     1      40.406 -11.240   8.051  1.00  0.00    -0.106 N 
HETATM   13  N   UNL     1      40.605 -10.654   9.243  1.00  0.00    -0.144 NA
HETATM   14  H   UNL     1      39.477 -11.557   7.806  1.00  0.00     0.208 HD
HETATM   15  C   UNL     1      41.920 -10.405   9.192  1.00  0.00     0.166 A 
HETATM   16  N   UNL     1      42.534 -10.800   8.034  1.00  0.00    -0.046 NA
BRANCH  15  17
HETATM   17  C   UNL     1      42.670  -9.763  10.305  1.00  0.00     0.087 C 
BRANCH  17  18
HETATM   18  C   UNL     1      43.386 -10.770  11.223  1.00  0.00    -0.016 C 
HETATM   19  C   UNL     1      43.296 -10.366  12.698  1.00  0.00     0.010 C 
HETATM   20  C   UNL     1      44.854 -10.895  10.813  1.00  0.00     0.010 C 
ENDBRANCH  17  18
ENDBRANCH  15  17
ENDBRANCH   8  11
ENDBRANCH   1   7
BRANCH   3  21
HETATM   21  C   UNL     1      43.098 -16.278   4.434  1.00  0.00     0.165 A 
HETATM   22  N   UNL     1      43.678 -16.505   5.617  1.00  0.00    -0.155 NA
HETATM   23  N   UNL     1      44.193 -17.734   5.522  1.00  0.00    -0.275 N 
HETATM   24  H   UNL     1      44.723 -18.092   6.310  1.00  0.00     0.189 HD
HETATM   25  C   UNL     1      43.917 -18.366   4.345  1.00  0.00     0.065 A 
HETATM   26  C   UNL     1      43.195 -17.441   3.595  1.00  0.00     0.040 A 
HETATM   27  C   UNL     1      44.251 -19.647   3.888  1.00  0.00     0.051 A 
HETATM   28  C   UNL     1      42.791 -17.818   2.295  1.00  0.00     0.019 A 
HETATM   29  C   UNL     1      43.108 -19.097   1.814  1.00  0.00     0.020 A 
HETATM   30  C   UNL     1      43.825 -19.991   2.604  1.00  0.00     0.013 A 
HETATM   31 BR   UNL     1      44.242 -21.707   1.923  1.00  0.00    -0.051 Br
ENDBRANCH   3  21
TORSDOF 5
ENDMDL
MODEL 2
REMARK VINA RESULT:      -8.8      3.689      6.766
REMARK  5 active torsions:
REMARK  status: ('A' for Active; 'I' for Inactive)
REMARK    1  A    between atoms: C_2  and  C_3 
REMARK    2  A    between atoms: C_3  and  C_4 
REMARK    3  A    between atoms: C_8  and  N_9 
REMARK       I    between atoms: N_9  and  C_10 
REMARK    4  A    between atoms: C_10  and  C_11 
REMARK    5  A    between atoms: N_13  and  C_14 
ROOT
HETATM    1  C   UNL     1      42.833 -13.826   5.434  1.00  0.00     0.106 C 
HETATM    2  C   UNL     1      43.787 -14.876   5.956  1.00  0.00     0.148 C 
HETATM    3  N   UNL     1      43.063 -16.112   5.805  1.00  0.00    -0.299 N 
HETATM    4  C   UNL     1      41.679 -15.885   5.720  1.00  0.00     0.226 C 
HETATM    5  O   UNL     1      40.756 -16.679   5.634  1.00  0.00    -0.273 OA
HETATM    6  C   UNL     1      41.455 -14.391   5.728  1.00  0.00     0.119 C 
ENDROOT
BRANCH   1   7
HETATM    7  C   UNL     1      43.049 -13.534   3.950  1.00  0.00     0.242 C 
HETATM    8  N   UNL     1      41.890 -13.347   3.217  1.00  0.00    -0.156 N 
HETATM    9  H   UNL     1      40.981 -13.446   3.652  1.00  0.00     0.187 HD
HETATM   10  O   UNL     1      44.199 -13.498   3.519  1.00  0.00    -0.272 OA
BRANCH   8  11
HETATM   11  C   UNL     1      41.919 -13.035   1.879  1.00  0.00     0.725 A 
HETATM   12  N   UNL     1      42.278 -11.790   1.431  1.00  0.00    -0.106 N 
HETATM   13  N   UNL     1      42.228 -11.709   0.092  1.00  0.00    -0.144 NA
HETATM   14  H   UNL     1      42.559 -10.978   1.966  1.00  0.00     0.208 HD
HETATM   15  C   UNL     1      41.843 -12.950  -0.229  1.00  0.00     0.166 A 
HETATM   16  N   UNL     1      41.647 -13.783   0.840  1.00  0.00    -0.046 NA
BRANCH  15  17
HETATM   17  C   UNL     1      41.652 -13.406  -1.632  1.00  0.00     0.087 C 
BRANCH  17  18
HETATM   18  C   UNL     1      40.658 -14.574  -1.768  1.00  0.00    -0.016 C 
HETATM   19  C   UNL     1      41.042 -15.523  -2.906  1.00  0.00     0.010 C 
HETATM   20  C   UNL     1      39.248 -14.031  -2.004  1.00  0.00     0.010 C 
ENDBRANCH  17  18
ENDBRANCH  15  17
ENDBRANCH   8  11
ENDBRANCH   1   7
BRANCH   3  21
HETATM   21  C   UNL     1      43.624 -17.387   5.794  1.00  0.00     0.165 A 
HETATM   22  N   UNL     1      44.134 -17.944   6.897  1.00  0.00    -0.155 NA
HETATM   23  N   UNL     1      44.587 -19.139   6.506  1.00  0.00    -0.275 N 
HETATM   24  H   UNL     1      45.057 -19.720   7.193  1.00  0.00     0.189 HD
HETATM   25  C   UNL     1      44.335 -19.431   5.198  1.00  0.00     0.065 A 
HETATM   26  C   UNL     1      43.701 -18.301   4.688  1.00  0.00     0.040 A 
HETATM   27  C   UNL     1      44.622 -20.572   4.438  1.00  0.00     0.051 A 
HETATM   28  C   UNL     1      43.341 -18.307   3.321  1.00  0.00     0.019 A 
HETATM   29  C   UNL     1      43.613 -19.439   2.538  1.00  0.00     0.020 A 
HETATM   30  C   UNL     1      44.241 -20.549   3.095  1.00  0.00     0.013 A 
HETATM   31 BR   UNL     1      44.599 -22.058   2.010  1.00  0.00    -0.051 Br
ENDBRANCH   3  21
TORSDOF 5
ENDMDL
MODEL 3
REMARK VINA RESULT:      -8.7      4.198      7.720
REMARK  5 active torsions:
REMARK  status: ('A' for Active; 'I' for Inactive)
REMARK    1  A    between atoms: C_2  and  C_3 
REMARK    2  A    between atoms: C_3  and  C_4 
REMARK    3  A    between atoms: C_8  and  N_9 
REMARK       I    between atoms: N_9  and  C_10 
REMARK    4  A    between atoms: C_10  and  C_11 
REMARK    5  A    between atoms: N_13  and  C_14 
ROOT
HETATM    1  C   UNL     1      41.389 -14.035   4.166  1.00  0.00     0.106 C 
HETATM    2  C   UNL     1      42.724 -14.717   4.360  1.00  0.00     0.148 C 
HETATM    3  N   UNL     1      42.387 -15.980   4.966  1.00  0.00    -0.299 N 
HETATM    4  C   UNL     1      41.124 -15.930   5.578  1.00  0.00     0.226 C 
HETATM    5  O   UNL     1      40.529 -16.779   6.223  1.00  0.00    -0.273 OA
HETATM    6  C   UNL     1      40.527 -14.572   5.295  1.00  0.00     0.119 C 
ENDROOT
BRANCH   1   7
HETATM    7  C   UNL     1      40.793 -14.308   2.786  1.00  0.00     0.242 C 
HETATM    8  N   UNL     1      41.704 -14.299   1.744  1.00  0.00    -0.156 N 
HETATM    9  H   UNL     1      42.679 -14.081   1.910  1.00  0.00     0.187 HD
HETATM   10  O   UNL     1      39.583 -14.498   2.696  1.00  0.00    -0.272 OA
BRANCH   8  11
HETATM   11  C   UNL     1      41.329 -14.569   0.450  1.00  0.00     0.725 A 
HETATM   12  N   UNL     1      41.626 -15.761  -0.158  1.00  0.00    -0.106 N 
HETATM   13  N   UNL     1      41.171 -15.803  -1.421  1.00  0.00    -0.144 NA
HETATM   14  H   UNL     1      42.118 -16.562   0.217  1.00  0.00     0.208 HD
HETATM   15  C   UNL     1      40.587 -14.603  -1.526  1.00  0.00     0.166 A 
HETATM   16  N   UNL     1      40.666 -13.827  -0.401  1.00  0.00    -0.046 NA
BRANCH  15  17
HETATM   17  C   UNL     1      39.892 -14.141  -2.758  1.00  0.00     0.087 C 
BRANCH  17  18
HETATM   18  C   UNL     1      38.657 -14.987  -3.118  1.00  0.00    -0.016 C 
HETATM   19  C   UNL     1      38.948 -15.970  -4.255  1.00  0.00     0.010 C 
HETATM   20  C   UNL     1      37.498 -14.070  -3.514  1.00  0.00     0.010 C 
ENDBRANCH  17  18
ENDBRANCH  15  17
ENDBRANCH   8  11
ENDBRANCH   1   7
BRANCH   3  21
HETATM   21  C   UNL     1      43.206 -17.106   5.006  1.00  0.00     0.165 A 
HETATM   22  N   UNL     1      43.999 -17.367   6.050  1.00  0.00    -0.155 NA
HETATM   23  N   UNL     1      44.633 -18.499   5.732  1.00  0.00    -0.275 N 
HETATM   24  H   UNL     1      45.325 -18.858   6.381  1.00  0.00     0.189 HD
HETATM   25  C   UNL     1      44.242 -19.043   4.544  1.00  0.00     0.065 A 
HETATM   26  C   UNL     1      43.300 -18.156   4.029  1.00  0.00     0.040 A 
HETATM   27  C   UNL     1      44.644 -20.215   3.891  1.00  0.00     0.051 A 
HETATM   28  C   UNL     1      42.732 -18.454   2.770  1.00  0.00     0.019 A 
HETATM   29  C   UNL     1      43.114 -19.623   2.097  1.00  0.00     0.020 A 
HETATM   30  C   UNL     1      44.054 -20.485   2.655  1.00  0.00     0.013 A 
HETATM   31 BR   UNL     1      44.552 -22.053   1.718  1.00  0.00    -0.051 Br
ENDBRANCH   3  21
TORSDOF 5
ENDMDL
MODEL 4
REMARK VINA RESULT:      -8.3      3.845      6.722
REMARK  5 active torsions:
REMARK  status: ('A' for Active; 'I' for Inactive)
REMARK    1  A    between atoms: C_2  and  C_3 
REMARK    2  A    between atoms: C_3  and  C_4 
REMARK    3  A    between atoms: C_8  and  N_9 
REMARK       I    between atoms: N_9  and  C_10 
REMARK    4  A    between atoms: C_10  and  C_11 
REMARK    5  A    between atoms: N_13  and  C_14 
ROOT
HETATM    1  C   UNL     1      41.893 -13.615   4.880  1.00  0.00     0.106 C 
HETATM    2  C   UNL     1      43.163 -14.402   5.113  1.00  0.00     0.148 C 
HETATM    3  N   UNL     1      42.701 -15.737   5.391  1.00  0.00    -0.299 N 
HETATM    4  C   UNL     1      41.362 -15.735   5.817  1.00  0.00     0.226 C 
HETATM    5  O   UNL     1      40.652 -16.658   6.183  1.00  0.00    -0.273 OA
HETATM    6  C   UNL     1      40.856 -14.314   5.741  1.00  0.00     0.119 C 
ENDROOT
BRANCH   1   7
HETATM    7  C   UNL     1      41.503 -13.569   3.403  1.00  0.00     0.242 C 
HETATM    8  N   UNL     1      42.053 -12.522   2.686  1.00  0.00    -0.156 N 
HETATM    9  H   UNL     1      42.632 -11.828   3.143  1.00  0.00     0.187 HD
HETATM   10  O   UNL     1      40.741 -14.430   2.970  1.00  0.00    -0.272 OA
BRANCH   8  11
HETATM   11  C   UNL     1      41.830 -12.369   1.339  1.00  0.00     0.725 A 
HETATM   12  N   UNL     1      40.568 -12.228   0.822  1.00  0.00    -0.106 N 
HETATM   13  N   UNL     1      40.587 -12.101  -0.514  1.00  0.00    -0.144 NA
HETATM   14  H   UNL     1      39.680 -12.210   1.308  1.00  0.00     0.208 HD
HETATM   15  C   UNL     1      41.902 -12.158  -0.761  1.00  0.00     0.166 A 
HETATM   16  N   UNL     1      42.686 -12.320   0.349  1.00  0.00    -0.046 NA
BRANCH  15  17
HETATM   17  C   UNL     1      42.479 -12.042  -2.127  1.00  0.00     0.087 C 
BRANCH  17  18
HETATM   18  C   UNL     1      42.250 -10.664  -2.774  1.00  0.00    -0.016 C 
HETATM   19  C   UNL     1      42.487 -10.695  -4.287  1.00  0.00     0.010 C 
HETATM   20  C   UNL     1      43.172  -9.627  -2.130  1.00  0.00     0.010 C 
ENDBRANCH  17  18
ENDBRANCH  15  17
ENDBRANCH   8  11
ENDBRANCH   1   7
BRANCH   3  21
HETATM   21  C   UNL     1      43.469 -16.896   5.312  1.00  0.00     0.165 A 
HETATM   22  N   UNL     1      44.350 -17.228   6.261  1.00  0.00    -0.155 NA
HETATM   23  N   UNL     1      44.899 -18.372   5.843  1.00  0.00    -0.275 N 
HETATM   24  H   UNL     1      45.636 -18.782   6.407  1.00  0.00     0.189 HD
HETATM   25  C   UNL     1      44.367 -18.856   4.684  1.00  0.00     0.065 A 
HETATM   26  C   UNL     1      43.419 -17.912   4.296  1.00  0.00     0.040 A 
HETATM   27  C   UNL     1      44.651 -20.018   3.956  1.00  0.00     0.051 A 
HETATM   28  C   UNL     1      42.715 -18.141   3.092  1.00  0.00     0.019 A 
HETATM   29  C   UNL     1      42.977 -19.299   2.346  1.00  0.00     0.020 A 
HETATM   30  C   UNL     1      43.929 -20.218   2.778  1.00  0.00     0.013 A 
HETATM   31 BR   UNL     1      44.262 -21.769   1.745  1.00  0.00    -0.051 Br
ENDBRANCH   3  21
TORSDOF 5
ENDMDL
MODEL 5
REMARK VINA RESULT:      -8.2      3.491      5.307
REMARK  5 active torsions:
REMARK  status: ('A' for Active; 'I' for Inactive)
REMARK    1  A    between atoms: C_2  and  C_3 
REMARK    2  A    between atoms: C_3  and  C_4 
REMARK    3  A    between atoms: C_8  and  N_9 
REMARK       I    between atoms: N_9  and  C_10 
REMARK    4  A    between atoms: C_10  and  C_11 
REMARK    5  A    between atoms: N_13  and  C_14 
ROOT
HETATM    1  C   UNL     1      43.734 -16.322   5.926  1.00  0.00     0.106 C 
HETATM    2  C   UNL     1      43.221 -16.371   4.505  1.00  0.00     0.148 C 
HETATM    3  N   UNL     1      41.791 -16.281   4.645  1.00  0.00    -0.299 N 
HETATM    4  C   UNL     1      41.380 -16.661   5.934  1.00  0.00     0.226 C 
HETATM    5  O   UNL     1      40.258 -16.757   6.405  1.00  0.00    -0.273 OA
HETATM    6  C   UNL     1      42.620 -16.946   6.748  1.00  0.00     0.119 C 
ENDROOT
BRANCH   1   7
HETATM    7  C   UNL     1      44.071 -14.899   6.372  1.00  0.00     0.242 C 
HETATM    8  N   UNL     1      44.475 -14.781   7.690  1.00  0.00    -0.156 N 
HETATM    9  H   UNL     1      44.494 -15.588   8.301  1.00  0.00     0.187 HD
HETATM   10  O   UNL     1      43.952 -13.985   5.560  1.00  0.00    -0.272 OA
BRANCH   8  11
HETATM   11  C   UNL     1      44.853 -13.574   8.228  1.00  0.00     0.725 A 
HETATM   12  N   UNL     1      45.767 -12.758   7.612  1.00  0.00    -0.106 N 
HETATM   13  N   UNL     1      45.989 -11.638   8.317  1.00  0.00    -0.144 NA
HETATM   14  H   UNL     1      46.259 -12.900   6.739  1.00  0.00     0.208 HD
HETATM   15  C   UNL     1      45.166 -11.818   9.357  1.00  0.00     0.166 A 
HETATM   16  N   UNL     1      44.458 -12.989   9.331  1.00  0.00    -0.046 NA
BRANCH  15  17
HETATM   17  C   UNL     1      45.013 -10.826  10.455  1.00  0.00     0.087 C 
BRANCH  17  18
HETATM   18  C   UNL     1      43.583 -10.754  11.021  1.00  0.00    -0.016 C 
HETATM   19  C   UNL     1      42.619 -10.055  10.058  1.00  0.00     0.010 C 
HETATM   20  C   UNL     1      43.591 -10.020  12.363  1.00  0.00     0.010 C 
ENDBRANCH  17  18
ENDBRANCH  15  17
ENDBRANCH   8  11
ENDBRANCH   1   7
BRANCH   3  21
HETATM   21  C   UNL     1      40.897 -15.919   3.640  1.00  0.00     0.165 A 
HETATM   22  N   UNL     1      40.450 -16.801   2.741  1.00  0.00    -0.155 NA
HETATM   23  N   UNL     1      39.639 -16.103   1.941  1.00  0.00    -0.275 N 
HETATM   24  H   UNL     1      39.218 -16.582   1.152  1.00  0.00     0.189 HD
HETATM   25  C   UNL     1      39.471 -14.802   2.315  1.00  0.00     0.065 A 
HETATM   26  C   UNL     1      40.284 -14.636   3.433  1.00  0.00     0.040 A 
HETATM   27  C   UNL     1      38.693 -13.778   1.760  1.00  0.00     0.051 A 
HETATM   28  C   UNL     1      40.333 -13.355   4.028  1.00  0.00     0.019 A 
HETATM   29  C   UNL     1      39.561 -12.313   3.495  1.00  0.00     0.020 A 
HETATM   30  C   UNL     1      38.756 -12.529   2.380  1.00  0.00     0.013 A 
HETATM   31 BR   UNL     1      37.730 -11.100   1.682  1.00  0.00    -0.051 Br
ENDBRANCH   3  21
TORSDOF 5
ENDMDL
MODEL 6
REMARK VINA RESULT:      -8.0      3.281      4.713
REMARK  5 active torsions:
REMARK  status: ('A' for Active; 'I' for Inactive)
REMARK    1  A    between atoms: C_2  and  C_3 
REMARK    2  A    between atoms: C_3  and  C_4 
REMARK    3  A    between atoms: C_8  and  N_9 
REMARK       I    between atoms: N_9  and  C_10 
REMARK    4  A    between atoms: C_10  and  C_11 
REMARK    5  A    between atoms: N_13  and  C_14 
ROOT
HETATM    1  C   UNL     1      42.949 -16.530   6.043  1.00  0.00     0.106 C 
HETATM    2  C   UNL     1      43.200 -16.099   4.616  1.00  0.00     0.148 C 
HETATM    3  N   UNL     1      42.118 -15.195   4.327  1.00  0.00    -0.299 N 
HETATM    4  C   UNL     1      41.033 -15.404   5.195  1.00  0.00     0.226 C 
HETATM    5  O   UNL     1      39.936 -14.869   5.226  1.00  0.00    -0.273 OA
HETATM    6  C   UNL     1      41.439 -16.462   6.194  1.00  0.00     0.119 C 
ENDROOT
BRANCH   1   7
HETATM    7  C   UNL     1      43.684 -15.650   7.053  1.00  0.00     0.242 C 
HETATM    8  N   UNL     1      44.165 -14.456   6.545  1.00  0.00    -0.156 N 
HETATM    9  H   UNL     1      44.061 -14.231   5.564  1.00  0.00     0.187 HD
HETATM   10  O   UNL     1      43.806 -16.055   8.206  1.00  0.00    -0.272 OA
BRANCH   8  11
HETATM   11  C   UNL     1      44.812 -13.538   7.338  1.00  0.00     0.725 A 
HETATM   12  N   UNL     1      46.144 -13.257   7.185  1.00  0.00    -0.106 N 
HETATM   13  N   UNL     1      46.565 -12.338   8.069  1.00  0.00    -0.144 NA
HETATM   14  H   UNL     1      46.803 -13.641   6.519  1.00  0.00     0.208 HD
HETATM   15  C   UNL     1      45.432 -12.082   8.735  1.00  0.00     0.166 A 
HETATM   16  N   UNL     1      44.344 -12.798   8.312  1.00  0.00    -0.046 NA
BRANCH  15  17
HETATM   17  C   UNL     1      45.344 -11.090   9.840  1.00  0.00     0.087 C 
BRANCH  17  18
HETATM   18  C   UNL     1      44.148 -11.325  10.781  1.00  0.00    -0.016 C 
HETATM   19  C   UNL     1      43.923 -10.142  11.728  1.00  0.00     0.010 C 
HETATM   20  C   UNL     1      44.370 -12.601  11.595  1.00  0.00     0.010 C 
ENDBRANCH  17  18
ENDBRANCH  15  17
ENDBRANCH   8  11
ENDBRANCH   1   7
BRANCH   3  21
HETATM   21  C   UNL     1      42.094 -14.259   3.295  1.00  0.00     0.165 A 
HETATM   22  N   UNL     1      42.351 -12.965   3.508  1.00  0.00    -0.155 NA
HETATM   23  N   UNL     1      42.222 -12.383   2.312  1.00  0.00    -0.275 N 
HETATM   24  H   UNL     1      42.337 -11.376   2.256  1.00  0.00     0.189 HD
HETATM   25  C   UNL     1      41.959 -13.251   1.294  1.00  0.00     0.065 A 
HETATM   26  C   UNL     1      41.866 -14.503   1.897  1.00  0.00     0.040 A 
HETATM   27  C   UNL     1      41.788 -13.035  -0.079  1.00  0.00     0.051 A 
HETATM   28  C   UNL     1      41.567 -15.612   1.074  1.00  0.00     0.019 A 
HETATM   29  C   UNL     1      41.395 -15.424  -0.306  1.00  0.00     0.020 A 
HETATM   30  C   UNL     1      41.506 -14.154  -0.865  1.00  0.00     0.013 A 
HETATM   31 BR   UNL     1      41.263 -13.933  -2.730  1.00  0.00    -0.051 Br
ENDBRANCH   3  21
TORSDOF 5
ENDMDL
MODEL 7
REMARK VINA RESULT:      -7.6      2.067      2.564
REMARK  5 active torsions:
REMARK  status: ('A' for Active; 'I' for Inactive)
REMARK    1  A    between atoms: C_2  and  C_3 
REMARK    2  A    between atoms: C_3  and  C_4 
REMARK    3  A    between atoms: C_8  and  N_9 
REMARK       I    between atoms: N_9  and  C_10 
REMARK    4  A    between atoms: C_10  and  C_11 
REMARK    5  A    between atoms: N_13  and  C_14 
ROOT
HETATM    1  C   UNL     1      39.954 -13.161   4.139  1.00  0.00     0.106 C 
HETATM    2  C   UNL     1      40.235 -14.612   4.456  1.00  0.00     0.148 C 
HETATM    3  N   UNL     1      41.571 -14.826   3.964  1.00  0.00    -0.299 N 
HETATM    4  C   UNL     1      41.919 -13.865   2.999  1.00  0.00     0.226 C 
HETATM    5  O   UNL     1      42.935 -13.752   2.333  1.00  0.00    -0.273 OA
HETATM    6  C   UNL     1      40.775 -12.884   2.892  1.00  0.00     0.119 C 
ENDROOT
BRANCH   1   7
HETATM    7  C   UNL     1      40.312 -12.234   5.300  1.00  0.00     0.242 C 
HETATM    8  N   UNL     1      39.502 -12.354   6.415  1.00  0.00    -0.156 N 
HETATM    9  H   UNL     1      38.711 -12.987   6.414  1.00  0.00     0.187 HD
HETATM   10  O   UNL     1      41.257 -11.461   5.165  1.00  0.00    -0.272 OA
BRANCH   8  11
HETATM   11  C   UNL     1      39.722 -11.620   7.555  1.00  0.00     0.725 A 
HETATM   12  N   UNL     1      40.984 -11.374   8.028  1.00  0.00    -0.106 N 
HETATM   13  N   UNL     1      40.961 -10.645   9.156  1.00  0.00    -0.144 NA
HETATM   14  H   UNL     1      41.875 -11.662   7.645  1.00  0.00     0.208 HD
HETATM   15  C   UNL     1      39.645 -10.461   9.318  1.00  0.00     0.166 A 
HETATM   16  N   UNL     1      38.862 -11.043   8.358  1.00  0.00    -0.046 NA
BRANCH  15  17
HETATM   17  C   UNL     1      39.065  -9.677  10.442  1.00  0.00     0.087 C 
BRANCH  17  18
HETATM   18  C   UNL     1      38.673  -8.241  10.050  1.00  0.00    -0.016 C 
HETATM   19  C   UNL     1      39.891  -7.315   9.970  1.00  0.00     0.010 C 
HETATM   20  C   UNL     1      37.667  -7.683  11.058  1.00  0.00     0.010 C 
ENDBRANCH  17  18
ENDBRANCH  15  17
ENDBRANCH   8  11
ENDBRANCH   1   7
BRANCH   3  21
HETATM   21  C   UNL     1      42.416 -15.870   4.333  1.00  0.00     0.165 A 
HETATM   22  N   UNL     1      43.067 -15.873   5.501  1.00  0.00    -0.155 NA
HETATM   23  N   UNL     1      43.778 -17.004   5.500  1.00  0.00    -0.275 N 
HETATM   24  H   UNL     1      44.388 -17.186   6.291  1.00  0.00     0.189 HD
HETATM   25  C   UNL     1      43.573 -17.792   4.406  1.00  0.00     0.065 A 
HETATM   26  C   UNL     1      42.679 -17.082   3.607  1.00  0.00     0.040 A 
HETATM   27  C   UNL     1      44.102 -19.042   4.059  1.00  0.00     0.051 A 
HETATM   28  C   UNL     1      42.300 -17.654   2.373  1.00  0.00     0.019 A 
HETATM   29  C   UNL     1      42.812 -18.907   2.003  1.00  0.00     0.020 A 
HETATM   30  C   UNL     1      43.696 -19.584   2.838  1.00  0.00     0.013 A 
HETATM   31 BR   UNL     1      44.373 -21.270   2.307  1.00  0.00    -0.051 Br
ENDBRANCH   3  21
TORSDOF 5
ENDMDL
MODEL 8
REMARK VINA RESULT:      -7.6      2.167      2.761
REMARK  5 active torsions:
REMARK  status: ('A' for Active; 'I' for Inactive)
REMARK    1  A    between atoms: C_2  and  C_3 
REMARK    2  A    between atoms: C_3  and  C_4 
REMARK    3  A    between atoms: C_8  and  N_9 
REMARK       I    between atoms: N_9  and  C_10 
REMARK    4  A    between atoms: C_10  and  C_11 
REMARK    5  A    between atoms: N_13  and  C_14 
ROOT
HETATM    1  C   UNL     1      42.214 -13.884   4.632  1.00  0.00     0.106 C 
HETATM    2  C   UNL     1      42.290 -15.393   4.587  1.00  0.00     0.148 C 
HETATM    3  N   UNL     1      43.187 -15.730   5.662  1.00  0.00    -0.299 N 
HETATM    4  C   UNL     1      43.999 -14.638   6.010  1.00  0.00     0.226 C 
HETATM    5  O   UNL     1      44.898 -14.558   6.832  1.00  0.00    -0.273 OA
HETATM    6  C   UNL     1      43.566 -13.456   5.175  1.00  0.00     0.119 C 
ENDROOT
BRANCH   1   7
HETATM    7  C   UNL     1      41.049 -13.387   5.488  1.00  0.00     0.242 C 
HETATM    8  N   UNL     1      41.400 -12.507   6.496  1.00  0.00    -0.156 N 
HETATM    9  H   UNL     1      42.369 -12.264   6.658  1.00  0.00     0.187 HD
HETATM   10  O   UNL     1      39.919 -13.799   5.238  1.00  0.00    -0.272 OA
BRANCH   8  11
HETATM   11  C   UNL     1      40.460 -11.940   7.323  1.00  0.00     0.725 A 
HETATM   12  N   UNL     1      39.409 -12.659   7.829  1.00  0.00    -0.106 N 
HETATM   13  N   UNL     1      38.615 -11.903   8.604  1.00  0.00    -0.144 NA
HETATM   14  H   UNL     1      39.181 -13.636   7.692  1.00  0.00     0.208 HD
HETATM   15  C   UNL     1      39.244 -10.723   8.546  1.00  0.00     0.166 A 
HETATM   16  N   UNL     1      40.373 -10.713   7.774  1.00  0.00    -0.046 NA
BRANCH  15  17
HETATM   17  C   UNL     1      38.771  -9.513   9.271  1.00  0.00     0.087 C 
BRANCH  17  18
HETATM   18  C   UNL     1      39.905  -8.716   9.940  1.00  0.00    -0.016 C 
HETATM   19  C   UNL     1      40.422  -9.405  11.206  1.00  0.00     0.010 C 
HETATM   20  C   UNL     1      39.419  -7.307  10.283  1.00  0.00     0.010 C 
ENDBRANCH  17  18
ENDBRANCH  15  17
ENDBRANCH   8  11
ENDBRANCH   1   7
BRANCH   3  21
HETATM   21  C   UNL     1      43.298 -16.981   6.265  1.00  0.00     0.165 A 
HETATM   22  N   UNL     1      42.921 -17.193   7.529  1.00  0.00    -0.155 NA
HETATM   23  N   UNL     1      43.185 -18.483   7.760  1.00  0.00    -0.275 N 
HETATM   24  H   UNL     1      43.009 -18.847   8.691  1.00  0.00     0.189 HD
HETATM   25  C   UNL     1      43.659 -19.159   6.675  1.00  0.00     0.065 A 
HETATM   26  C   UNL     1      43.750 -18.206   5.663  1.00  0.00     0.040 A 
HETATM   27  C   UNL     1      44.018 -20.503   6.512  1.00  0.00     0.051 A 
HETATM   28  C   UNL     1      44.247 -18.622   4.408  1.00  0.00     0.019 A 
HETATM   29  C   UNL     1      44.610 -19.964   4.217  1.00  0.00     0.020 A 
HETATM   30  C   UNL     1      44.493 -20.883   5.255  1.00  0.00     0.013 A 
HETATM   31 BR   UNL     1      44.998 -22.684   4.966  1.00  0.00    -0.051 Br
ENDBRANCH   3  21
TORSDOF 5
ENDMDL
MODEL 9
REMARK VINA RESULT:      -7.5      2.086      2.526
REMARK  5 active torsions:
REMARK  status: ('A' for Active; 'I' for Inactive)
REMARK    1  A    between atoms: C_2  and  C_3 
REMARK    2  A    between atoms: C_3  and  C_4 
REMARK    3  A    between atoms: C_8  and  N_9 
REMARK       I    between atoms: N_9  and  C_10 
REMARK    4  A    between atoms: C_10  and  C_11 
REMARK    5  A    between atoms: N_13  and  C_14 
ROOT
HETATM    1  C   UNL     1      40.210 -11.593   4.691  1.00  0.00     0.106 C 
HETATM    2  C   UNL     1      39.686 -12.981   4.400  1.00  0.00     0.148 C 
HETATM    3  N   UNL     1      40.784 -13.639   3.740  1.00  0.00    -0.299 N 
HETATM    4  C   UNL     1      41.680 -12.707   3.189  1.00  0.00     0.226 C 
HETATM    5  O   UNL     1      42.689 -12.884   2.526  1.00  0.00    -0.273 OA
HETATM    6  C   UNL     1      41.204 -11.326   3.574  1.00  0.00     0.119 C 
ENDROOT
BRANCH   1   7
HETATM    7  C   UNL     1      40.840 -11.491   6.080  1.00  0.00     0.242 C 
HETATM    8  N   UNL     1      40.129 -10.727   6.988  1.00  0.00    -0.156 N 
HETATM    9  H   UNL     1      39.282 -10.247   6.711  1.00  0.00     0.187 HD
HETATM   10  O   UNL     1      41.906 -12.065   6.285  1.00  0.00    -0.272 OA
BRANCH   8  11
HETATM   11  C   UNL     1      40.544 -10.574   8.289  1.00  0.00     0.725 A 
HETATM   12  N   UNL     1      40.071 -11.369   9.301  1.00  0.00    -0.106 N 
HETATM   13  N   UNL     1      40.605 -11.037  10.487  1.00  0.00    -0.144 NA
HETATM   14  H   UNL     1      39.405 -12.130   9.253  1.00  0.00     0.208 HD
HETATM   15  C   UNL     1      41.417 -10.033  10.134  1.00  0.00     0.166 A 
HETATM   16  N   UNL     1      41.403  -9.727   8.800  1.00  0.00    -0.046 NA
BRANCH  15  17
HETATM   17  C   UNL     1      42.282  -9.307  11.102  1.00  0.00     0.087 C 
BRANCH  17  18
HETATM   18  C   UNL     1      43.078 -10.240  12.033  1.00  0.00    -0.016 C 
HETATM   19  C   UNL     1      43.423  -9.565  13.363  1.00  0.00     0.010 C 
HETATM   20  C   UNL     1      44.363 -10.694  11.338  1.00  0.00     0.010 C 
ENDBRANCH  17  18
ENDBRANCH  15  17
ENDBRANCH   8  11
ENDBRANCH   1   7
BRANCH   3  21
HETATM   21  C   UNL     1      40.942 -15.016   3.600  1.00  0.00     0.165 A 
HETATM   22  N   UNL     1      40.196 -15.730   2.751  1.00  0.00    -0.155 NA
HETATM   23  N   UNL     1      40.612 -16.991   2.900  1.00  0.00    -0.275 N 
HETATM   24  H   UNL     1      40.140 -17.715   2.367  1.00  0.00     0.189 HD
HETATM   25  C   UNL     1      41.656 -17.138   3.764  1.00  0.00     0.065 A 
HETATM   26  C   UNL     1      41.908 -15.857   4.252  1.00  0.00     0.040 A 
HETATM   27  C   UNL     1      42.375 -18.274   4.156  1.00  0.00     0.051 A 
HETATM   28  C   UNL     1      42.939 -15.706   5.206  1.00  0.00     0.019 A 
HETATM   29  C   UNL     1      43.677 -16.827   5.612  1.00  0.00     0.020 A 
HETATM   30  C   UNL     1      43.395 -18.086   5.091  1.00  0.00     0.013 A 
HETATM   31 BR   UNL     1      44.406 -19.580   5.664  1.00  0.00    -0.051 Br
ENDBRANCH   3  21
TORSDOF 5
ENDMDL
MODEL 10
REMARK VINA RESULT:      -7.5      4.497      8.353
REMARK  5 active torsions:
REMARK  status: ('A' for Active; 'I' for Inactive)
REMARK    1  A    between atoms: C_2  and  C_3 
REMARK    2  A    between atoms: C_3  and  C_4 
REMARK    3  A    between atoms: C_8  and  N_9 
REMARK       I    between atoms: N_9  and  C_10 
REMARK    4  A    between atoms: C_10  and  C_11 
REMARK    5  A    between atoms: N_13  and  C_14 
ROOT
HETATM    1  C   UNL     1      43.016 -14.938   6.249  1.00  0.00     0.106 C 
HETATM    2  C   UNL     1      41.591 -14.989   5.747  1.00  0.00     0.148 C 
HETATM    3  N   UNL     1      41.699 -14.650   4.351  1.00  0.00    -0.299 N 
HETATM    4  C   UNL     1      42.892 -13.958   4.085  1.00  0.00     0.226 C 
HETATM    5  O   UNL     1      43.304 -13.474   3.043  1.00  0.00    -0.273 OA
HETATM    6  C   UNL     1      43.686 -13.897   5.368  1.00  0.00     0.119 C 
ENDROOT
BRANCH   1   7
HETATM    7  C   UNL     1      43.704 -16.301   6.180  1.00  0.00     0.242 C 
HETATM    8  N   UNL     1      42.919 -17.327   5.683  1.00  0.00    -0.156 N 
HETATM    9  H   UNL     1      41.951 -17.164   5.433  1.00  0.00     0.187 HD
HETATM   10  O   UNL     1      44.865 -16.394   6.571  1.00  0.00    -0.272 OA
BRANCH   8  11
HETATM   11  C   UNL     1      43.407 -18.601   5.521  1.00  0.00     0.725 A 
HETATM   12  N   UNL     1      43.671 -19.419   6.588  1.00  0.00    -0.106 N 
HETATM   13  N   UNL     1      44.147 -20.612   6.196  1.00  0.00    -0.144 NA
HETATM   14  H   UNL     1      43.554 -19.234   7.576  1.00  0.00     0.208 HD
HETATM   15  C   UNL     1      44.139 -20.469   4.865  1.00  0.00     0.166 A 
HETATM   16  N   UNL     1      43.692 -19.254   4.422  1.00  0.00    -0.046 NA
BRANCH  15  17
HETATM   17  C   UNL     1      44.566 -21.544   3.929  1.00  0.00     0.087 C 
BRANCH  17  18
HETATM   18  C   UNL     1      44.397 -21.168   2.446  1.00  0.00    -0.016 C 
HETATM   19  C   UNL     1      42.934 -21.239   1.999  1.00  0.00     0.010 C 
HETATM   20  C   UNL     1      45.246 -22.096   1.574  1.00  0.00     0.010 C 
ENDBRANCH  17  18
ENDBRANCH  15  17
ENDBRANCH   8  11
ENDBRANCH   1   7
BRANCH   3  21
HETATM   21  C   UNL     1      40.739 -14.912   3.376  1.00  0.00     0.165 A 
HETATM   22  N   UNL     1      40.532 -16.144   2.900  1.00  0.00    -0.155 NA
HETATM   23  N   UNL     1      39.567 -16.007   1.987  1.00  0.00    -0.275 N 
HETATM   24  H   UNL     1      39.281 -16.830   1.466  1.00  0.00     0.189 HD
HETATM   25  C   UNL     1      39.070 -14.741   1.885  1.00  0.00     0.065 A 
HETATM   26  C   UNL     1      39.816 -13.983   2.784  1.00  0.00     0.040 A 
HETATM   27  C   UNL     1      38.053 -14.213   1.079  1.00  0.00     0.051 A 
HETATM   28  C   UNL     1      39.535 -12.601   2.874  1.00  0.00     0.019 A 
HETATM   29  C   UNL     1      38.519 -12.048   2.082  1.00  0.00     0.020 A 
HETATM   30  C   UNL     1      37.793 -12.847   1.202  1.00  0.00     0.013 A 
HETATM   31 BR   UNL     1      36.432 -12.068   0.143  1.00  0.00    -0.051 Br
ENDBRANCH   3  21
TORSDOF 5
ENDMDL
