MODEL 1
REMARK VINA RESULT:      -9.0      0.000      0.000
REMARK  9 active torsions:
REMARK  status: ('A' for Active; 'I' for Inactive)
REMARK    1  A    between atoms: O_2  and  C_3 
REMARK    2  A    between atoms: C_5  and  O_6 
REMARK    3  A    between atoms: C_8  and  N_9 
REMARK    4  A    between atoms: C_10  and  O_11 
REMARK    5  A    between atoms: C_10  and  C_12 
REMARK       I    between atoms: C_12  and  N_13 
REMARK    6  A    between atoms: N_13  and  C_14 
REMARK    7  A    between atoms: C_14  and  C_15 
REMARK    8  A    between atoms: C_15  and  N_16 
REMARK    9  A    between atoms: N_20  and  C_21 
ROOT
HETATM    1  N   UNL     1      40.792 -12.798   0.995  1.00  0.00    -0.251 N 
HETATM    2  C   UNL     1      39.999 -12.926   2.224  1.00  0.00     0.256 C 
HETATM    3  C   UNL     1      39.685 -11.566   2.823  1.00  0.00     0.034 A 
HETATM    4  C   UNL     1      40.600 -10.539   2.618  1.00  0.00     0.048 A 
HETATM    5  N   UNL     1      41.689 -10.775   1.787  1.00  0.00    -0.308 N 
HETATM    6  C   UNL     1      41.768 -11.816   0.910  1.00  0.00     0.330 C 
HETATM    7  O   UNL     1      42.706 -11.843   0.114  1.00  0.00    -0.246 OA
HETATM    8  C   UNL     1      38.554 -11.309   3.615  1.00  0.00     0.015 A 
HETATM    9  C   UNL     1      38.351 -10.044   4.171  1.00  0.00     0.001 A 
HETATM   10  C   UNL     1      39.288  -9.033   3.965  1.00  0.00     0.002 A 
HETATM   11  C   UNL     1      40.423  -9.281   3.195  1.00  0.00     0.030 A 
HETATM   12  H   UNL     1      42.355 -10.029   1.612  1.00  0.00     0.170 HD
ENDROOT
BRANCH   2  13
HETATM   13  O   UNL     1      38.730 -13.524   1.948  1.00  0.00    -0.359 OA
HETATM   14  H   UNL     1      38.592 -13.427   0.991  1.00  0.00     0.213 HD
ENDBRANCH   2  13
BRANCH   2  15
HETATM   15  C   UNL     1      40.750 -13.789   3.344  1.00  0.00     0.279 C 
HETATM   16  N   UNL     1      40.019 -14.205   4.442  1.00  0.00    -0.355 N 
HETATM   17  H   UNL     1      39.152 -13.688   4.593  1.00  0.00     0.162 HD
HETATM   18  O   UNL     1      41.926 -14.157   3.223  1.00  0.00    -0.268 OA
BRANCH  16  19
HETATM   19  C   UNL     1      40.606 -14.813   5.634  1.00  0.00     0.150 C 
BRANCH  19  20
HETATM   20  C   UNL     1      40.752 -16.354   5.637  1.00  0.00     0.254 C 
BRANCH  20  21
HETATM   21  N   UNL     1      42.067 -16.840   5.082  1.00  0.00    -0.067 N 
HETATM   22  H   UNL     1      42.664 -15.993   4.976  1.00  0.00     0.280 HD
HETATM   23  C   UNL     1      42.867 -17.756   6.004  1.00  0.00     0.254 C 
HETATM   24  C   UNL     1      44.265 -18.025   5.405  1.00  0.00     0.150 C 
HETATM   25  N   UNL     1      44.144 -18.582   4.044  1.00  0.00    -0.378 N 
HETATM   26  C   UNL     1      43.335 -17.780   3.112  1.00  0.00     0.150 C 
HETATM   27  C   UNL     1      41.941 -17.464   3.695  1.00  0.00     0.254 C 
BRANCH  25  28
HETATM   28  C   UNL     1      44.333 -19.948   3.873  1.00  0.00     0.030 A 
HETATM   29  C   UNL     1      44.701 -20.810   4.915  1.00  0.00     0.029 A 
HETATM   30  C   UNL     1      44.872 -22.186   4.707  1.00  0.00     0.002 A 
HETATM   31  C   UNL     1      44.665 -22.736   3.448  1.00  0.00     0.000 A 
HETATM   32  C   UNL     1      44.282 -21.912   2.400  1.00  0.00     0.002 A 
HETATM   33  C   UNL     1      44.116 -20.539   2.615  1.00  0.00     0.029 A 
ENDBRANCH  25  28
ENDBRANCH  20  21
ENDBRANCH  19  20
ENDBRANCH  16  19
ENDBRANCH   2  15
BRANCH   1  34
HETATM   34  C   UNL     1      40.510 -13.601  -0.163  1.00  0.00     0.076 A 
HETATM   35  C   UNL     1      39.652 -13.196  -1.203  1.00  0.00     0.098 A 
HETATM   36  C   UNL     1      39.566 -13.942  -2.391  1.00  0.00     0.075 A 
HETATM   37  C   UNL     1      40.288 -15.126  -2.532  1.00  0.00     0.070 A 
HETATM   38  C   UNL     1      41.064 -15.582  -1.470  1.00  0.00     0.039 A 
HETATM   39  C   UNL     1      41.175 -14.830  -0.299  1.00  0.00     0.035 A 
BRANCH  35  40
HETATM   40  O   UNL     1      38.929 -12.036  -1.028  1.00  0.00    -0.354 OA
HETATM   41  C   UNL     1      39.306 -10.998  -1.938  1.00  0.00     0.210 C 
ENDBRANCH  35  40
BRANCH  37  42
HETATM   42  O   UNL     1      40.307 -15.925  -3.641  1.00  0.00    -0.356 OA
HETATM   43  C   UNL     1      39.047 -16.293  -4.190  1.00  0.00     0.210 C 
ENDBRANCH  37  42
ENDBRANCH   1  34
TORSDOF 9
ENDMDL
MODEL 2
REMARK VINA RESULT:      -9.0      2.391      3.545
REMARK  9 active torsions:
REMARK  status: ('A' for Active; 'I' for Inactive)
REMARK    1  A    between atoms: O_2  and  C_3 
REMARK    2  A    between atoms: C_5  and  O_6 
REMARK    3  A    between atoms: C_8  and  N_9 
REMARK    4  A    between atoms: C_10  and  O_11 
REMARK    5  A    between atoms: C_10  and  C_12 
REMARK       I    between atoms: C_12  and  N_13 
REMARK    6  A    between atoms: N_13  and  C_14 
REMARK    7  A    between atoms: C_14  and  C_15 
REMARK    8  A    between atoms: C_15  and  N_16 
REMARK    9  A    between atoms: N_20  and  C_21 
ROOT
HETATM    1  N   UNL     1      40.202 -13.075  -2.203  1.00  0.00    -0.251 N 
HETATM    2  C   UNL     1      40.265 -12.461  -0.871  1.00  0.00     0.256 C 
HETATM    3  C   UNL     1      41.346 -11.396  -0.805  1.00  0.00     0.034 A 
HETATM    4  C   UNL     1      42.464 -11.552  -1.618  1.00  0.00     0.048 A 
HETATM    5  N   UNL     1      42.483 -12.604  -2.525  1.00  0.00    -0.308 N 
HETATM    6  C   UNL     1      41.375 -13.302  -2.907  1.00  0.00     0.330 C 
HETATM    7  O   UNL     1      41.480 -14.109  -3.830  1.00  0.00    -0.246 OA
HETATM    8  C   UNL     1      41.302 -10.298   0.072  1.00  0.00     0.015 A 
HETATM    9  C   UNL     1      42.353  -9.380   0.111  1.00  0.00     0.001 A 
HETATM   10  C   UNL     1      43.471  -9.564  -0.702  1.00  0.00     0.002 A 
HETATM   11  C   UNL     1      43.533 -10.658  -1.563  1.00  0.00     0.030 A 
HETATM   12  H   UNL     1      43.283 -12.719  -3.140  1.00  0.00     0.170 HD
ENDROOT
BRANCH   2  13
HETATM   13  O   UNL     1      39.043 -11.784  -0.567  1.00  0.00    -0.359 OA
HETATM   14  H   UNL     1      38.332 -12.418  -0.759  1.00  0.00     0.213 HD
ENDBRANCH   2  13
BRANCH   2  15
HETATM   15  C   UNL     1      40.568 -13.533   0.278  1.00  0.00     0.279 C 
HETATM   16  N   UNL     1      39.516 -13.943   1.077  1.00  0.00    -0.355 N 
HETATM   17  H   UNL     1      38.708 -13.321   1.064  1.00  0.00     0.162 HD
HETATM   18  O   UNL     1      41.680 -14.058   0.422  1.00  0.00    -0.268 OA
BRANCH  16  19
HETATM   19  C   UNL     1      39.672 -14.748   2.287  1.00  0.00     0.150 C 
BRANCH  19  20
HETATM   20  C   UNL     1      39.921 -16.264   2.096  1.00  0.00     0.254 C 
BRANCH  20  21
HETATM   21  N   UNL     1      41.360 -16.671   2.288  1.00  0.00    -0.067 N 
HETATM   22  H   UNL     1      41.912 -15.788   2.278  1.00  0.00     0.280 HD
HETATM   23  C   UNL     1      41.684 -17.306   3.638  1.00  0.00     0.254 C 
HETATM   24  C   UNL     1      43.210 -17.498   3.782  1.00  0.00     0.150 C 
HETATM   25  N   UNL     1      43.737 -18.294   2.657  1.00  0.00    -0.378 N 
HETATM   26  C   UNL     1      43.413 -17.773   1.319  1.00  0.00     0.150 C 
HETATM   27  C   UNL     1      41.897 -17.537   1.152  1.00  0.00     0.254 C 
BRANCH  25  28
HETATM   28  C   UNL     1      44.028 -19.635   2.879  1.00  0.00     0.030 A 
HETATM   29  C   UNL     1      44.540 -20.121   4.090  1.00  0.00     0.029 A 
HETATM   30  C   UNL     1      44.811 -21.483   4.281  1.00  0.00     0.002 A 
HETATM   31  C   UNL     1      44.563 -22.397   3.264  1.00  0.00     0.000 A 
HETATM   32  C   UNL     1      44.039 -21.950   2.060  1.00  0.00     0.002 A 
HETATM   33  C   UNL     1      43.774 -20.588   1.876  1.00  0.00     0.029 A 
ENDBRANCH  25  28
ENDBRANCH  20  21
ENDBRANCH  19  20
ENDBRANCH  16  19
ENDBRANCH   2  15
BRANCH   1  34
HETATM   34  C   UNL     1      38.944 -13.352  -2.840  1.00  0.00     0.076 A 
HETATM   35  C   UNL     1      38.184 -12.381  -3.520  1.00  0.00     0.098 A 
HETATM   36  C   UNL     1      37.062 -12.754  -4.278  1.00  0.00     0.075 A 
HETATM   37  C   UNL     1      36.651 -14.086  -4.320  1.00  0.00     0.070 A 
HETATM   38  C   UNL     1      37.341 -15.035  -3.571  1.00  0.00     0.039 A 
HETATM   39  C   UNL     1      38.474 -14.674  -2.840  1.00  0.00     0.035 A 
BRANCH  35  40
HETATM   40  O   UNL     1      38.595 -11.068  -3.442  1.00  0.00    -0.354 OA
HETATM   41  C   UNL     1      39.299 -10.630  -4.609  1.00  0.00     0.210 C 
ENDBRANCH  35  40
BRANCH  37  42
HETATM   42  O   UNL     1      35.595 -14.576  -5.035  1.00  0.00    -0.356 OA
HETATM   43  C   UNL     1      35.376 -14.017  -6.324  1.00  0.00     0.210 C 
ENDBRANCH  37  42
ENDBRANCH   1  34
TORSDOF 9
ENDMDL
MODEL 3
REMARK VINA RESULT:      -9.0      2.479      4.637
REMARK  9 active torsions:
REMARK  status: ('A' for Active; 'I' for Inactive)
REMARK    1  A    between atoms: O_2  and  C_3 
REMARK    2  A    between atoms: C_5  and  O_6 
REMARK    3  A    between atoms: C_8  and  N_9 
REMARK    4  A    between atoms: C_10  and  O_11 
REMARK    5  A    between atoms: C_10  and  C_12 
REMARK       I    between atoms: C_12  and  N_13 
REMARK    6  A    between atoms: N_13  and  C_14 
REMARK    7  A    between atoms: C_14  and  C_15 
REMARK    8  A    between atoms: C_15  and  N_16 
REMARK    9  A    between atoms: N_20  and  C_21 
ROOT
HETATM    1  N   UNL     1      40.152 -14.370   0.373  1.00  0.00    -0.251 N 
HETATM    2  C   UNL     1      41.589 -14.568   0.597  1.00  0.00     0.256 C 
HETATM    3  C   UNL     1      41.889 -15.993   1.030  1.00  0.00     0.034 A 
HETATM    4  C   UNL     1      40.912 -16.673   1.750  1.00  0.00     0.048 A 
HETATM    5  N   UNL     1      39.678 -16.061   1.935  1.00  0.00    -0.308 N 
HETATM    6  C   UNL     1      39.238 -14.995   1.208  1.00  0.00     0.330 C 
HETATM    7  O   UNL     1      38.071 -14.630   1.348  1.00  0.00    -0.246 OA
HETATM    8  C   UNL     1      43.115 -16.636   0.792  1.00  0.00     0.015 A 
HETATM    9  C   UNL     1      43.338 -17.932   1.259  1.00  0.00     0.001 A 
HETATM   10  C   UNL     1      42.351 -18.590   1.991  1.00  0.00     0.002 A 
HETATM   11  C   UNL     1      41.136 -17.957   2.248  1.00  0.00     0.030 A 
HETATM   12  H   UNL     1      38.947 -16.553   2.441  1.00  0.00     0.170 HD
ENDROOT
BRANCH   2  13
HETATM   13  O   UNL     1      42.321 -14.377  -0.616  1.00  0.00    -0.359 OA
HETATM   14  H   UNL     1      41.817 -13.727  -1.133  1.00  0.00     0.213 HD
ENDBRANCH   2  13
BRANCH   2  15
HETATM   15  C   UNL     1      42.171 -13.586   1.718  1.00  0.00     0.279 C 
HETATM   16  N   UNL     1      42.433 -14.113   2.971  1.00  0.00    -0.355 N 
HETATM   17  H   UNL     1      41.965 -14.998   3.162  1.00  0.00     0.162 HD
HETATM   18  O   UNL     1      42.464 -12.406   1.482  1.00  0.00    -0.268 OA
BRANCH  16  19
HETATM   19  C   UNL     1      42.765 -13.308   4.144  1.00  0.00     0.150 C 
BRANCH  19  20
HETATM   20  C   UNL     1      41.869 -13.486   5.394  1.00  0.00     0.254 C 
BRANCH  20  21
HETATM   21  N   UNL     1      42.207 -14.705   6.214  1.00  0.00    -0.067 N 
HETATM   22  H   UNL     1      41.921 -14.482   7.191  1.00  0.00     0.280 HD
HETATM   23  C   UNL     1      41.419 -15.965   5.866  1.00  0.00     0.254 C 
HETATM   24  C   UNL     1      41.717 -17.079   6.894  1.00  0.00     0.150 C 
HETATM   25  N   UNL     1      43.167 -17.338   6.968  1.00  0.00    -0.378 N 
HETATM   26  C   UNL     1      43.998 -16.155   7.244  1.00  0.00     0.150 C 
HETATM   27  C   UNL     1      43.702 -15.008   6.254  1.00  0.00     0.254 C 
BRANCH  25  28
HETATM   28  C   UNL     1      43.669 -18.460   6.321  1.00  0.00     0.030 A 
HETATM   29  C   UNL     1      44.317 -18.406   5.079  1.00  0.00     0.029 A 
HETATM   30  C   UNL     1      44.822 -19.560   4.461  1.00  0.00     0.002 A 
HETATM   31  C   UNL     1      44.700 -20.798   5.080  1.00  0.00     0.000 A 
HETATM   32  C   UNL     1      44.080 -20.882   6.318  1.00  0.00     0.002 A 
HETATM   33  C   UNL     1      43.577 -19.726   6.927  1.00  0.00     0.029 A 
ENDBRANCH  25  28
ENDBRANCH  20  21
ENDBRANCH  19  20
ENDBRANCH  16  19
ENDBRANCH   2  15
BRANCH   1  34
HETATM   34  C   UNL     1      39.667 -13.624  -0.755  1.00  0.00     0.076 A 
HETATM   35  C   UNL     1      39.577 -14.151  -2.057  1.00  0.00     0.098 A 
HETATM   36  C   UNL     1      38.921 -13.436  -3.074  1.00  0.00     0.075 A 
HETATM   37  C   UNL     1      38.401 -12.167  -2.820  1.00  0.00     0.070 A 
HETATM   38  C   UNL     1      38.573 -11.601  -1.561  1.00  0.00     0.039 A 
HETATM   39  C   UNL     1      39.198 -12.319  -0.539  1.00  0.00     0.035 A 
BRANCH  35  40
HETATM   40  O   UNL     1      40.121 -15.395  -2.290  1.00  0.00    -0.354 OA
HETATM   41  C   UNL     1      39.729 -15.953  -3.548  1.00  0.00     0.210 C 
ENDBRANCH  35  40
BRANCH  37  42
HETATM   42  O   UNL     1      37.726 -11.385  -3.714  1.00  0.00    -0.356 OA
HETATM   43  C   UNL     1      36.922 -10.342  -3.177  1.00  0.00     0.210 C 
ENDBRANCH  37  42
ENDBRANCH   1  34
TORSDOF 9
ENDMDL
MODEL 4
REMARK VINA RESULT:      -9.0      3.915      8.057
REMARK  9 active torsions:
REMARK  status: ('A' for Active; 'I' for Inactive)
REMARK    1  A    between atoms: O_2  and  C_3 
REMARK    2  A    between atoms: C_5  and  O_6 
REMARK    3  A    between atoms: C_8  and  N_9 
REMARK    4  A    between atoms: C_10  and  O_11 
REMARK    5  A    between atoms: C_10  and  C_12 
REMARK       I    between atoms: C_12  and  N_13 
REMARK    6  A    between atoms: N_13  and  C_14 
REMARK    7  A    between atoms: C_14  and  C_15 
REMARK    8  A    between atoms: C_15  and  N_16 
REMARK    9  A    between atoms: N_20  and  C_21 
ROOT
HETATM    1  N   UNL     1      42.341 -15.040   3.602  1.00  0.00    -0.251 N 
HETATM    2  C   UNL     1      40.882 -15.076   3.440  1.00  0.00     0.256 C 
HETATM    3  C   UNL     1      40.456 -14.438   2.128  1.00  0.00     0.034 A 
HETATM    4  C   UNL     1      41.248 -13.416   1.615  1.00  0.00     0.048 A 
HETATM    5  N   UNL     1      42.439 -13.111   2.262  1.00  0.00    -0.308 N 
HETATM    6  C   UNL     1      43.049 -13.931   3.165  1.00  0.00     0.330 C 
HETATM    7  O   UNL     1      44.176 -13.634   3.560  1.00  0.00    -0.246 OA
HETATM    8  C   UNL     1      39.281 -14.786   1.441  1.00  0.00     0.015 A 
HETATM    9  C   UNL     1      38.929 -14.126   0.262  1.00  0.00     0.001 A 
HETATM   10  C   UNL     1      39.729 -13.095  -0.227  1.00  0.00     0.002 A 
HETATM   11  C   UNL     1      40.888 -12.729   0.456  1.00  0.00     0.030 A 
HETATM   12  H   UNL     1      43.038 -12.381   1.889  1.00  0.00     0.170 HD
ENDROOT
BRANCH   2  13
HETATM   13  O   UNL     1      40.412 -16.425   3.378  1.00  0.00    -0.359 OA
HETATM   14  H   UNL     1      41.125 -16.973   3.745  1.00  0.00     0.213 HD
ENDBRANCH   2  13
BRANCH   2  15
HETATM   15  C   UNL     1      40.120 -14.312   4.622  1.00  0.00     0.279 C 
HETATM   16  N   UNL     1      39.575 -13.070   4.348  1.00  0.00    -0.355 N 
HETATM   17  H   UNL     1      39.951 -12.619   3.514  1.00  0.00     0.162 HD
HETATM   18  O   UNL     1      39.938 -14.823   5.735  1.00  0.00    -0.268 OA
BRANCH  16  19
HETATM   19  C   UNL     1      39.039 -12.169   5.366  1.00  0.00     0.150 C 
BRANCH  19  20
HETATM   20  C   UNL     1      39.535 -10.703   5.337  1.00  0.00     0.254 C 
BRANCH  20  21
HETATM   21  N   UNL     1      39.878 -10.152   6.697  1.00  0.00    -0.067 N 
HETATM   22  H   UNL     1      39.097  -9.512   6.954  1.00  0.00     0.280 HD
HETATM   23  C   UNL     1      39.915 -11.177   7.827  1.00  0.00     0.254 C 
HETATM   24  C   UNL     1      40.086 -10.464   9.187  1.00  0.00     0.150 C 
HETATM   25  N   UNL     1      41.290  -9.613   9.175  1.00  0.00    -0.378 N 
HETATM   26  C   UNL     1      41.353  -8.636   8.076  1.00  0.00     0.150 C 
HETATM   27  C   UNL     1      41.152  -9.312   6.702  1.00  0.00     0.254 C 
BRANCH  25  28
HETATM   28  C   UNL     1      42.432 -10.079   9.816  1.00  0.00     0.030 A 
HETATM   29  C   UNL     1      42.774  -9.728  11.129  1.00  0.00     0.029 A 
HETATM   30  C   UNL     1      43.930 -10.227  11.748  1.00  0.00     0.002 A 
HETATM   31  C   UNL     1      44.766 -11.105  11.068  1.00  0.00     0.000 A 
HETATM   32  C   UNL     1      44.445 -11.486   9.773  1.00  0.00     0.002 A 
HETATM   33  C   UNL     1      43.291 -10.981   9.162  1.00  0.00     0.029 A 
ENDBRANCH  25  28
ENDBRANCH  20  21
ENDBRANCH  19  20
ENDBRANCH  16  19
ENDBRANCH   2  15
BRANCH   1  34
HETATM   34  C   UNL     1      43.064 -16.173   4.110  1.00  0.00     0.076 A 
HETATM   35  C   UNL     1      43.388 -16.344   5.469  1.00  0.00     0.098 A 
HETATM   36  C   UNL     1      43.928 -17.558   5.928  1.00  0.00     0.075 A 
HETATM   37  C   UNL     1      44.204 -18.589   5.031  1.00  0.00     0.070 A 
HETATM   38  C   UNL     1      43.976 -18.390   3.672  1.00  0.00     0.039 A 
HETATM   39  C   UNL     1      43.412 -17.197   3.216  1.00  0.00     0.035 A 
BRANCH  35  40
HETATM   40  O   UNL     1      43.131 -15.301   6.331  1.00  0.00    -0.354 OA
HETATM   41  C   UNL     1      44.302 -14.824   7.001  1.00  0.00     0.210 C 
ENDBRANCH  35  40
BRANCH  37  42
HETATM   42  O   UNL     1      44.706 -19.819   5.354  1.00  0.00    -0.356 OA
HETATM   43  C   UNL     1      45.152 -20.635   4.277  1.00  0.00     0.210 C 
ENDBRANCH  37  42
ENDBRANCH   1  34
TORSDOF 9
ENDMDL
MODEL 5
REMARK VINA RESULT:      -8.9      4.788      8.800
REMARK  9 active torsions:
REMARK  status: ('A' for Active; 'I' for Inactive)
REMARK    1  A    between atoms: O_2  and  C_3 
REMARK    2  A    between atoms: C_5  and  O_6 
REMARK    3  A    between atoms: C_8  and  N_9 
REMARK    4  A    between atoms: C_10  and  O_11 
REMARK    5  A    between atoms: C_10  and  C_12 
REMARK       I    between atoms: C_12  and  N_13 
REMARK    6  A    between atoms: N_13  and  C_14 
REMARK    7  A    between atoms: C_14  and  C_15 
REMARK    8  A    between atoms: C_15  and  N_16 
REMARK    9  A    between atoms: N_20  and  C_21 
ROOT
HETATM    1  N   UNL     1      42.456 -14.857   3.888  1.00  0.00    -0.251 N 
HETATM    2  C   UNL     1      40.989 -14.795   3.911  1.00  0.00     0.256 C 
HETATM    3  C   UNL     1      40.445 -14.149   2.648  1.00  0.00     0.034 A 
HETATM    4  C   UNL     1      41.231 -13.191   2.017  1.00  0.00     0.048 A 
HETATM    5  N   UNL     1      42.512 -12.960   2.502  1.00  0.00    -0.308 N 
HETATM    6  C   UNL     1      43.176 -13.806   3.340  1.00  0.00     0.330 C 
HETATM    7  O   UNL     1      44.361 -13.581   3.584  1.00  0.00    -0.246 OA
HETATM    8  C   UNL     1      39.172 -14.426   2.122  1.00  0.00     0.015 A 
HETATM    9  C   UNL     1      38.718 -13.761   0.981  1.00  0.00     0.001 A 
HETATM   10  C   UNL     1      39.516 -12.794   0.372  1.00  0.00     0.002 A 
HETATM   11  C   UNL     1      40.774 -12.499   0.895  1.00  0.00     0.030 A 
HETATM   12  H   UNL     1      43.106 -12.278   2.040  1.00  0.00     0.170 HD
ENDROOT
BRANCH   2  13
HETATM   13  O   UNL     1      40.427 -16.109   3.940  1.00  0.00    -0.359 OA
HETATM   14  H   UNL     1      41.044 -16.675   3.447  1.00  0.00     0.213 HD
ENDBRANCH   2  13
BRANCH   2  15
HETATM   15  C   UNL     1      40.435 -13.963   5.161  1.00  0.00     0.279 C 
HETATM   16  N   UNL     1      40.228 -12.605   4.997  1.00  0.00    -0.355 N 
HETATM   17  H   UNL     1      40.715 -12.197   4.199  1.00  0.00     0.162 HD
HETATM   18  O   UNL     1      40.117 -14.501   6.230  1.00  0.00    -0.268 OA
BRANCH  16  19
HETATM   19  C   UNL     1      39.929 -11.684   6.092  1.00  0.00     0.150 C 
BRANCH  19  20
HETATM   20  C   UNL     1      41.122 -10.911   6.705  1.00  0.00     0.254 C 
BRANCH  20  21
HETATM   21  N   UNL     1      41.356 -11.214   8.163  1.00  0.00    -0.067 N 
HETATM   22  H   UNL     1      41.331 -12.252   8.248  1.00  0.00     0.280 HD
HETATM   23  C   UNL     1      42.730 -10.822   8.699  1.00  0.00     0.254 C 
HETATM   24  C   UNL     1      42.912 -11.355  10.138  1.00  0.00     0.150 C 
HETATM   25  N   UNL     1      41.822 -10.873  11.007  1.00  0.00    -0.378 N 
HETATM   26  C   UNL     1      40.463 -11.164  10.524  1.00  0.00     0.150 C 
HETATM   27  C   UNL     1      40.257 -10.674   9.074  1.00  0.00     0.254 C 
BRANCH  25  28
HETATM   28  C   UNL     1      42.089  -9.820  11.874  1.00  0.00     0.030 A 
HETATM   29  C   UNL     1      41.532  -8.542  11.727  1.00  0.00     0.029 A 
HETATM   30  C   UNL     1      41.816  -7.506  12.629  1.00  0.00     0.002 A 
HETATM   31  C   UNL     1      42.658  -7.730  13.711  1.00  0.00     0.000 A 
HETATM   32  C   UNL     1      43.211  -8.989  13.895  1.00  0.00     0.002 A 
HETATM   33  C   UNL     1      42.925 -10.017  12.989  1.00  0.00     0.029 A 
ENDBRANCH  25  28
ENDBRANCH  20  21
ENDBRANCH  19  20
ENDBRANCH  16  19
ENDBRANCH   2  15
BRANCH   1  34
HETATM   34  C   UNL     1      43.161 -16.029   4.329  1.00  0.00     0.076 A 
HETATM   35  C   UNL     1      43.532 -16.258   5.667  1.00  0.00     0.098 A 
HETATM   36  C   UNL     1      44.050 -17.504   6.063  1.00  0.00     0.075 A 
HETATM   37  C   UNL     1      44.256 -18.511   5.121  1.00  0.00     0.070 A 
HETATM   38  C   UNL     1      43.982 -18.257   3.780  1.00  0.00     0.039 A 
HETATM   39  C   UNL     1      43.440 -17.032   3.387  1.00  0.00     0.035 A 
BRANCH  35  40
HETATM   40  O   UNL     1      43.343 -15.238   6.574  1.00  0.00    -0.354 OA
HETATM   41  C   UNL     1      44.564 -14.608   6.972  1.00  0.00     0.210 C 
ENDBRANCH  35  40
BRANCH  37  42
HETATM   42  O   UNL     1      44.730 -19.766   5.382  1.00  0.00    -0.356 OA
HETATM   43  C   UNL     1      44.871 -20.644   4.271  1.00  0.00     0.210 C 
ENDBRANCH  37  42
ENDBRANCH   1  34
TORSDOF 9
ENDMDL
MODEL 6
REMARK VINA RESULT:      -8.8      2.342      3.370
REMARK  9 active torsions:
REMARK  status: ('A' for Active; 'I' for Inactive)
REMARK    1  A    between atoms: O_2  and  C_3 
REMARK    2  A    between atoms: C_5  and  O_6 
REMARK    3  A    between atoms: C_8  and  N_9 
REMARK    4  A    between atoms: C_10  and  O_11 
REMARK    5  A    between atoms: C_10  and  C_12 
REMARK       I    between atoms: C_12  and  N_13 
REMARK    6  A    between atoms: N_13  and  C_14 
REMARK    7  A    between atoms: C_14  and  C_15 
REMARK    8  A    between atoms: C_15  and  N_16 
REMARK    9  A    between atoms: N_20  and  C_21 
ROOT
HETATM    1  N   UNL     1      41.822 -14.351   3.215  1.00  0.00    -0.251 N 
HETATM    2  C   UNL     1      40.731 -14.616   4.162  1.00  0.00     0.256 C 
HETATM    3  C   UNL     1      40.578 -13.480   5.159  1.00  0.00     0.034 A 
HETATM    4  C   UNL     1      41.716 -12.757   5.502  1.00  0.00     0.048 A 
HETATM    5  N   UNL     1      42.903 -13.033   4.834  1.00  0.00    -0.308 N 
HETATM    6  C   UNL     1      42.976 -13.725   3.661  1.00  0.00     0.330 C 
HETATM    7  O   UNL     1      44.058 -13.778   3.078  1.00  0.00    -0.246 OA
HETATM    8  C   UNL     1      39.364 -13.161   5.792  1.00  0.00     0.015 A 
HETATM    9  C   UNL     1      39.306 -12.131   6.732  1.00  0.00     0.001 A 
HETATM   10  C   UNL     1      40.461 -11.429   7.072  1.00  0.00     0.002 A 
HETATM   11  C   UNL     1      41.674 -11.748   6.463  1.00  0.00     0.030 A 
HETATM   12  H   UNL     1      43.738 -12.500   5.059  1.00  0.00     0.170 HD
ENDROOT
BRANCH   2  13
HETATM   13  O   UNL     1      39.477 -14.696   3.479  1.00  0.00    -0.359 OA
HETATM   14  H   UNL     1      38.895 -15.224   4.051  1.00  0.00     0.213 HD
ENDBRANCH   2  13
BRANCH   2  15
HETATM   15  C   UNL     1      40.961 -15.965   4.992  1.00  0.00     0.279 C 
HETATM   16  N   UNL     1      41.162 -15.861   6.357  1.00  0.00    -0.355 N 
HETATM   17  H   UNL     1      41.438 -14.931   6.674  1.00  0.00     0.162 HD
HETATM   18  O   UNL     1      40.888 -17.086   4.473  1.00  0.00    -0.268 OA
BRANCH  16  19
HETATM   19  C   UNL     1      41.589 -16.969   7.209  1.00  0.00     0.150 C 
BRANCH  19  20
HETATM   20  C   UNL     1      43.063 -16.965   7.681  1.00  0.00     0.254 C 
BRANCH  20  21
HETATM   21  N   UNL     1      43.879 -18.109   7.135  1.00  0.00    -0.067 N 
HETATM   22  H   UNL     1      44.569 -18.350   7.877  1.00  0.00     0.280 HD
HETATM   23  C   UNL     1      43.109 -19.406   6.898  1.00  0.00     0.254 C 
HETATM   24  C   UNL     1      44.085 -20.543   6.526  1.00  0.00     0.150 C 
HETATM   25  N   UNL     1      44.897 -20.162   5.355  1.00  0.00    -0.378 N 
HETATM   26  C   UNL     1      45.625 -18.890   5.488  1.00  0.00     0.150 C 
HETATM   27  C   UNL     1      44.682 -17.736   5.893  1.00  0.00     0.254 C 
BRANCH  25  28
HETATM   28  C   UNL     1      44.557 -20.694   4.117  1.00  0.00     0.030 A 
HETATM   29  C   UNL     1      43.956 -19.944   3.097  1.00  0.00     0.029 A 
HETATM   30  C   UNL     1      43.637 -20.513   1.855  1.00  0.00     0.002 A 
HETATM   31  C   UNL     1      43.925 -21.849   1.600  1.00  0.00     0.000 A 
HETATM   32  C   UNL     1      44.537 -22.613   2.583  1.00  0.00     0.002 A 
HETATM   33  C   UNL     1      44.850 -22.038   3.821  1.00  0.00     0.029 A 
ENDBRANCH  25  28
ENDBRANCH  20  21
ENDBRANCH  19  20
ENDBRANCH  16  19
ENDBRANCH   2  15
BRANCH   1  34
HETATM   34  C   UNL     1      41.680 -14.634   1.814  1.00  0.00     0.076 A 
HETATM   35  C   UNL     1      42.034 -15.864   1.227  1.00  0.00     0.098 A 
HETATM   36  C   UNL     1      41.697 -16.143  -0.108  1.00  0.00     0.075 A 
HETATM   37  C   UNL     1      41.057 -15.180  -0.888  1.00  0.00     0.070 A 
HETATM   38  C   UNL     1      40.792 -13.927  -0.343  1.00  0.00     0.039 A 
HETATM   39  C   UNL     1      41.099 -13.656   0.992  1.00  0.00     0.035 A 
BRANCH  35  40
HETATM   40  O   UNL     1      42.688 -16.789   2.011  1.00  0.00    -0.354 OA
HETATM   41  C   UNL     1      44.089 -16.872   1.730  1.00  0.00     0.210 C 
ENDBRANCH  35  40
BRANCH  37  42
HETATM   42  O   UNL     1      40.659 -15.336  -2.186  1.00  0.00    -0.356 OA
HETATM   43  C   UNL     1      41.196 -14.426  -3.138  1.00  0.00     0.210 C 
ENDBRANCH  37  42
ENDBRANCH   1  34
TORSDOF 9
ENDMDL
MODEL 7
REMARK VINA RESULT:      -8.8      2.689      8.471
REMARK  9 active torsions:
REMARK  status: ('A' for Active; 'I' for Inactive)
REMARK    1  A    between atoms: O_2  and  C_3 
REMARK    2  A    between atoms: C_5  and  O_6 
REMARK    3  A    between atoms: C_8  and  N_9 
REMARK    4  A    between atoms: C_10  and  O_11 
REMARK    5  A    between atoms: C_10  and  C_12 
REMARK       I    between atoms: C_12  and  N_13 
REMARK    6  A    between atoms: N_13  and  C_14 
REMARK    7  A    between atoms: C_14  and  C_15 
REMARK    8  A    between atoms: C_15  and  N_16 
REMARK    9  A    between atoms: N_20  and  C_21 
ROOT
HETATM    1  N   UNL     1      41.824 -16.330   4.818  1.00  0.00    -0.251 N 
HETATM    2  C   UNL     1      41.899 -15.129   3.976  1.00  0.00     0.256 C 
HETATM    3  C   UNL     1      41.431 -13.897   4.732  1.00  0.00     0.034 A 
HETATM    4  C   UNL     1      40.468 -14.067   5.721  1.00  0.00     0.048 A 
HETATM    5  N   UNL     1      40.070 -15.358   6.045  1.00  0.00    -0.308 N 
HETATM    6  C   UNL     1      40.766 -16.480   5.703  1.00  0.00     0.330 C 
HETATM    7  O   UNL     1      40.408 -17.559   6.172  1.00  0.00    -0.246 OA
HETATM    8  C   UNL     1      41.876 -12.595   4.445  1.00  0.00     0.015 A 
HETATM    9  C   UNL     1      41.369 -11.502   5.150  1.00  0.00     0.001 A 
HETATM   10  C   UNL     1      40.394 -11.693   6.127  1.00  0.00     0.002 A 
HETATM   11  C   UNL     1      39.932 -12.978   6.409  1.00  0.00     0.030 A 
HETATM   12  H   UNL     1      39.383 -15.500   6.779  1.00  0.00     0.170 HD
ENDROOT
BRANCH   2  13
HETATM   13  O   UNL     1      43.252 -14.857   3.603  1.00  0.00    -0.359 OA
HETATM   14  H   UNL     1      43.546 -15.625   3.086  1.00  0.00     0.213 HD
ENDBRANCH   2  13
BRANCH   2  15
HETATM   15  C   UNL     1      41.007 -15.257   2.653  1.00  0.00     0.279 C 
HETATM   16  N   UNL     1      39.728 -14.730   2.679  1.00  0.00    -0.355 N 
HETATM   17  H   UNL     1      39.356 -14.569   3.615  1.00  0.00     0.162 HD
HETATM   18  O   UNL     1      41.446 -15.735   1.599  1.00  0.00    -0.268 OA
BRANCH  16  19
HETATM   19  C   UNL     1      38.731 -14.951   1.633  1.00  0.00     0.150 C 
BRANCH  19  20
HETATM   20  C   UNL     1      38.698 -13.932   0.468  1.00  0.00     0.254 C 
BRANCH  20  21
HETATM   21  N   UNL     1      40.043 -13.696  -0.170  1.00  0.00    -0.067 N 
HETATM   22  H   UNL     1      40.675 -14.431   0.211  1.00  0.00     0.280 HD
HETATM   23  C   UNL     1      40.093 -13.899  -1.682  1.00  0.00     0.254 C 
HETATM   24  C   UNL     1      41.553 -13.816  -2.182  1.00  0.00     0.150 C 
HETATM   25  N   UNL     1      42.164 -12.536  -1.776  1.00  0.00    -0.378 N 
HETATM   26  C   UNL     1      42.101 -12.244  -0.335  1.00  0.00     0.150 C 
HETATM   27  C   UNL     1      40.658 -12.351   0.205  1.00  0.00     0.254 C 
BRANCH  25  28
HETATM   28  C   UNL     1      42.284 -11.532  -2.730  1.00  0.00     0.030 A 
HETATM   29  C   UNL     1      42.215 -11.771  -4.110  1.00  0.00     0.029 A 
HETATM   30  C   UNL     1      42.329 -10.731  -5.043  1.00  0.00     0.002 A 
HETATM   31  C   UNL     1      42.502  -9.420  -4.615  1.00  0.00     0.000 A 
HETATM   32  C   UNL     1      42.555  -9.149  -3.256  1.00  0.00     0.002 A 
HETATM   33  C   UNL     1      42.443 -10.193  -2.330  1.00  0.00     0.029 A 
ENDBRANCH  25  28
ENDBRANCH  20  21
ENDBRANCH  19  20
ENDBRANCH  16  19
ENDBRANCH   2  15
BRANCH   1  34
HETATM   34  C   UNL     1      42.876 -17.309   4.819  1.00  0.00     0.076 A 
HETATM   35  C   UNL     1      43.804 -17.453   5.867  1.00  0.00     0.098 A 
HETATM   36  C   UNL     1      44.687 -18.546   5.895  1.00  0.00     0.075 A 
HETATM   37  C   UNL     1      44.694 -19.472   4.852  1.00  0.00     0.070 A 
HETATM   38  C   UNL     1      43.846 -19.281   3.765  1.00  0.00     0.039 A 
HETATM   39  C   UNL     1      42.947 -18.213   3.748  1.00  0.00     0.035 A 
BRANCH  35  40
HETATM   40  O   UNL     1      43.795 -16.512   6.872  1.00  0.00    -0.354 OA
HETATM   41  C   UNL     1      43.383 -17.043   8.136  1.00  0.00     0.210 C 
ENDBRANCH  35  40
BRANCH  37  42
HETATM   42  O   UNL     1      45.485 -20.584   4.773  1.00  0.00    -0.356 OA
HETATM   43  C   UNL     1      44.825 -21.844   4.769  1.00  0.00     0.210 C 
ENDBRANCH  37  42
ENDBRANCH   1  34
TORSDOF 9
ENDMDL
MODEL 8
REMARK VINA RESULT:      -8.5      1.285      2.351
REMARK  9 active torsions:
REMARK  status: ('A' for Active; 'I' for Inactive)
REMARK    1  A    between atoms: O_2  and  C_3 
REMARK    2  A    between atoms: C_5  and  O_6 
REMARK    3  A    between atoms: C_8  and  N_9 
REMARK    4  A    between atoms: C_10  and  O_11 
REMARK    5  A    between atoms: C_10  and  C_12 
REMARK       I    between atoms: C_12  and  N_13 
REMARK    6  A    between atoms: N_13  and  C_14 
REMARK    7  A    between atoms: C_14  and  C_15 
REMARK    8  A    between atoms: C_15  and  N_16 
REMARK    9  A    between atoms: N_20  and  C_21 
ROOT
HETATM    1  N   UNL     1      40.520 -12.586   0.655  1.00  0.00    -0.251 N 
HETATM    2  C   UNL     1      39.321 -12.582   1.503  1.00  0.00     0.256 C 
HETATM    3  C   UNL     1      38.995 -11.181   1.992  1.00  0.00     0.034 A 
HETATM    4  C   UNL     1      40.051 -10.294   2.174  1.00  0.00     0.048 A 
HETATM    5  N   UNL     1      41.326 -10.693   1.792  1.00  0.00    -0.308 N 
HETATM    6  C   UNL     1      41.581 -11.750   0.969  1.00  0.00     0.330 C 
HETATM    7  O   UNL     1      42.733 -11.920   0.571  1.00  0.00    -0.246 OA
HETATM    8  C   UNL     1      37.698 -10.757   2.323  1.00  0.00     0.015 A 
HETATM    9  C   UNL     1      37.477  -9.467   2.810  1.00  0.00     0.001 A 
HETATM   10  C   UNL     1      38.551  -8.599   2.998  1.00  0.00     0.002 A 
HETATM   11  C   UNL     1      39.845  -9.014   2.689  1.00  0.00     0.030 A 
HETATM   12  H   UNL     1      42.104 -10.049   1.899  1.00  0.00     0.170 HD
ENDROOT
BRANCH   2  13
HETATM   13  O   UNL     1      38.175 -13.003   0.760  1.00  0.00    -0.359 OA
HETATM   14  H   UNL     1      37.748 -13.693   1.295  1.00  0.00     0.213 HD
ENDBRANCH   2  13
BRANCH   2  15
HETATM   15  C   UNL     1      39.484 -13.521   2.789  1.00  0.00     0.279 C 
HETATM   16  N   UNL     1      39.649 -12.913   4.021  1.00  0.00    -0.355 N 
HETATM   17  H   UNL     1      39.945 -11.939   3.974  1.00  0.00     0.162 HD
HETATM   18  O   UNL     1      39.390 -14.754   2.728  1.00  0.00    -0.268 OA
BRANCH  16  19
HETATM   19  C   UNL     1      40.015 -13.626   5.243  1.00  0.00     0.150 C 
BRANCH  19  20
HETATM   20  C   UNL     1      41.517 -13.653   5.617  1.00  0.00     0.254 C 
BRANCH  20  21
HETATM   21  N   UNL     1      42.023 -15.021   5.997  1.00  0.00    -0.067 N 
HETATM   22  H   UNL     1      41.873 -15.107   7.025  1.00  0.00     0.280 HD
HETATM   23  C   UNL     1      41.249 -16.193   5.401  1.00  0.00     0.254 C 
HETATM   24  C   UNL     1      41.740 -17.523   6.015  1.00  0.00     0.150 C 
HETATM   25  N   UNL     1      43.196 -17.670   5.826  1.00  0.00    -0.378 N 
HETATM   26  C   UNL     1      44.007 -16.548   6.326  1.00  0.00     0.150 C 
HETATM   27  C   UNL     1      43.520 -15.198   5.757  1.00  0.00     0.254 C 
BRANCH  25  28
HETATM   28  C   UNL     1      43.647 -18.519   4.822  1.00  0.00     0.030 A 
HETATM   29  C   UNL     1      43.320 -18.352   3.469  1.00  0.00     0.029 A 
HETATM   30  C   UNL     1      43.804 -19.223   2.482  1.00  0.00     0.002 A 
HETATM   31  C   UNL     1      44.639 -20.279   2.826  1.00  0.00     0.000 A 
HETATM   32  C   UNL     1      44.995 -20.461   4.154  1.00  0.00     0.002 A 
HETATM   33  C   UNL     1      44.506 -19.589   5.134  1.00  0.00     0.029 A 
ENDBRANCH  25  28
ENDBRANCH  20  21
ENDBRANCH  19  20
ENDBRANCH  16  19
ENDBRANCH   2  15
BRANCH   1  34
HETATM   34  C   UNL     1      40.578 -13.362  -0.553  1.00  0.00     0.076 A 
HETATM   35  C   UNL     1      41.071 -14.679  -0.610  1.00  0.00     0.098 A 
HETATM   36  C   UNL     1      40.927 -15.447  -1.778  1.00  0.00     0.075 A 
HETATM   37  C   UNL     1      40.345 -14.892  -2.918  1.00  0.00     0.070 A 
HETATM   38  C   UNL     1      39.944 -13.559  -2.898  1.00  0.00     0.039 A 
HETATM   39  C   UNL     1      40.058 -12.802  -1.730  1.00  0.00     0.035 A 
BRANCH  35  40
HETATM   40  O   UNL     1      41.665 -15.196   0.520  1.00  0.00    -0.354 OA
HETATM   41  C   UNL     1      41.509 -16.614   0.639  1.00  0.00     0.210 C 
ENDBRANCH  35  40
BRANCH  37  42
HETATM   42  O   UNL     1      40.129 -15.538  -4.102  1.00  0.00    -0.356 OA
HETATM   43  C   UNL     1      38.858 -16.153  -4.277  1.00  0.00     0.210 C 
ENDBRANCH  37  42
ENDBRANCH   1  34
TORSDOF 9
ENDMDL
MODEL 9
REMARK VINA RESULT:      -8.4      2.353      3.464
REMARK  9 active torsions:
REMARK  status: ('A' for Active; 'I' for Inactive)
REMARK    1  A    between atoms: O_2  and  C_3 
REMARK    2  A    between atoms: C_5  and  O_6 
REMARK    3  A    between atoms: C_8  and  N_9 
REMARK    4  A    between atoms: C_10  and  O_11 
REMARK    5  A    between atoms: C_10  and  C_12 
REMARK       I    between atoms: C_12  and  N_13 
REMARK    6  A    between atoms: N_13  and  C_14 
REMARK    7  A    between atoms: C_14  and  C_15 
REMARK    8  A    between atoms: C_15  and  N_16 
REMARK    9  A    between atoms: N_20  and  C_21 
ROOT
HETATM    1  N   UNL     1      41.218 -11.979  -1.391  1.00  0.00    -0.251 N 
HETATM    2  C   UNL     1      41.049 -11.240  -0.133  1.00  0.00     0.256 C 
HETATM    3  C   UNL     1      41.928 -10.002  -0.098  1.00  0.00     0.034 A 
HETATM    4  C   UNL     1      43.130 -10.038  -0.796  1.00  0.00     0.048 A 
HETATM    5  N   UNL     1      43.410 -11.153  -1.578  1.00  0.00    -0.308 N 
HETATM    6  C   UNL     1      42.476 -12.065  -1.968  1.00  0.00     0.330 C 
HETATM    7  O   UNL     1      42.801 -12.926  -2.785  1.00  0.00    -0.246 OA
HETATM    8  C   UNL     1      41.618  -8.851   0.646  1.00  0.00     0.015 A 
HETATM    9  C   UNL     1      42.495  -7.765   0.668  1.00  0.00     0.001 A 
HETATM   10  C   UNL     1      43.702  -7.828  -0.027  1.00  0.00     0.002 A 
HETATM   11  C   UNL     1      44.028  -8.971  -0.755  1.00  0.00     0.030 A 
HETATM   12  H   UNL     1      44.275 -11.185  -2.110  1.00  0.00     0.170 HD
ENDROOT
BRANCH   2  13
HETATM   13  O   UNL     1      39.708 -10.760  -0.005  1.00  0.00    -0.359 OA
HETATM   14  H   UNL     1      39.699 -10.203   0.791  1.00  0.00     0.213 HD
ENDBRANCH   2  13
BRANCH   2  15
HETATM   15  C   UNL     1      41.409 -12.130   1.148  1.00  0.00     0.279 C 
HETATM   16  N   UNL     1      40.381 -12.483   2.003  1.00  0.00    -0.355 N 
HETATM   17  H   UNL     1      39.541 -11.912   1.913  1.00  0.00     0.162 HD
HETATM   18  O   UNL     1      42.548 -12.570   1.352  1.00  0.00    -0.268 OA
BRANCH  16  19
HETATM   19  C   UNL     1      40.581 -13.107   3.310  1.00  0.00     0.150 C 
BRANCH  19  20
HETATM   20  C   UNL     1      40.267 -14.619   3.421  1.00  0.00     0.254 C 
BRANCH  20  21
HETATM   21  N   UNL     1      41.216 -15.495   2.643  1.00  0.00    -0.067 N 
HETATM   22  H   UNL     1      41.323 -15.044   1.710  1.00  0.00     0.280 HD
HETATM   23  C   UNL     1      42.638 -15.568   3.194  1.00  0.00     0.254 C 
HETATM   24  C   UNL     1      43.551 -16.333   2.209  1.00  0.00     0.150 C 
HETATM   25  N   UNL     1      42.998 -17.672   1.929  1.00  0.00    -0.378 N 
HETATM   26  C   UNL     1      41.607 -17.684   1.448  1.00  0.00     0.150 C 
HETATM   27  C   UNL     1      40.672 -16.898   2.393  1.00  0.00     0.254 C 
BRANCH  25  28
HETATM   28  C   UNL     1      43.571 -18.767   2.565  1.00  0.00     0.030 A 
HETATM   29  C   UNL     1      44.037 -18.731   3.886  1.00  0.00     0.029 A 
HETATM   30  C   UNL     1      44.600 -19.861   4.499  1.00  0.00     0.002 A 
HETATM   31  C   UNL     1      44.696 -21.060   3.804  1.00  0.00     0.000 A 
HETATM   32  C   UNL     1      44.227 -21.133   2.501  1.00  0.00     0.002 A 
HETATM   33  C   UNL     1      43.669 -20.001   1.895  1.00  0.00     0.029 A 
ENDBRANCH  25  28
ENDBRANCH  20  21
ENDBRANCH  19  20
ENDBRANCH  16  19
ENDBRANCH   2  15
BRANCH   1  34
HETATM   34  C   UNL     1      40.090 -12.529  -2.091  1.00  0.00     0.076 A 
HETATM   35  C   UNL     1      39.456 -13.731  -1.725  1.00  0.00     0.098 A 
HETATM   36  C   UNL     1      38.248 -14.116  -2.332  1.00  0.00     0.075 A 
HETATM   37  C   UNL     1      37.692 -13.339  -3.348  1.00  0.00     0.070 A 
HETATM   38  C   UNL     1      38.365 -12.201  -3.781  1.00  0.00     0.039 A 
HETATM   39  C   UNL     1      39.550 -11.799  -3.161  1.00  0.00     0.035 A 
BRANCH  35  40
HETATM   40  O   UNL     1      40.038 -14.494  -0.737  1.00  0.00    -0.354 OA
HETATM   41  C   UNL     1      40.975 -15.450  -1.245  1.00  0.00     0.210 C 
ENDBRANCH  35  40
BRANCH  37  42
HETATM   42  O   UNL     1      36.517 -13.593  -3.998  1.00  0.00    -0.356 OA
HETATM   43  C   UNL     1      35.845 -12.477  -4.571  1.00  0.00     0.210 C 
ENDBRANCH  37  42
ENDBRANCH   1  34
TORSDOF 9
ENDMDL
MODEL 10
REMARK VINA RESULT:      -8.4      2.083      5.243
REMARK  9 active torsions:
REMARK  status: ('A' for Active; 'I' for Inactive)
REMARK    1  A    between atoms: O_2  and  C_3 
REMARK    2  A    between atoms: C_5  and  O_6 
REMARK    3  A    between atoms: C_8  and  N_9 
REMARK    4  A    between atoms: C_10  and  O_11 
REMARK    5  A    between atoms: C_10  and  C_12 
REMARK       I    between atoms: C_12  and  N_13 
REMARK    6  A    between atoms: N_13  and  C_14 
REMARK    7  A    between atoms: C_14  and  C_15 
REMARK    8  A    between atoms: C_15  and  N_16 
REMARK    9  A    between atoms: N_20  and  C_21 
ROOT
HETATM    1  N   UNL     1      39.278 -12.985   0.737  1.00  0.00    -0.251 N 
HETATM    2  C   UNL     1      40.448 -12.458   0.024  1.00  0.00     0.256 C 
HETATM    3  C   UNL     1      40.804 -13.329  -1.170  1.00  0.00     0.034 A 
HETATM    4  C   UNL     1      40.514 -14.687  -1.094  1.00  0.00     0.048 A 
HETATM    5  N   UNL     1      39.816 -15.155   0.012  1.00  0.00    -0.308 N 
HETATM    6  C   UNL     1      39.118 -14.356   0.869  1.00  0.00     0.330 C 
HETATM    7  O   UNL     1      38.410 -14.889   1.723  1.00  0.00    -0.246 OA
HETATM    8  C   UNL     1      41.458 -12.845  -2.315  1.00  0.00     0.015 A 
HETATM    9  C   UNL     1      41.795 -13.711  -3.357  1.00  0.00     0.001 A 
HETATM   10  C   UNL     1      41.509 -15.072  -3.254  1.00  0.00     0.002 A 
HETATM   11  C   UNL     1      40.875 -15.566  -2.115  1.00  0.00     0.030 A 
HETATM   12  H   UNL     1      39.579 -16.141   0.073  1.00  0.00     0.170 HD
ENDROOT
BRANCH   2  13
HETATM   13  O   UNL     1      40.170 -11.164  -0.517  1.00  0.00    -0.359 OA
HETATM   14  H   UNL     1      40.404 -11.212  -1.459  1.00  0.00     0.213 HD
ENDBRANCH   2  13
BRANCH   2  15
HETATM   15  C   UNL     1      41.741 -12.366   0.962  1.00  0.00     0.279 C 
HETATM   16  N   UNL     1      41.720 -13.047   2.166  1.00  0.00    -0.355 N 
HETATM   17  H   UNL     1      40.787 -13.305   2.489  1.00  0.00     0.162 HD
HETATM   18  O   UNL     1      42.774 -11.778   0.615  1.00  0.00    -0.268 OA
BRANCH  16  19
HETATM   19  C   UNL     1      42.728 -12.891   3.212  1.00  0.00     0.150 C 
BRANCH  19  20
HETATM   20  C   UNL     1      43.597 -14.130   3.541  1.00  0.00     0.254 C 
BRANCH  20  21
HETATM   21  N   UNL     1      42.906 -15.443   3.275  1.00  0.00    -0.067 N 
HETATM   22  H   UNL     1      41.907 -15.211   3.097  1.00  0.00     0.280 HD
HETATM   23  C   UNL     1      43.357 -16.174   2.013  1.00  0.00     0.254 C 
HETATM   24  C   UNL     1      42.448 -17.396   1.753  1.00  0.00     0.150 C 
HETATM   25  N   UNL     1      42.432 -18.285   2.930  1.00  0.00    -0.378 N 
HETATM   26  C   UNL     1      42.062 -17.635   4.198  1.00  0.00     0.150 C 
HETATM   27  C   UNL     1      42.930 -16.389   4.472  1.00  0.00     0.254 C 
BRANCH  25  28
HETATM   28  C   UNL     1      43.196 -19.446   2.889  1.00  0.00     0.030 A 
HETATM   29  C   UNL     1      43.139 -20.366   1.833  1.00  0.00     0.029 A 
HETATM   30  C   UNL     1      43.934 -21.522   1.820  1.00  0.00     0.002 A 
HETATM   31  C   UNL     1      44.818 -21.777   2.862  1.00  0.00     0.000 A 
HETATM   32  C   UNL     1      44.911 -20.875   3.912  1.00  0.00     0.002 A 
HETATM   33  C   UNL     1      44.112 -19.726   3.919  1.00  0.00     0.029 A 
ENDBRANCH  25  28
ENDBRANCH  20  21
ENDBRANCH  19  20
ENDBRANCH  16  19
ENDBRANCH   2  15
BRANCH   1  34
HETATM   34  C   UNL     1      38.239 -12.114   1.215  1.00  0.00     0.076 A 
HETATM   35  C   UNL     1      38.340 -11.356   2.396  1.00  0.00     0.098 A 
HETATM   36  C   UNL     1      37.372 -10.385   2.707  1.00  0.00     0.075 A 
HETATM   37  C   UNL     1      36.268 -10.201   1.877  1.00  0.00     0.070 A 
HETATM   38  C   UNL     1      36.113 -11.014   0.758  1.00  0.00     0.039 A 
HETATM   39  C   UNL     1      37.086 -11.960   0.429  1.00  0.00     0.035 A 
BRANCH  35  40
HETATM   40  O   UNL     1      39.427 -11.575   3.213  1.00  0.00    -0.354 OA
HETATM   41  C   UNL     1      39.626 -10.533   4.174  1.00  0.00     0.210 C 
ENDBRANCH  35  40
BRANCH  37  42
HETATM   42  O   UNL     1      35.275  -9.279   2.057  1.00  0.00    -0.356 OA
HETATM   43  C   UNL     1      35.331  -8.497   3.244  1.00  0.00     0.210 C 
ENDBRANCH  37  42
ENDBRANCH   1  34
TORSDOF 9
ENDMDL
