MODEL 1
REMARK VINA RESULT:      -9.4      0.000      0.000
REMARK  6 active torsions:
REMARK  status: ('A' for Active; 'I' for Inactive)
REMARK    1  A    between atoms: C_2  and  O_3 
REMARK    2  A    between atoms: C_2  and  C_4 
REMARK    3  A    between atoms: C_6  and  N_7 
REMARK       I    between atoms: N_7  and  C_8 
REMARK    4  A    between atoms: C_8  and  C_9 
REMARK    5  A    between atoms: C_12  and  C_13 
REMARK    6  A    between atoms: C_18  and  C_19 
ROOT
HETATM    1  C   UNL     1      42.598 -14.824   3.628  1.00  0.00     0.096 C 
HETATM    2  C   UNL     1      43.015 -16.103   3.946  1.00  0.00     0.138 C 
HETATM    3  N   UNL     1      43.253 -16.093   5.303  1.00  0.00    -0.240 N 
HETATM    4  C   UNL     1      43.744 -17.229   6.062  1.00  0.00     0.221 C 
HETATM    5  C   UNL     1      43.600 -18.526   5.247  1.00  0.00     0.068 C 
HETATM    6  C   UNL     1      44.042 -18.303   3.796  1.00  0.00     0.143 C 
HETATM    7  N   UNL     1      43.219 -17.230   3.206  1.00  0.00    -0.363 N 
HETATM    8  N   UNL     1      43.193 -14.867   5.843  1.00  0.00    -0.181 NA
HETATM    9  C   UNL     1      42.763 -14.104   4.835  1.00  0.00     0.160 C 
HETATM   10  H   UNL     1      43.453 -17.104   2.218  1.00  0.00     0.162 HD
ENDROOT
BRANCH   1  11
HETATM   11  C   UNL     1      42.134 -14.283   2.360  1.00  0.00     0.261 C 
HETATM   12  N   UNL     1      40.988 -14.895   1.888  1.00  0.00    -0.323 N 
HETATM   13  H   UNL     1      40.567 -15.570   2.518  1.00  0.00     0.169 HD
HETATM   14  O   UNL     1      42.722 -13.345   1.834  1.00  0.00    -0.267 OA
BRANCH  12  15
HETATM   15  C   UNL     1      40.284 -14.614   0.700  1.00  0.00     0.035 A 
HETATM   16  C   UNL     1      40.756 -14.927  -0.578  1.00  0.00     0.039 A 
HETATM   17  C   UNL     1      40.009 -14.608  -1.726  1.00  0.00    -0.028 A 
HETATM   18  C   UNL     1      38.776 -13.958  -1.574  1.00  0.00     0.010 A 
HETATM   19  C   UNL     1      38.292 -13.654  -0.304  1.00  0.00     0.003 A 
HETATM   20  C   UNL     1      39.041 -13.983   0.827  1.00  0.00     0.029 A 
BRANCH  17  21
HETATM   21  C   UNL     1      40.562 -14.934  -3.098  1.00  0.00     0.147 C 
HETATM   22  C   UNL     1      39.585 -15.752  -3.929  1.00  0.00     0.044 C 
BRANCH  21  23
HETATM   23  O   UNL     1      41.787 -15.658  -2.980  1.00  0.00    -0.391 OA
HETATM   24  H   UNL     1      42.409 -15.076  -2.511  1.00  0.00     0.210 HD
ENDBRANCH  21  23
ENDBRANCH  17  21
ENDBRANCH  12  15
ENDBRANCH   1  11
BRANCH   4  25
HETATM   25  C   UNL     1      43.021 -17.378   7.383  1.00  0.00     0.409 C 
HETATM   26  F   UNL     1      43.485 -16.563   8.351  1.00  0.00    -0.169 F 
HETATM   27  F   UNL     1      41.687 -17.183   7.262  1.00  0.00    -0.169 F 
HETATM   28  F   UNL     1      43.184 -18.646   7.849  1.00  0.00    -0.169 F 
ENDBRANCH   4  25
BRANCH   6  29
HETATM   29  C   UNL     1      43.967 -19.589   3.038  1.00  0.00     0.075 A 
HETATM   30  O   UNL     1      44.698 -20.629   3.536  1.00  0.00    -0.325 OA
HETATM   31  C   UNL     1      44.481 -21.693   2.721  1.00  0.00     0.142 A 
HETATM   32  C   UNL     1      43.620 -21.353   1.705  1.00  0.00     0.027 A 
HETATM   33  C   UNL     1      43.285 -19.994   1.908  1.00  0.00     0.037 A 
ENDBRANCH   6  29
TORSDOF 6
ENDMDL
MODEL 2
REMARK VINA RESULT:      -9.0      3.814      8.141
REMARK  6 active torsions:
REMARK  status: ('A' for Active; 'I' for Inactive)
REMARK    1  A    between atoms: C_2  and  O_3 
REMARK    2  A    between atoms: C_2  and  C_4 
REMARK    3  A    between atoms: C_6  and  N_7 
REMARK       I    between atoms: N_7  and  C_8 
REMARK    4  A    between atoms: C_8  and  C_9 
REMARK    5  A    between atoms: C_12  and  C_13 
REMARK    6  A    between atoms: C_18  and  C_19 
ROOT
HETATM    1  C   UNL     1      42.082 -14.956   1.683  1.00  0.00     0.096 C 
HETATM    2  C   UNL     1      41.494 -14.486   0.524  1.00  0.00     0.138 C 
HETATM    3  N   UNL     1      41.799 -13.144   0.465  1.00  0.00    -0.240 N 
HETATM    4  C   UNL     1      41.350 -12.241  -0.580  1.00  0.00     0.221 C 
HETATM    5  C   UNL     1      40.825 -13.034  -1.789  1.00  0.00     0.068 C 
HETATM    6  C   UNL     1      39.942 -14.199  -1.329  1.00  0.00     0.143 C 
HETATM    7  N   UNL     1      40.734 -15.076  -0.443  1.00  0.00    -0.363 N 
HETATM    8  N   UNL     1      42.382 -12.683   1.581  1.00  0.00    -0.181 NA
HETATM    9  C   UNL     1      42.584 -13.788   2.305  1.00  0.00     0.160 C 
HETATM   10  H   UNL     1      40.185 -15.896  -0.171  1.00  0.00     0.162 HD
ENDROOT
BRANCH   1  11
HETATM   11  C   UNL     1      42.157 -16.311   2.208  1.00  0.00     0.261 C 
HETATM   12  N   UNL     1      43.361 -16.595   2.823  1.00  0.00    -0.323 N 
HETATM   13  H   UNL     1      43.998 -15.811   2.914  1.00  0.00     0.169 HD
HETATM   14  O   UNL     1      41.194 -17.063   2.120  1.00  0.00    -0.267 OA
BRANCH  12  15
HETATM   15  C   UNL     1      43.757 -17.803   3.431  1.00  0.00     0.035 A 
HETATM   16  C   UNL     1      43.992 -18.989   2.728  1.00  0.00     0.039 A 
HETATM   17  C   UNL     1      44.375 -20.166   3.398  1.00  0.00    -0.028 A 
HETATM   18  C   UNL     1      44.510 -20.139   4.792  1.00  0.00     0.010 A 
HETATM   19  C   UNL     1      44.290 -18.959   5.500  1.00  0.00     0.003 A 
HETATM   20  C   UNL     1      43.918 -17.797   4.822  1.00  0.00     0.029 A 
BRANCH  17  21
HETATM   21  C   UNL     1      44.592 -21.441   2.610  1.00  0.00     0.147 C 
HETATM   22  C   UNL     1      43.512 -21.655   1.560  1.00  0.00     0.044 C 
BRANCH  21  23
HETATM   23  O   UNL     1      44.615 -22.568   3.486  1.00  0.00    -0.391 OA
HETATM   24  H   UNL     1      43.734 -22.618   3.896  1.00  0.00     0.210 HD
ENDBRANCH  21  23
ENDBRANCH  17  21
ENDBRANCH  12  15
ENDBRANCH   1  11
BRANCH   4  25
HETATM   25  C   UNL     1      42.452 -11.306  -1.027  1.00  0.00     0.409 C 
HETATM   26  F   UNL     1      42.103 -10.508  -2.055  1.00  0.00    -0.169 F 
HETATM   27  F   UNL     1      42.905 -10.528  -0.017  1.00  0.00    -0.169 F 
HETATM   28  F   UNL     1      43.517 -12.035  -1.460  1.00  0.00    -0.169 F 
ENDBRANCH   4  25
BRANCH   6  29
HETATM   29  C   UNL     1      39.381 -14.913  -2.516  1.00  0.00     0.075 A 
HETATM   30  O   UNL     1      38.074 -14.658  -2.813  1.00  0.00    -0.325 OA
HETATM   31  C   UNL     1      37.768 -15.382  -3.920  1.00  0.00     0.142 A 
HETATM   32  C   UNL     1      38.862 -16.101  -4.341  1.00  0.00     0.027 A 
HETATM   33  C   UNL     1      39.906 -15.798  -3.436  1.00  0.00     0.037 A 
ENDBRANCH   6  29
TORSDOF 6
ENDMDL
MODEL 3
REMARK VINA RESULT:      -9.0      1.679      2.159
REMARK  6 active torsions:
REMARK  status: ('A' for Active; 'I' for Inactive)
REMARK    1  A    between atoms: C_2  and  O_3 
REMARK    2  A    between atoms: C_2  and  C_4 
REMARK    3  A    between atoms: C_6  and  N_7 
REMARK       I    between atoms: N_7  and  C_8 
REMARK    4  A    between atoms: C_8  and  C_9 
REMARK    5  A    between atoms: C_12  and  C_13 
REMARK    6  A    between atoms: C_18  and  C_19 
ROOT
HETATM    1  C   UNL     1      42.721 -15.982   2.414  1.00  0.00     0.096 C 
HETATM    2  C   UNL     1      43.162 -16.979   3.266  1.00  0.00     0.138 C 
HETATM    3  N   UNL     1      43.175 -16.418   4.524  1.00  0.00    -0.240 N 
HETATM    4  C   UNL     1      43.608 -17.106   5.728  1.00  0.00     0.221 C 
HETATM    5  C   UNL     1      43.681 -18.624   5.486  1.00  0.00     0.068 C 
HETATM    6  C   UNL     1      44.338 -18.924   4.134  1.00  0.00     0.143 C 
HETATM    7  N   UNL     1      43.554 -18.270   3.068  1.00  0.00    -0.363 N 
HETATM    8  N   UNL     1      42.951 -15.096   4.519  1.00  0.00    -0.181 NA
HETATM    9  C   UNL     1      42.643 -14.839   3.245  1.00  0.00     0.160 C 
HETATM   10  H   UNL     1      43.937 -18.506   2.149  1.00  0.00     0.162 HD
ENDROOT
BRANCH   1  11
HETATM   11  C   UNL     1      42.436 -16.032   0.989  1.00  0.00     0.261 C 
HETATM   12  N   UNL     1      41.953 -14.839   0.484  1.00  0.00    -0.323 N 
HETATM   13  H   UNL     1      41.946 -14.063   1.137  1.00  0.00     0.169 HD
HETATM   14  O   UNL     1      42.664 -17.050   0.347  1.00  0.00    -0.267 OA
BRANCH  12  15
HETATM   15  C   UNL     1      41.581 -14.551  -0.844  1.00  0.00     0.035 A 
HETATM   16  C   UNL     1      40.744 -15.364  -1.613  1.00  0.00     0.039 A 
HETATM   17  C   UNL     1      40.420 -15.024  -2.940  1.00  0.00    -0.028 A 
HETATM   18  C   UNL     1      40.959 -13.854  -3.490  1.00  0.00     0.010 A 
HETATM   19  C   UNL     1      41.783 -13.030  -2.727  1.00  0.00     0.003 A 
HETATM   20  C   UNL     1      42.090 -13.376  -1.410  1.00  0.00     0.029 A 
BRANCH  17  21
HETATM   21  C   UNL     1      39.535 -15.943  -3.756  1.00  0.00     0.147 C 
HETATM   22  C   UNL     1      38.120 -15.400  -3.893  1.00  0.00     0.044 C 
BRANCH  21  23
HETATM   23  O   UNL     1      39.476 -17.237  -3.156  1.00  0.00    -0.391 OA
HETATM   24  H   UNL     1      39.120 -17.840  -3.831  1.00  0.00     0.210 HD
ENDBRANCH  21  23
ENDBRANCH  17  21
ENDBRANCH  12  15
ENDBRANCH   1  11
BRANCH   4  25
HETATM   25  C   UNL     1      42.691 -16.822   6.897  1.00  0.00     0.409 C 
HETATM   26  F   UNL     1      41.403 -16.640   6.546  1.00  0.00    -0.169 F 
HETATM   27  F   UNL     1      42.744 -17.793   7.838  1.00  0.00    -0.169 F 
HETATM   28  F   UNL     1      43.081 -15.671   7.510  1.00  0.00    -0.169 F 
ENDBRANCH   4  25
BRANCH   6  29
HETATM   29  C   UNL     1      44.468 -20.401   3.948  1.00  0.00     0.075 A 
HETATM   30  O   UNL     1      44.271 -20.872   2.683  1.00  0.00    -0.325 OA
HETATM   31  C   UNL     1      44.449 -22.217   2.726  1.00  0.00     0.142 A 
HETATM   32  C   UNL     1      44.759 -22.620   4.004  1.00  0.00     0.027 A 
HETATM   33  C   UNL     1      44.772 -21.448   4.796  1.00  0.00     0.037 A 
ENDBRANCH   6  29
TORSDOF 6
ENDMDL
MODEL 4
REMARK VINA RESULT:      -8.9      1.689      2.112
REMARK  6 active torsions:
REMARK  status: ('A' for Active; 'I' for Inactive)
REMARK    1  A    between atoms: C_2  and  O_3 
REMARK    2  A    between atoms: C_2  and  C_4 
REMARK    3  A    between atoms: C_6  and  N_7 
REMARK       I    between atoms: N_7  and  C_8 
REMARK    4  A    between atoms: C_8  and  C_9 
REMARK    5  A    between atoms: C_12  and  C_13 
REMARK    6  A    between atoms: C_18  and  C_19 
ROOT
HETATM    1  C   UNL     1      41.523 -15.591   3.119  1.00  0.00     0.096 C 
HETATM    2  C   UNL     1      42.248 -16.681   3.566  1.00  0.00     0.138 C 
HETATM    3  N   UNL     1      42.560 -16.411   4.880  1.00  0.00    -0.240 N 
HETATM    4  C   UNL     1      43.351 -17.279   5.734  1.00  0.00     0.221 C 
HETATM    5  C   UNL     1      43.465 -18.684   5.118  1.00  0.00     0.068 C 
HETATM    6  C   UNL     1      43.752 -18.593   3.615  1.00  0.00     0.143 C 
HETATM    7  N   UNL     1      42.664 -17.834   2.968  1.00  0.00    -0.363 N 
HETATM    8  N   UNL     1      42.248 -15.162   5.254  1.00  0.00    -0.181 NA
HETATM    9  C   UNL     1      41.589 -14.677   4.198  1.00  0.00     0.160 C 
HETATM   10  H   UNL     1      42.801 -17.811   1.954  1.00  0.00     0.162 HD
ENDROOT
BRANCH   1  11
HETATM   11  C   UNL     1      40.867 -15.368   1.841  1.00  0.00     0.261 C 
HETATM   12  N   UNL     1      41.744 -15.040   0.824  1.00  0.00    -0.323 N 
HETATM   13  H   UNL     1      42.728 -15.086   1.068  1.00  0.00     0.169 HD
HETATM   14  O   UNL     1      39.656 -15.515   1.732  1.00  0.00    -0.267 OA
BRANCH  12  15
HETATM   15  C   UNL     1      41.440 -14.763  -0.524  1.00  0.00     0.035 A 
HETATM   16  C   UNL     1      41.418 -13.476  -1.068  1.00  0.00     0.039 A 
HETATM   17  C   UNL     1      41.095 -13.265  -2.422  1.00  0.00    -0.028 A 
HETATM   18  C   UNL     1      40.783 -14.371  -3.224  1.00  0.00     0.010 A 
HETATM   19  C   UNL     1      40.815 -15.659  -2.693  1.00  0.00     0.003 A 
HETATM   20  C   UNL     1      41.145 -15.853  -1.351  1.00  0.00     0.029 A 
BRANCH  17  21
HETATM   21  C   UNL     1      41.051 -11.855  -2.973  1.00  0.00     0.147 C 
HETATM   22  C   UNL     1      42.305 -11.511  -3.762  1.00  0.00     0.044 C 
BRANCH  21  23
HETATM   23  O   UNL     1      40.899 -10.912  -1.913  1.00  0.00    -0.391 OA
HETATM   24  H   UNL     1      40.256 -10.250  -2.220  1.00  0.00     0.210 HD
ENDBRANCH  21  23
ENDBRANCH  17  21
ENDBRANCH  12  15
ENDBRANCH   1  11
BRANCH   4  25
HETATM   25  C   UNL     1      42.766 -17.382   7.126  1.00  0.00     0.409 C 
HETATM   26  F   UNL     1      43.244 -16.461   7.985  1.00  0.00    -0.169 F 
HETATM   27  F   UNL     1      41.416 -17.304   7.122  1.00  0.00    -0.169 F 
HETATM   28  F   UNL     1      43.080 -18.594   7.661  1.00  0.00    -0.169 F 
ENDBRANCH   4  25
BRANCH   6  29
HETATM   29  C   UNL     1      43.934 -19.963   3.047  1.00  0.00     0.075 A 
HETATM   30  O   UNL     1      44.556 -20.874   3.851  1.00  0.00    -0.325 OA
HETATM   31  C   UNL     1      44.607 -22.043   3.163  1.00  0.00     0.142 A 
HETATM   32  C   UNL     1      44.024 -21.899   1.926  1.00  0.00     0.027 A 
HETATM   33  C   UNL     1      43.588 -20.555   1.849  1.00  0.00     0.037 A 
ENDBRANCH   6  29
TORSDOF 6
ENDMDL
MODEL 5
REMARK VINA RESULT:      -8.5      4.043      8.513
REMARK  6 active torsions:
REMARK  status: ('A' for Active; 'I' for Inactive)
REMARK    1  A    between atoms: C_2  and  O_3 
REMARK    2  A    between atoms: C_2  and  C_4 
REMARK    3  A    between atoms: C_6  and  N_7 
REMARK       I    between atoms: N_7  and  C_8 
REMARK    4  A    between atoms: C_8  and  C_9 
REMARK    5  A    between atoms: C_12  and  C_13 
REMARK    6  A    between atoms: C_18  and  C_19 
ROOT
HETATM    1  C   UNL     1      41.901 -14.428   1.580  1.00  0.00     0.096 C 
HETATM    2  C   UNL     1      41.356 -14.047   0.368  1.00  0.00     0.138 C 
HETATM    3  N   UNL     1      41.720 -12.731   0.190  1.00  0.00    -0.240 N 
HETATM    4  C   UNL     1      41.329 -11.914  -0.946  1.00  0.00     0.221 C 
HETATM    5  C   UNL     1      40.795 -12.796  -2.087  1.00  0.00     0.068 C 
HETATM    6  C   UNL     1      39.856 -13.876  -1.540  1.00  0.00     0.143 C 
HETATM    7  N   UNL     1      40.592 -14.695  -0.557  1.00  0.00    -0.363 N 
HETATM    8  N   UNL     1      42.299 -12.189   1.272  1.00  0.00    -0.181 NA
HETATM    9  C   UNL     1      42.439 -13.227   2.101  1.00  0.00     0.160 C 
HETATM   10  H   UNL     1      40.003 -15.463  -0.222  1.00  0.00     0.162 HD
ENDROOT
BRANCH   1  11
HETATM   11  C   UNL     1      41.908 -15.728   2.232  1.00  0.00     0.261 C 
HETATM   12  N   UNL     1      43.171 -16.276   2.351  1.00  0.00    -0.323 N 
HETATM   13  H   UNL     1      43.934 -15.674   2.059  1.00  0.00     0.169 HD
HETATM   14  O   UNL     1      40.866 -16.216   2.651  1.00  0.00    -0.267 OA
BRANCH  12  15
HETATM   15  C   UNL     1      43.527 -17.512   2.927  1.00  0.00     0.035 A 
HETATM   16  C   UNL     1      43.458 -17.781   4.297  1.00  0.00     0.039 A 
HETATM   17  C   UNL     1      43.840 -19.034   4.811  1.00  0.00    -0.028 A 
HETATM   18  C   UNL     1      44.303 -20.017   3.926  1.00  0.00     0.010 A 
HETATM   19  C   UNL     1      44.363 -19.762   2.558  1.00  0.00     0.003 A 
HETATM   20  C   UNL     1      43.974 -18.517   2.061  1.00  0.00     0.029 A 
BRANCH  17  21
HETATM   21  C   UNL     1      43.782 -19.282   6.304  1.00  0.00     0.147 C 
HETATM   22  C   UNL     1      44.803 -18.447   7.062  1.00  0.00     0.044 C 
BRANCH  21  23
HETATM   23  O   UNL     1      44.013 -20.662   6.586  1.00  0.00    -0.391 OA
HETATM   24  H   UNL     1      43.750 -21.156   5.791  1.00  0.00     0.210 HD
ENDBRANCH  21  23
ENDBRANCH  17  21
ENDBRANCH  12  15
ENDBRANCH   1  11
BRANCH   4  25
HETATM   25  C   UNL     1      42.478 -11.070  -1.452  1.00  0.00     0.409 C 
HETATM   26  F   UNL     1      42.656  -9.925  -0.765  1.00  0.00    -0.169 F 
HETATM   27  F   UNL     1      43.649 -11.749  -1.460  1.00  0.00    -0.169 F 
HETATM   28  F   UNL     1      42.237 -10.702  -2.741  1.00  0.00    -0.169 F 
ENDBRANCH   4  25
BRANCH   6  29
HETATM   29  C   UNL     1      39.288 -14.676  -2.668  1.00  0.00     0.075 A 
HETATM   30  O   UNL     1      37.975 -14.457  -2.964  1.00  0.00    -0.325 OA
HETATM   31  C   UNL     1      37.664 -15.260  -4.015  1.00  0.00     0.142 A 
HETATM   32  C   UNL     1      38.762 -15.994  -4.400  1.00  0.00     0.027 A 
HETATM   33  C   UNL     1      39.813 -15.618  -3.531  1.00  0.00     0.037 A 
ENDBRANCH   6  29
TORSDOF 6
ENDMDL
MODEL 6
REMARK VINA RESULT:      -8.5      1.337      2.062
REMARK  6 active torsions:
REMARK  status: ('A' for Active; 'I' for Inactive)
REMARK    1  A    between atoms: C_2  and  O_3 
REMARK    2  A    between atoms: C_2  and  C_4 
REMARK    3  A    between atoms: C_6  and  N_7 
REMARK       I    between atoms: N_7  and  C_8 
REMARK    4  A    between atoms: C_8  and  C_9 
REMARK    5  A    between atoms: C_12  and  C_13 
REMARK    6  A    between atoms: C_18  and  C_19 
ROOT
HETATM    1  C   UNL     1      42.793 -14.807   3.883  1.00  0.00     0.096 C 
HETATM    2  C   UNL     1      43.192 -16.095   4.188  1.00  0.00     0.138 C 
HETATM    3  N   UNL     1      43.395 -16.112   5.551  1.00  0.00    -0.240 N 
HETATM    4  C   UNL     1      43.858 -17.266   6.301  1.00  0.00     0.221 C 
HETATM    5  C   UNL     1      43.724 -18.547   5.458  1.00  0.00     0.068 C 
HETATM    6  C   UNL     1      44.205 -18.301   4.024  1.00  0.00     0.143 C 
HETATM    7  N   UNL     1      43.405 -17.210   3.433  1.00  0.00    -0.363 N 
HETATM    8  N   UNL     1      43.332 -14.896   6.112  1.00  0.00    -0.181 NA
HETATM    9  C   UNL     1      42.933 -14.111   5.107  1.00  0.00     0.160 C 
HETATM   10  H   UNL     1      43.666 -17.068   2.453  1.00  0.00     0.162 HD
ENDROOT
BRANCH   1  11
HETATM   11  C   UNL     1      42.366 -14.239   2.614  1.00  0.00     0.261 C 
HETATM   12  N   UNL     1      41.367 -14.967   1.995  1.00  0.00    -0.323 N 
HETATM   13  H   UNL     1      40.996 -15.741   2.536  1.00  0.00     0.169 HD
HETATM   14  O   UNL     1      42.853 -13.190   2.210  1.00  0.00    -0.267 OA
BRANCH  12  15
HETATM   15  C   UNL     1      40.734 -14.695   0.766  1.00  0.00     0.035 A 
HETATM   16  C   UNL     1      39.550 -13.962   0.645  1.00  0.00     0.039 A 
HETATM   17  C   UNL     1      38.962 -13.736  -0.613  1.00  0.00    -0.028 A 
HETATM   18  C   UNL     1      39.578 -14.266  -1.755  1.00  0.00     0.010 A 
HETATM   19  C   UNL     1      40.765 -14.987  -1.645  1.00  0.00     0.003 A 
HETATM   20  C   UNL     1      41.341 -15.198  -0.391  1.00  0.00     0.029 A 
BRANCH  17  21
HETATM   21  C   UNL     1      37.663 -12.963  -0.707  1.00  0.00     0.147 C 
HETATM   22  C   UNL     1      37.815 -11.687  -1.523  1.00  0.00     0.044 C 
BRANCH  21  23
HETATM   23  O   UNL     1      37.192 -12.624   0.597  1.00  0.00    -0.391 OA
HETATM   24  H   UNL     1      37.873 -12.058   0.999  1.00  0.00     0.210 HD
ENDBRANCH  21  23
ENDBRANCH  17  21
ENDBRANCH  12  15
ENDBRANCH   1  11
BRANCH   4  25
HETATM   25  C   UNL     1      43.100 -17.433   7.600  1.00  0.00     0.409 C 
HETATM   26  F   UNL     1      43.510 -16.602   8.578  1.00  0.00    -0.169 F 
HETATM   27  F   UNL     1      41.766 -17.279   7.439  1.00  0.00    -0.169 F 
HETATM   28  F   UNL     1      43.288 -18.695   8.075  1.00  0.00    -0.169 F 
ENDBRANCH   4  25
BRANCH   6  29
HETATM   29  C   UNL     1      44.139 -19.572   3.240  1.00  0.00     0.075 A 
HETATM   30  O   UNL     1      43.097 -19.692   2.367  1.00  0.00    -0.325 OA
HETATM   31  C   UNL     1      43.228 -20.895   1.753  1.00  0.00     0.142 A 
HETATM   32  C   UNL     1      44.342 -21.553   2.217  1.00  0.00     0.027 A 
HETATM   33  C   UNL     1      44.933 -20.700   3.179  1.00  0.00     0.037 A 
ENDBRANCH   6  29
TORSDOF 6
ENDMDL
MODEL 7
REMARK VINA RESULT:      -8.4      2.475      4.481
REMARK  6 active torsions:
REMARK  status: ('A' for Active; 'I' for Inactive)
REMARK    1  A    between atoms: C_2  and  O_3 
REMARK    2  A    between atoms: C_2  and  C_4 
REMARK    3  A    between atoms: C_6  and  N_7 
REMARK       I    between atoms: N_7  and  C_8 
REMARK    4  A    between atoms: C_8  and  C_9 
REMARK    5  A    between atoms: C_12  and  C_13 
REMARK    6  A    between atoms: C_18  and  C_19 
ROOT
HETATM    1  C   UNL     1      42.637 -15.583   3.452  1.00  0.00     0.096 C 
HETATM    2  C   UNL     1      43.239 -15.511   4.695  1.00  0.00     0.138 C 
HETATM    3  N   UNL     1      43.191 -16.788   5.209  1.00  0.00    -0.240 N 
HETATM    4  C   UNL     1      43.684 -17.166   6.522  1.00  0.00     0.221 C 
HETATM    5  C   UNL     1      44.594 -16.066   7.095  1.00  0.00     0.068 C 
HETATM    6  C   UNL     1      43.981 -14.681   6.858  1.00  0.00     0.143 C 
HETATM    7  N   UNL     1      43.789 -14.487   5.408  1.00  0.00    -0.363 N 
HETATM    8  N   UNL     1      42.450 -17.629   4.474  1.00  0.00    -0.181 NA
HETATM    9  C   UNL     1      42.143 -16.908   3.392  1.00  0.00     0.160 C 
HETATM   10  H   UNL     1      43.437 -13.544   5.219  1.00  0.00     0.162 HD
ENDROOT
BRANCH   1  11
HETATM   11  C   UNL     1      42.481 -14.559   2.430  1.00  0.00     0.261 C 
HETATM   12  N   UNL     1      41.472 -14.834   1.527  1.00  0.00    -0.323 N 
HETATM   13  H   UNL     1      40.912 -15.654   1.739  1.00  0.00     0.169 HD
HETATM   14  O   UNL     1      43.181 -13.554   2.450  1.00  0.00    -0.267 OA
BRANCH  12  15
HETATM   15  C   UNL     1      41.062 -14.057   0.426  1.00  0.00     0.035 A 
HETATM   16  C   UNL     1      41.146 -14.484  -0.903  1.00  0.00     0.039 A 
HETATM   17  C   UNL     1      40.730 -13.654  -1.960  1.00  0.00    -0.028 A 
HETATM   18  C   UNL     1      40.234 -12.377  -1.664  1.00  0.00     0.010 A 
HETATM   19  C   UNL     1      40.135 -11.947  -0.342  1.00  0.00     0.003 A 
HETATM   20  C   UNL     1      40.545 -12.785   0.697  1.00  0.00     0.029 A 
BRANCH  17  21
HETATM   21  C   UNL     1      40.862 -14.135  -3.390  1.00  0.00     0.147 C 
HETATM   22  C   UNL     1      39.766 -15.123  -3.763  1.00  0.00     0.044 C 
BRANCH  21  23
HETATM   23  O   UNL     1      42.131 -14.756  -3.589  1.00  0.00    -0.391 OA
HETATM   24  H   UNL     1      42.797 -14.154  -3.214  1.00  0.00     0.210 HD
ENDBRANCH  21  23
ENDBRANCH  17  21
ENDBRANCH  12  15
ENDBRANCH   1  11
BRANCH   4  25
HETATM   25  C   UNL     1      44.438 -18.478   6.482  1.00  0.00     0.409 C 
HETATM   26  F   UNL     1      45.156 -18.657   5.356  1.00  0.00    -0.169 F 
HETATM   27  F   UNL     1      45.263 -18.628   7.544  1.00  0.00    -0.169 F 
HETATM   28  F   UNL     1      43.553 -19.511   6.532  1.00  0.00    -0.169 F 
ENDBRANCH   4  25
BRANCH   6  29
HETATM   29  C   UNL     1      44.840 -13.631   7.485  1.00  0.00     0.075 A 
HETATM   30  O   UNL     1      46.037 -13.386   6.879  1.00  0.00    -0.325 OA
HETATM   31  C   UNL     1      46.648 -12.401   7.586  1.00  0.00     0.142 A 
HETATM   32  C   UNL     1      45.859 -12.007   8.641  1.00  0.00     0.027 A 
HETATM   33  C   UNL     1      44.689 -12.800   8.578  1.00  0.00     0.037 A 
ENDBRANCH   6  29
TORSDOF 6
ENDMDL
MODEL 8
REMARK VINA RESULT:      -8.3      3.642      8.041
REMARK  6 active torsions:
REMARK  status: ('A' for Active; 'I' for Inactive)
REMARK    1  A    between atoms: C_2  and  O_3 
REMARK    2  A    between atoms: C_2  and  C_4 
REMARK    3  A    between atoms: C_6  and  N_7 
REMARK       I    between atoms: N_7  and  C_8 
REMARK    4  A    between atoms: C_8  and  C_9 
REMARK    5  A    between atoms: C_12  and  C_13 
REMARK    6  A    between atoms: C_18  and  C_19 
ROOT
HETATM    1  C   UNL     1      41.817 -15.677   1.179  1.00  0.00     0.096 C 
HETATM    2  C   UNL     1      41.093 -14.675   1.800  1.00  0.00     0.138 C 
HETATM    3  N   UNL     1      40.150 -14.269   0.881  1.00  0.00    -0.240 N 
HETATM    4  C   UNL     1      39.189 -13.203   1.102  1.00  0.00     0.221 C 
HETATM    5  C   UNL     1      39.105 -12.854   2.598  1.00  0.00     0.068 C 
HETATM    6  C   UNL     1      40.506 -12.786   3.216  1.00  0.00     0.143 C 
HETATM    7  N   UNL     1      41.174 -14.089   3.028  1.00  0.00    -0.363 N 
HETATM    8  N   UNL     1      40.329 -14.805  -0.335  1.00  0.00    -0.181 NA
HETATM    9  C   UNL     1      41.318 -15.683  -0.145  1.00  0.00     0.160 C 
HETATM   10  H   UNL     1      42.089 -14.089   3.486  1.00  0.00     0.162 HD
ENDROOT
BRANCH   1  11
HETATM   11  C   UNL     1      42.879 -16.521   1.703  1.00  0.00     0.261 C 
HETATM   12  N   UNL     1      42.422 -17.529   2.530  1.00  0.00    -0.323 N 
HETATM   13  H   UNL     1      41.413 -17.613   2.595  1.00  0.00     0.169 HD
HETATM   14  O   UNL     1      44.042 -16.330   1.369  1.00  0.00    -0.267 OA
BRANCH  12  15
HETATM   15  C   UNL     1      43.181 -18.512   3.196  1.00  0.00     0.035 A 
HETATM   16  C   UNL     1      43.644 -19.683   2.588  1.00  0.00     0.039 A 
HETATM   17  C   UNL     1      44.388 -20.631   3.313  1.00  0.00    -0.028 A 
HETATM   18  C   UNL     1      44.656 -20.392   4.667  1.00  0.00     0.010 A 
HETATM   19  C   UNL     1      44.210 -19.222   5.278  1.00  0.00     0.003 A 
HETATM   20  C   UNL     1      43.479 -18.286   4.545  1.00  0.00     0.029 A 
BRANCH  17  21
HETATM   21  C   UNL     1      44.849 -21.904   2.633  1.00  0.00     0.147 C 
HETATM   22  C   UNL     1      44.103 -22.157   1.331  1.00  0.00     0.044 C 
BRANCH  21  23
HETATM   23  O   UNL     1      44.662 -23.024   3.497  1.00  0.00    -0.391 OA
HETATM   24  H   UNL     1      44.141 -22.707   4.255  1.00  0.00     0.210 HD
ENDBRANCH  21  23
ENDBRANCH  17  21
ENDBRANCH  12  15
ENDBRANCH   1  11
BRANCH   4  25
HETATM   25  C   UNL     1      37.814 -13.571   0.589  1.00  0.00     0.409 C 
HETATM   26  F   UNL     1      37.731 -13.619  -0.755  1.00  0.00    -0.169 F 
HETATM   27  F   UNL     1      37.379 -14.751   1.087  1.00  0.00    -0.169 F 
HETATM   28  F   UNL     1      36.915 -12.629   0.988  1.00  0.00    -0.169 F 
ENDBRANCH   4  25
BRANCH   6  29
HETATM   29  C   UNL     1      40.411 -12.373   4.649  1.00  0.00     0.075 A 
HETATM   30  O   UNL     1      39.408 -12.943   5.378  1.00  0.00    -0.325 OA
HETATM   31  C   UNL     1      39.505 -12.454   6.640  1.00  0.00     0.142 A 
HETATM   32  C   UNL     1      40.558 -11.575   6.736  1.00  0.00     0.027 A 
HETATM   33  C   UNL     1      41.146 -11.521   5.450  1.00  0.00     0.037 A 
ENDBRANCH   6  29
TORSDOF 6
ENDMDL
MODEL 9
REMARK VINA RESULT:      -8.1      3.692      8.387
REMARK  6 active torsions:
REMARK  status: ('A' for Active; 'I' for Inactive)
REMARK    1  A    between atoms: C_2  and  O_3 
REMARK    2  A    between atoms: C_2  and  C_4 
REMARK    3  A    between atoms: C_6  and  N_7 
REMARK       I    between atoms: N_7  and  C_8 
REMARK    4  A    between atoms: C_8  and  C_9 
REMARK    5  A    between atoms: C_12  and  C_13 
REMARK    6  A    between atoms: C_18  and  C_19 
ROOT
HETATM    1  C   UNL     1      40.506 -15.396   1.378  1.00  0.00     0.096 C 
HETATM    2  C   UNL     1      40.254 -14.422   0.429  1.00  0.00     0.138 C 
HETATM    3  N   UNL     1      38.945 -14.041   0.621  1.00  0.00    -0.240 N 
HETATM    4  C   UNL     1      38.247 -13.056  -0.186  1.00  0.00     0.221 C 
HETATM    5  C   UNL     1      39.246 -12.231  -1.016  1.00  0.00     0.068 C 
HETATM    6  C   UNL     1      40.310 -13.141  -1.639  1.00  0.00     0.143 C 
HETATM    7  N   UNL     1      41.011 -13.863  -0.559  1.00  0.00    -0.363 N 
HETATM    8  N   UNL     1      38.289 -14.818   1.495  1.00  0.00    -0.181 NA
HETATM    9  C   UNL     1      39.244 -15.616   1.978  1.00  0.00     0.160 C 
HETATM   10  H   UNL     1      41.769 -14.433  -0.945  1.00  0.00     0.162 HD
ENDROOT
BRANCH   1  11
HETATM   11  C   UNL     1      41.743 -16.093   1.693  1.00  0.00     0.261 C 
HETATM   12  N   UNL     1      41.628 -16.957   2.766  1.00  0.00    -0.323 N 
HETATM   13  H   UNL     1      40.689 -17.067   3.135  1.00  0.00     0.169 HD
HETATM   14  O   UNL     1      42.743 -15.919   1.008  1.00  0.00    -0.267 OA
BRANCH  12  15
HETATM   15  C   UNL     1      42.627 -17.777   3.326  1.00  0.00     0.035 A 
HETATM   16  C   UNL     1      43.075 -18.967   2.745  1.00  0.00     0.039 A 
HETATM   17  C   UNL     1      44.069 -19.748   3.362  1.00  0.00    -0.028 A 
HETATM   18  C   UNL     1      44.606 -19.320   4.584  1.00  0.00     0.010 A 
HETATM   19  C   UNL     1      44.176 -18.128   5.165  1.00  0.00     0.003 A 
HETATM   20  C   UNL     1      43.193 -17.360   4.537  1.00  0.00     0.029 A 
BRANCH  17  21
HETATM   21  C   UNL     1      44.510 -21.047   2.721  1.00  0.00     0.147 C 
HETATM   22  C   UNL     1      43.525 -21.526   1.665  1.00  0.00     0.044 C 
BRANCH  21  23
HETATM   23  O   UNL     1      44.656 -22.065   3.711  1.00  0.00    -0.391 OA
HETATM   24  H   UNL     1      45.605 -22.119   3.917  1.00  0.00     0.210 HD
ENDBRANCH  21  23
ENDBRANCH  17  21
ENDBRANCH  12  15
ENDBRANCH   1  11
BRANCH   4  25
HETATM   25  C   UNL     1      37.405 -12.128   0.663  1.00  0.00     0.409 C 
HETATM   26  F   UNL     1      36.098 -12.454   0.692  1.00  0.00    -0.169 F 
HETATM   27  F   UNL     1      37.854 -12.050   1.937  1.00  0.00    -0.169 F 
HETATM   28  F   UNL     1      37.467 -10.867   0.154  1.00  0.00    -0.169 F 
ENDBRANCH   4  25
BRANCH   6  29
HETATM   29  C   UNL     1      41.228 -12.334  -2.500  1.00  0.00     0.075 A 
HETATM   30  O   UNL     1      41.908 -11.326  -1.882  1.00  0.00    -0.325 OA
HETATM   31  C   UNL     1      42.687 -10.735  -2.824  1.00  0.00     0.142 A 
HETATM   32  C   UNL     1      42.519 -11.351  -4.042  1.00  0.00     0.027 A 
HETATM   33  C   UNL     1      41.576 -12.386  -3.835  1.00  0.00     0.037 A 
ENDBRANCH   6  29
TORSDOF 6
ENDMDL
MODEL 10
REMARK VINA RESULT:      -8.0      5.365      8.549
REMARK  6 active torsions:
REMARK  status: ('A' for Active; 'I' for Inactive)
REMARK    1  A    between atoms: C_2  and  O_3 
REMARK    2  A    between atoms: C_2  and  C_4 
REMARK    3  A    between atoms: C_6  and  N_7 
REMARK       I    between atoms: N_7  and  C_8 
REMARK    4  A    between atoms: C_8  and  C_9 
REMARK    5  A    between atoms: C_12  and  C_13 
REMARK    6  A    between atoms: C_18  and  C_19 
ROOT
HETATM    1  C   UNL     1      40.461 -12.698   5.746  1.00  0.00     0.096 C 
HETATM    2  C   UNL     1      40.883 -14.001   5.556  1.00  0.00     0.138 C 
HETATM    3  N   UNL     1      40.479 -14.346   4.285  1.00  0.00    -0.240 N 
HETATM    4  C   UNL     1      40.685 -15.649   3.680  1.00  0.00     0.221 C 
HETATM    5  C   UNL     1      41.730 -16.454   4.473  1.00  0.00     0.068 C 
HETATM    6  C   UNL     1      41.483 -16.321   5.979  1.00  0.00     0.143 C 
HETATM    7  N   UNL     1      41.544 -14.893   6.348  1.00  0.00    -0.363 N 
HETATM    8  N   UNL     1      39.678 -13.432   3.717  1.00  0.00    -0.181 NA
HETATM    9  C   UNL     1      39.695 -12.420   4.588  1.00  0.00     0.160 C 
HETATM   10  H   UNL     1      41.443 -14.783   7.361  1.00  0.00     0.162 HD
ENDROOT
BRANCH   1  11
HETATM   11  C   UNL     1      40.683 -11.800   6.867  1.00  0.00     0.261 C 
HETATM   12  N   UNL     1      39.645 -11.792   7.779  1.00  0.00    -0.323 N 
HETATM   13  H   UNL     1      38.911 -12.471   7.606  1.00  0.00     0.169 HD
HETATM   14  O   UNL     1      41.731 -11.171   6.958  1.00  0.00    -0.267 OA
BRANCH  12  15
HETATM   15  C   UNL     1      39.543 -11.041   8.967  1.00  0.00     0.035 A 
HETATM   16  C   UNL     1      40.021 -11.474  10.207  1.00  0.00     0.039 A 
HETATM   17  C   UNL     1      39.877 -10.680  11.359  1.00  0.00    -0.028 A 
HETATM   18  C   UNL     1      39.234  -9.440  11.251  1.00  0.00     0.010 A 
HETATM   19  C   UNL     1      38.765  -8.993  10.017  1.00  0.00     0.003 A 
HETATM   20  C   UNL     1      38.922  -9.789   8.881  1.00  0.00     0.029 A 
BRANCH  17  21
HETATM   21  C   UNL     1      40.380 -11.192  12.692  1.00  0.00     0.147 C 
HETATM   22  C   UNL     1      41.900 -11.250  12.746  1.00  0.00     0.044 C 
BRANCH  21  23
HETATM   23  O   UNL     1      39.859 -12.495  12.952  1.00  0.00    -0.391 OA
HETATM   24  H   UNL     1      39.066 -12.593  12.397  1.00  0.00     0.210 HD
ENDBRANCH  21  23
ENDBRANCH  17  21
ENDBRANCH  12  15
ENDBRANCH   1  11
BRANCH   4  25
HETATM   25  C   UNL     1      41.123 -15.535   2.236  1.00  0.00     0.409 C 
HETATM   26  F   UNL     1      40.103 -15.369   1.371  1.00  0.00    -0.169 F 
HETATM   27  F   UNL     1      42.011 -14.532   2.047  1.00  0.00    -0.169 F 
HETATM   28  F   UNL     1      41.751 -16.683   1.860  1.00  0.00    -0.169 F 
ENDBRANCH   4  25
BRANCH   6  29
HETATM   29  C   UNL     1      42.459 -17.167   6.731  1.00  0.00     0.075 A 
HETATM   30  O   UNL     1      42.818 -18.344   6.143  1.00  0.00    -0.325 OA
HETATM   31  C   UNL     1      43.712 -18.946   6.970  1.00  0.00     0.142 A 
HETATM   32  C   UNL     1      43.935 -18.170   8.083  1.00  0.00     0.027 A 
HETATM   33  C   UNL     1      43.126 -17.019   7.931  1.00  0.00     0.037 A 
ENDBRANCH   6  29
TORSDOF 6
ENDMDL
