MODEL 1
REMARK VINA RESULT:      -7.4      0.000      0.000
REMARK  4 active torsions:
REMARK  status: ('A' for Active; 'I' for Inactive)
REMARK    1  A    between atoms: C_2  and  O_3 
REMARK    2  A    between atoms: C_2  and  C_12 
REMARK    3  A    between atoms: O_3  and  C_4 
REMARK       I    between atoms: C_12  and  N_13 
REMARK    4  A    between atoms: N_13  and  C_14 
ROOT
HETATM    1  C   UNL     1      41.333 -17.308   5.591  1.00  0.00     0.050 C 
HETATM    2  C   UNL     1      41.626 -17.289   4.092  1.00  0.00     0.217 C 
ENDROOT
BRANCH   2   3
HETATM    3  O   UNL     1      43.045 -17.282   3.831  1.00  0.00    -0.336 OA
BRANCH   3   4
HETATM    4  C   UNL     1      43.535 -18.514   3.487  1.00  0.00     0.087 A 
HETATM    5  C   UNL     1      44.390 -19.250   4.317  1.00  0.00     0.047 A 
HETATM    6 BR   UNL     1      44.939 -18.608   6.015  1.00  0.00    -0.048 Br
HETATM    7  C   UNL     1      44.824 -20.516   3.919  1.00  0.00     0.064 A 
HETATM    8  C   UNL     1      44.374 -21.044   2.713  1.00  0.00     0.117 A 
HETATM    9  F   UNL     1      44.787 -22.260   2.333  1.00  0.00    -0.206 F 
HETATM   10  C   UNL     1      43.488 -20.342   1.905  1.00  0.00     0.045 A 
HETATM   11  C   UNL     1      43.057 -19.077   2.299  1.00  0.00     0.041 A 
ENDBRANCH   3   4
ENDBRANCH   2   3
BRANCH   2  12
HETATM   12  C   UNL     1      41.023 -16.022   3.448  1.00  0.00     0.252 C 
HETATM   13  N   UNL     1      40.419 -16.298   2.232  1.00  0.00    -0.309 N 
HETATM   14  H   UNL     1      40.498 -17.250   1.899  1.00  0.00     0.170 HD
HETATM   15  O   UNL     1      41.048 -14.938   4.022  1.00  0.00    -0.270 OA
BRANCH  13  16
HETATM   16  C   UNL     1      39.815 -15.362   1.387  1.00  0.00     0.129 A 
HETATM   17  N   UNL     1      40.463 -14.887   0.309  1.00  0.00    -0.242 NA
HETATM   18  C   UNL     1      39.815 -14.003  -0.487  1.00  0.00     0.142 A 
HETATM   19  C   UNL     1      38.528 -13.557  -0.249  1.00  0.00     0.051 A 
HETATM   20 CL   UNL     1      37.766 -12.438  -1.302  1.00  0.00    -0.083 Cl
HETATM   21  C   UNL     1      37.866 -14.046   0.868  1.00  0.00     0.029 A 
HETATM   22  C   UNL     1      38.517 -14.962   1.698  1.00  0.00     0.052 A 
ENDBRANCH  13  16
ENDBRANCH   2  12
TORSDOF 4
ENDMDL
MODEL 2
REMARK VINA RESULT:      -7.3      1.886      1.950
REMARK  4 active torsions:
REMARK  status: ('A' for Active; 'I' for Inactive)
REMARK    1  A    between atoms: C_2  and  O_3 
REMARK    2  A    between atoms: C_2  and  C_12 
REMARK    3  A    between atoms: O_3  and  C_4 
REMARK       I    between atoms: C_12  and  N_13 
REMARK    4  A    between atoms: N_13  and  C_14 
ROOT
HETATM    1  C   UNL     1      41.579 -16.600   4.748  1.00  0.00     0.050 C 
HETATM    2  C   UNL     1      41.816 -17.442   3.495  1.00  0.00     0.217 C 
ENDROOT
BRANCH   2   3
HETATM    3  O   UNL     1      43.220 -17.538   3.180  1.00  0.00    -0.336 OA
BRANCH   3   4
HETATM    4  C   UNL     1      43.669 -18.831   3.113  1.00  0.00     0.087 A 
HETATM    5  C   UNL     1      44.386 -19.441   4.150  1.00  0.00     0.047 A 
HETATM    6 BR   UNL     1      44.791 -18.528   5.763  1.00  0.00    -0.048 Br
HETATM    7  C   UNL     1      44.784 -20.774   4.029  1.00  0.00     0.064 A 
HETATM    8  C   UNL     1      44.433 -21.490   2.890  1.00  0.00     0.117 A 
HETATM    9  F   UNL     1      44.810 -22.770   2.774  1.00  0.00    -0.206 F 
HETATM   10  C   UNL     1      43.680 -20.908   1.876  1.00  0.00     0.045 A 
HETATM   11  C   UNL     1      43.287 -19.577   1.994  1.00  0.00     0.041 A 
ENDBRANCH   3   4
ENDBRANCH   2   3
BRANCH   2  12
HETATM   12  C   UNL     1      41.104 -16.803   2.283  1.00  0.00     0.252 C 
HETATM   13  N   UNL     1      41.989 -16.117   1.468  1.00  0.00    -0.309 N 
HETATM   14  H   UNL     1      42.947 -16.068   1.789  1.00  0.00     0.170 HD
HETATM   15  O   UNL     1      39.906 -16.974   2.081  1.00  0.00    -0.270 OA
BRANCH  13  16
HETATM   16  C   UNL     1      41.653 -15.401   0.314  1.00  0.00     0.129 A 
HETATM   17  N   UNL     1      41.284 -16.040  -0.810  1.00  0.00    -0.242 NA
HETATM   18  C   UNL     1      40.944 -15.291  -1.887  1.00  0.00     0.142 A 
HETATM   19  C   UNL     1      40.963 -13.908  -1.896  1.00  0.00     0.051 A 
HETATM   20 CL   UNL     1      40.517 -13.023  -3.295  1.00  0.00    -0.083 Cl
HETATM   21  C   UNL     1      41.352 -13.255  -0.736  1.00  0.00     0.029 A 
HETATM   22  C   UNL     1      41.701 -14.010   0.387  1.00  0.00     0.052 A 
ENDBRANCH  13  16
ENDBRANCH   2  12
TORSDOF 4
ENDMDL
MODEL 3
REMARK VINA RESULT:      -7.2      2.555      3.375
REMARK  4 active torsions:
REMARK  status: ('A' for Active; 'I' for Inactive)
REMARK    1  A    between atoms: C_2  and  O_3 
REMARK    2  A    between atoms: C_2  and  C_12 
REMARK    3  A    between atoms: O_3  and  C_4 
REMARK       I    between atoms: C_12  and  N_13 
REMARK    4  A    between atoms: N_13  and  C_14 
ROOT
HETATM    1  C   UNL     1      43.928 -17.530   0.920  1.00  0.00     0.050 C 
HETATM    2  C   UNL     1      42.837 -17.138   1.914  1.00  0.00     0.217 C 
ENDROOT
BRANCH   2   3
HETATM    3  O   UNL     1      42.478 -18.243   2.769  1.00  0.00    -0.336 OA
BRANCH   3   4
HETATM    4  C   UNL     1      43.247 -18.319   3.901  1.00  0.00     0.087 A 
HETATM    5  C   UNL     1      44.167 -19.351   4.127  1.00  0.00     0.047 A 
HETATM    6 BR   UNL     1      44.445 -20.741   2.867  1.00  0.00    -0.048 Br
HETATM    7  C   UNL     1      44.943 -19.347   5.287  1.00  0.00     0.064 A 
HETATM    8  C   UNL     1      44.815 -18.298   6.191  1.00  0.00     0.117 A 
HETATM    9  F   UNL     1      45.563 -18.292   7.302  1.00  0.00    -0.206 F 
HETATM   10  C   UNL     1      43.940 -17.245   5.953  1.00  0.00     0.045 A 
HETATM   11  C   UNL     1      43.162 -17.249   4.797  1.00  0.00     0.041 A 
ENDBRANCH   3   4
ENDBRANCH   2   3
BRANCH   2  12
HETATM   12  C   UNL     1      41.564 -16.695   1.160  1.00  0.00     0.252 C 
HETATM   13  N   UNL     1      41.862 -15.892   0.072  1.00  0.00    -0.309 N 
HETATM   14  H   UNL     1      42.837 -15.653  -0.054  1.00  0.00     0.170 HD
HETATM   15  O   UNL     1      40.453 -17.094   1.492  1.00  0.00    -0.270 OA
BRANCH  13  16
HETATM   16  C   UNL     1      40.932 -15.302  -0.790  1.00  0.00     0.129 A 
HETATM   17  N   UNL     1      40.055 -14.389  -0.336  1.00  0.00    -0.242 NA
HETATM   18  C   UNL     1      39.196 -13.833  -1.224  1.00  0.00     0.142 A 
HETATM   19  C   UNL     1      39.167 -14.157  -2.569  1.00  0.00     0.051 A 
HETATM   20 CL   UNL     1      38.054 -13.410  -3.639  1.00  0.00    -0.083 Cl
HETATM   21  C   UNL     1      40.070 -15.104  -3.030  1.00  0.00     0.029 A 
HETATM   22  C   UNL     1      40.966 -15.685  -2.129  1.00  0.00     0.052 A 
ENDBRANCH  13  16
ENDBRANCH   2  12
TORSDOF 4
ENDMDL
MODEL 4
REMARK VINA RESULT:      -7.1      2.341      2.648
REMARK  4 active torsions:
REMARK  status: ('A' for Active; 'I' for Inactive)
REMARK    1  A    between atoms: C_2  and  O_3 
REMARK    2  A    between atoms: C_2  and  C_12 
REMARK    3  A    between atoms: O_3  and  C_4 
REMARK       I    between atoms: C_12  and  N_13 
REMARK    4  A    between atoms: N_13  and  C_14 
ROOT
HETATM    1  C   UNL     1      41.335 -17.767   4.834  1.00  0.00     0.050 C 
HETATM    2  C   UNL     1      41.968 -17.135   3.595  1.00  0.00     0.217 C 
ENDROOT
BRANCH   2   3
HETATM    3  O   UNL     1      43.399 -17.316   3.582  1.00  0.00    -0.336 OA
BRANCH   3   4
HETATM    4  C   UNL     1      43.774 -18.615   3.360  1.00  0.00     0.087 A 
HETATM    5  C   UNL     1      44.458 -19.381   4.313  1.00  0.00     0.047 A 
HETATM    6 BR   UNL     1      44.915 -18.687   6.018  1.00  0.00    -0.048 Br
HETATM    7  C   UNL     1      44.780 -20.711   4.033  1.00  0.00     0.064 A 
HETATM    8  C   UNL     1      44.387 -21.268   2.821  1.00  0.00     0.117 A 
HETATM    9  F   UNL     1      44.692 -22.544   2.554  1.00  0.00    -0.206 F 
HETATM   10  C   UNL     1      43.667 -20.530   1.889  1.00  0.00     0.045 A 
HETATM   11  C   UNL     1      43.349 -19.202   2.164  1.00  0.00     0.041 A 
ENDBRANCH   3   4
ENDBRANCH   2   3
BRANCH   2  12
HETATM   12  C   UNL     1      41.686 -15.616   3.570  1.00  0.00     0.252 C 
HETATM   13  N   UNL     1      40.381 -15.328   3.934  1.00  0.00    -0.309 N 
HETATM   14  H   UNL     1      39.778 -16.122   4.106  1.00  0.00     0.170 HD
HETATM   15  O   UNL     1      42.571 -14.806   3.316  1.00  0.00    -0.270 OA
BRANCH  13  16
HETATM   16  C   UNL     1      39.806 -14.054   3.975  1.00  0.00     0.129 A 
HETATM   17  N   UNL     1      39.656 -13.403   5.142  1.00  0.00    -0.242 NA
HETATM   18  C   UNL     1      39.116 -12.161   5.115  1.00  0.00     0.142 A 
HETATM   19  C   UNL     1      38.705 -11.529   3.956  1.00  0.00     0.051 A 
HETATM   20 CL   UNL     1      38.032  -9.952   3.994  1.00  0.00    -0.083 Cl
HETATM   21  C   UNL     1      38.855 -12.208   2.755  1.00  0.00     0.029 A 
HETATM   22  C   UNL     1      39.415 -13.488   2.763  1.00  0.00     0.052 A 
ENDBRANCH  13  16
ENDBRANCH   2  12
TORSDOF 4
ENDMDL
MODEL 5
REMARK VINA RESULT:      -6.7      2.408      3.400
REMARK  4 active torsions:
REMARK  status: ('A' for Active; 'I' for Inactive)
REMARK    1  A    between atoms: C_2  and  O_3 
REMARK    2  A    between atoms: C_2  and  C_12 
REMARK    3  A    between atoms: O_3  and  C_4 
REMARK       I    between atoms: C_12  and  N_13 
REMARK    4  A    between atoms: N_13  and  C_14 
ROOT
HETATM    1  C   UNL     1      43.688 -18.801   1.758  1.00  0.00     0.050 C 
HETATM    2  C   UNL     1      43.346 -17.905   2.947  1.00  0.00     0.217 C 
ENDROOT
BRANCH   2   3
HETATM    3  O   UNL     1      42.418 -18.549   3.844  1.00  0.00    -0.336 OA
BRANCH   3   4
HETATM    4  C   UNL     1      42.670 -18.279   5.163  1.00  0.00     0.087 A 
HETATM    5  C   UNL     1      43.599 -18.999   5.923  1.00  0.00     0.047 A 
HETATM    6 BR   UNL     1      44.616 -20.419   5.181  1.00  0.00    -0.048 Br
HETATM    7  C   UNL     1      43.832 -18.648   7.254  1.00  0.00     0.064 A 
HETATM    8  C   UNL     1      43.157 -17.561   7.800  1.00  0.00     0.117 A 
HETATM    9  F   UNL     1      43.382 -17.220   9.075  1.00  0.00    -0.206 F 
HETATM   10  C   UNL     1      42.267 -16.810   7.041  1.00  0.00     0.045 A 
HETATM   11  C   UNL     1      42.031 -17.163   5.714  1.00  0.00     0.041 A 
ENDBRANCH   3   4
ENDBRANCH   2   3
BRANCH   2  12
HETATM   12  C   UNL     1      42.692 -16.595   2.455  1.00  0.00     0.252 C 
HETATM   13  N   UNL     1      41.450 -16.820   1.886  1.00  0.00    -0.309 N 
HETATM   14  H   UNL     1      41.161 -17.787   1.810  1.00  0.00     0.170 HD
HETATM   15  O   UNL     1      43.228 -15.506   2.635  1.00  0.00    -0.270 OA
BRANCH  13  16
HETATM   16  C   UNL     1      40.622 -15.848   1.315  1.00  0.00     0.129 A 
HETATM   17  N   UNL     1      40.910 -15.316   0.114  1.00  0.00    -0.242 NA
HETATM   18  C   UNL     1      40.056 -14.398  -0.398  1.00  0.00     0.142 A 
HETATM   19  C   UNL     1      38.910 -13.972   0.248  1.00  0.00     0.051 A 
HETATM   20 CL   UNL     1      37.870 -12.808  -0.462  1.00  0.00    -0.083 Cl
HETATM   21  C   UNL     1      38.621 -14.519   1.490  1.00  0.00     0.029 A 
HETATM   22  C   UNL     1      39.488 -15.472   2.032  1.00  0.00     0.052 A 
ENDBRANCH  13  16
ENDBRANCH   2  12
TORSDOF 4
ENDMDL
MODEL 6
REMARK VINA RESULT:      -6.7      2.988      4.015
REMARK  4 active torsions:
REMARK  status: ('A' for Active; 'I' for Inactive)
REMARK    1  A    between atoms: C_2  and  O_3 
REMARK    2  A    between atoms: C_2  and  C_12 
REMARK    3  A    between atoms: O_3  and  C_4 
REMARK       I    between atoms: C_12  and  N_13 
REMARK    4  A    between atoms: N_13  and  C_14 
ROOT
HETATM    1  C   UNL     1      43.434 -20.003   2.147  1.00  0.00     0.050 C 
HETATM    2  C   UNL     1      43.497 -18.685   2.917  1.00  0.00     0.217 C 
ENDROOT
BRANCH   2   3
HETATM    3  O   UNL     1      42.365 -18.533   3.797  1.00  0.00    -0.336 OA
BRANCH   3   4
HETATM    4  C   UNL     1      42.723 -18.276   5.095  1.00  0.00     0.087 A 
HETATM    5  C   UNL     1      42.224 -17.187   5.819  1.00  0.00     0.047 A 
HETATM    6 BR   UNL     1      40.982 -15.966   5.067  1.00  0.00    -0.048 Br
HETATM    7  C   UNL     1      42.605 -17.004   7.150  1.00  0.00     0.064 A 
HETATM    8  C   UNL     1      43.453 -17.928   7.750  1.00  0.00     0.117 A 
HETATM    9  F   UNL     1      43.816 -17.757   9.028  1.00  0.00    -0.206 F 
HETATM   10  C   UNL     1      43.917 -19.039   7.054  1.00  0.00     0.045 A 
HETATM   11  C   UNL     1      43.541 -19.220   5.725  1.00  0.00     0.041 A 
ENDBRANCH   3   4
ENDBRANCH   2   3
BRANCH   2  12
HETATM   12  C   UNL     1      43.492 -17.494   1.935  1.00  0.00     0.252 C 
HETATM   13  N   UNL     1      42.233 -16.930   1.814  1.00  0.00    -0.309 N 
HETATM   14  H   UNL     1      41.486 -17.389   2.319  1.00  0.00     0.170 HD
HETATM   15  O   UNL     1      44.525 -17.097   1.405  1.00  0.00    -0.270 OA
BRANCH  13  16
HETATM   16  C   UNL     1      41.891 -15.861   0.978  1.00  0.00     0.129 A 
HETATM   17  N   UNL     1      42.052 -14.590   1.384  1.00  0.00    -0.242 NA
HETATM   18  C   UNL     1      41.727 -13.598   0.520  1.00  0.00     0.142 A 
HETATM   19  C   UNL     1      41.235 -13.821  -0.753  1.00  0.00     0.051 A 
HETATM   20 CL   UNL     1      40.848 -12.518  -1.797  1.00  0.00    -0.083 Cl
HETATM   21  C   UNL     1      41.064 -15.136  -1.164  1.00  0.00     0.029 A 
HETATM   22  C   UNL     1      41.398 -16.172  -0.288  1.00  0.00     0.052 A 
ENDBRANCH  13  16
ENDBRANCH   2  12
TORSDOF 4
ENDMDL
MODEL 7
REMARK VINA RESULT:      -6.6      4.904      7.979
REMARK  4 active torsions:
REMARK  status: ('A' for Active; 'I' for Inactive)
REMARK    1  A    between atoms: C_2  and  O_3 
REMARK    2  A    between atoms: C_2  and  C_12 
REMARK    3  A    between atoms: O_3  and  C_4 
REMARK       I    between atoms: C_12  and  N_13 
REMARK    4  A    between atoms: N_13  and  C_14 
ROOT
HETATM    1  C   UNL     1      43.097 -14.434   2.899  1.00  0.00     0.050 C 
HETATM    2  C   UNL     1      41.783 -15.207   2.803  1.00  0.00     0.217 C 
ENDROOT
BRANCH   2   3
HETATM    3  O   UNL     1      40.743 -14.581   3.581  1.00  0.00    -0.336 OA
BRANCH   3   4
HETATM    4  C   UNL     1      39.749 -14.036   2.811  1.00  0.00     0.087 A 
HETATM    5  C   UNL     1      39.490 -12.661   2.767  1.00  0.00     0.047 A 
HETATM    6 BR   UNL     1      40.512 -11.414   3.767  1.00  0.00    -0.048 Br
HETATM    7  C   UNL     1      38.483 -12.170   1.933  1.00  0.00     0.064 A 
HETATM    8  C   UNL     1      37.771 -13.054   1.130  1.00  0.00     0.117 A 
HETATM    9  F   UNL     1      36.808 -12.584   0.326  1.00  0.00    -0.206 F 
HETATM   10  C   UNL     1      38.052 -14.415   1.131  1.00  0.00     0.045 A 
HETATM   11  C   UNL     1      39.054 -14.907   1.966  1.00  0.00     0.041 A 
ENDBRANCH   3   4
ENDBRANCH   2   3
BRANCH   2  12
HETATM   12  C   UNL     1      41.971 -16.643   3.339  1.00  0.00     0.252 C 
HETATM   13  N   UNL     1      43.309 -16.985   3.443  1.00  0.00    -0.309 N 
HETATM   14  H   UNL     1      43.974 -16.298   3.109  1.00  0.00     0.170 HD
HETATM   15  O   UNL     1      41.013 -17.329   3.680  1.00  0.00    -0.270 OA
BRANCH  13  16
HETATM   16  C   UNL     1      43.809 -18.223   3.860  1.00  0.00     0.129 A 
HETATM   17  N   UNL     1      44.076 -18.456   5.157  1.00  0.00    -0.242 NA
HETATM   18  C   UNL     1      44.533 -19.684   5.504  1.00  0.00     0.142 A 
HETATM   19  C   UNL     1      44.746 -20.706   4.598  1.00  0.00     0.051 A 
HETATM   20 CL   UNL     1      45.322 -22.239   5.106  1.00  0.00    -0.083 Cl
HETATM   21  C   UNL     1      44.475 -20.457   3.260  1.00  0.00     0.029 A 
HETATM   22  C   UNL     1      43.999 -19.198   2.884  1.00  0.00     0.052 A 
ENDBRANCH  13  16
ENDBRANCH   2  12
TORSDOF 4
ENDMDL
MODEL 8
REMARK VINA RESULT:      -6.6      1.551      2.117
REMARK  4 active torsions:
REMARK  status: ('A' for Active; 'I' for Inactive)
REMARK    1  A    between atoms: C_2  and  O_3 
REMARK    2  A    between atoms: C_2  and  C_12 
REMARK    3  A    between atoms: O_3  and  C_4 
REMARK       I    between atoms: C_12  and  N_13 
REMARK    4  A    between atoms: N_13  and  C_14 
ROOT
HETATM    1  C   UNL     1      44.038 -17.333   1.195  1.00  0.00     0.050 C 
HETATM    2  C   UNL     1      43.347 -17.139   2.543  1.00  0.00     0.217 C 
ENDROOT
BRANCH   2   3
HETATM    3  O   UNL     1      42.625 -18.321   2.942  1.00  0.00    -0.336 OA
BRANCH   3   4
HETATM    4  C   UNL     1      43.419 -19.257   3.551  1.00  0.00     0.087 A 
HETATM    5  C   UNL     1      43.709 -19.234   4.920  1.00  0.00     0.047 A 
HETATM    6 BR   UNL     1      43.006 -17.899   6.072  1.00  0.00    -0.048 Br
HETATM    7  C   UNL     1      44.498 -20.240   5.481  1.00  0.00     0.064 A 
HETATM    8  C   UNL     1      44.961 -21.273   4.674  1.00  0.00     0.117 A 
HETATM    9  F   UNL     1      45.714 -22.241   5.212  1.00  0.00    -0.206 F 
HETATM   10  C   UNL     1      44.640 -21.332   3.323  1.00  0.00     0.045 A 
HETATM   11  C   UNL     1      43.856 -20.326   2.761  1.00  0.00     0.041 A 
ENDBRANCH   3   4
ENDBRANCH   2   3
BRANCH   2  12
HETATM   12  C   UNL     1      42.335 -15.975   2.459  1.00  0.00     0.252 C 
HETATM   13  N   UNL     1      41.382 -16.190   1.478  1.00  0.00    -0.309 N 
HETATM   14  H   UNL     1      41.498 -17.023   0.916  1.00  0.00     0.170 HD
HETATM   15  O   UNL     1      42.380 -15.031   3.241  1.00  0.00    -0.270 OA
BRANCH  13  16
HETATM   16  C   UNL     1      40.352 -15.310   1.130  1.00  0.00     0.129 A 
HETATM   17  N   UNL     1      39.166 -15.353   1.761  1.00  0.00    -0.242 NA
HETATM   18  C   UNL     1      38.217 -14.457   1.398  1.00  0.00     0.142 A 
HETATM   19  C   UNL     1      38.398 -13.507   0.410  1.00  0.00     0.051 A 
HETATM   20 CL   UNL     1      37.153 -12.400   0.003  1.00  0.00    -0.083 Cl
HETATM   21  C   UNL     1      39.621 -13.472  -0.244  1.00  0.00     0.029 A 
HETATM   22  C   UNL     1      40.614 -14.385   0.121  1.00  0.00     0.052 A 
ENDBRANCH  13  16
ENDBRANCH   2  12
TORSDOF 4
ENDMDL
MODEL 9
REMARK VINA RESULT:      -6.5      2.178      2.881
REMARK  4 active torsions:
REMARK  status: ('A' for Active; 'I' for Inactive)
REMARK    1  A    between atoms: C_2  and  O_3 
REMARK    2  A    between atoms: C_2  and  C_12 
REMARK    3  A    between atoms: O_3  and  C_4 
REMARK       I    between atoms: C_12  and  N_13 
REMARK    4  A    between atoms: N_13  and  C_14 
ROOT
HETATM    1  C   UNL     1      40.492 -17.309   1.817  1.00  0.00     0.050 C 
HETATM    2  C   UNL     1      41.823 -16.841   1.232  1.00  0.00     0.217 C 
ENDROOT
BRANCH   2   3
HETATM    3  O   UNL     1      42.813 -16.642   2.263  1.00  0.00    -0.336 OA
BRANCH   3   4
HETATM    4  C   UNL     1      43.375 -17.812   2.702  1.00  0.00     0.087 A 
HETATM    5  C   UNL     1      43.680 -18.050   4.048  1.00  0.00     0.047 A 
HETATM    6 BR   UNL     1      43.325 -16.768   5.400  1.00  0.00    -0.048 Br
HETATM    7  C   UNL     1      44.220 -19.280   4.430  1.00  0.00     0.064 A 
HETATM    8  C   UNL     1      44.418 -20.267   3.471  1.00  0.00     0.117 A 
HETATM    9  F   UNL     1      44.932 -21.448   3.838  1.00  0.00    -0.206 F 
HETATM   10  C   UNL     1      44.074 -20.058   2.140  1.00  0.00     0.045 A 
HETATM   11  C   UNL     1      43.539 -18.829   1.756  1.00  0.00     0.041 A 
ENDBRANCH   3   4
ENDBRANCH   2   3
BRANCH   2  12
HETATM   12  C   UNL     1      41.637 -15.497   0.494  1.00  0.00     0.252 C 
HETATM   13  N   UNL     1      40.827 -15.630  -0.621  1.00  0.00    -0.309 N 
HETATM   14  H   UNL     1      40.518 -16.567  -0.842  1.00  0.00     0.170 HD
HETATM   15  O   UNL     1      42.119 -14.457   0.929  1.00  0.00    -0.270 OA
BRANCH  13  16
HETATM   16  C   UNL     1      40.495 -14.609  -1.518  1.00  0.00     0.129 A 
HETATM   17  N   UNL     1      39.461 -13.786  -1.274  1.00  0.00    -0.242 NA
HETATM   18  C   UNL     1      39.205 -12.799  -2.167  1.00  0.00     0.142 A 
HETATM   19  C   UNL     1      39.945 -12.596  -3.317  1.00  0.00     0.051 A 
HETATM   20 CL   UNL     1      39.568 -11.324  -4.403  1.00  0.00    -0.083 Cl
HETATM   21  C   UNL     1      41.007 -13.453  -3.568  1.00  0.00     0.029 A 
HETATM   22  C   UNL     1      41.288 -14.474  -2.656  1.00  0.00     0.052 A 
ENDBRANCH  13  16
ENDBRANCH   2  12
TORSDOF 4
ENDMDL
MODEL 10
REMARK VINA RESULT:      -6.4      4.988      7.713
REMARK  4 active torsions:
REMARK  status: ('A' for Active; 'I' for Inactive)
REMARK    1  A    between atoms: C_2  and  O_3 
REMARK    2  A    between atoms: C_2  and  C_12 
REMARK    3  A    between atoms: O_3  and  C_4 
REMARK       I    between atoms: C_12  and  N_13 
REMARK    4  A    between atoms: N_13  and  C_14 
ROOT
HETATM    1  C   UNL     1      38.805 -14.432   1.614  1.00  0.00     0.050 C 
HETATM    2  C   UNL     1      40.257 -14.742   1.254  1.00  0.00     0.217 C 
ENDROOT
BRANCH   2   3
HETATM    3  O   UNL     1      40.443 -14.819  -0.174  1.00  0.00    -0.336 OA
BRANCH   3   4
HETATM    4  C   UNL     1      41.257 -13.831  -0.664  1.00  0.00     0.087 A 
HETATM    5  C   UNL     1      41.609 -13.738  -2.016  1.00  0.00     0.047 A 
HETATM    6 BR   UNL     1      40.973 -14.975  -3.307  1.00  0.00    -0.048 Br
HETATM    7  C   UNL     1      42.415 -12.685  -2.454  1.00  0.00     0.064 A 
HETATM    8  C   UNL     1      42.832 -11.720  -1.542  1.00  0.00     0.117 A 
HETATM    9  F   UNL     1      43.600 -10.707  -1.961  1.00  0.00    -0.206 F 
HETATM   10  C   UNL     1      42.448 -11.777  -0.207  1.00  0.00     0.045 A 
HETATM   11  C   UNL     1      41.648 -12.830   0.231  1.00  0.00     0.041 A 
ENDBRANCH   3   4
ENDBRANCH   2   3
BRANCH   2  12
HETATM   12  C   UNL     1      40.676 -16.101   1.856  1.00  0.00     0.252 C 
HETATM   13  N   UNL     1      42.036 -16.154   2.115  1.00  0.00    -0.309 N 
HETATM   14  H   UNL     1      42.577 -15.348   1.831  1.00  0.00     0.170 HD
HETATM   15  O   UNL     1      39.848 -16.969   2.114  1.00  0.00    -0.270 OA
BRANCH  13  16
HETATM   16  C   UNL     1      42.730 -17.256   2.626  1.00  0.00     0.129 A 
HETATM   17  N   UNL     1      42.835 -17.449   3.952  1.00  0.00    -0.242 NA
HETATM   18  C   UNL     1      43.497 -18.548   4.386  1.00  0.00     0.142 A 
HETATM   19  C   UNL     1      44.076 -19.478   3.541  1.00  0.00     0.051 A 
HETATM   20 CL   UNL     1      44.896 -20.851   4.159  1.00  0.00    -0.083 Cl
HETATM   21  C   UNL     1      43.970 -19.270   2.174  1.00  0.00     0.029 A 
HETATM   22  C   UNL     1      43.287 -18.143   1.708  1.00  0.00     0.052 A 
ENDBRANCH  13  16
ENDBRANCH   2  12
TORSDOF 4
ENDMDL
