MODEL 1
REMARK VINA RESULT:      -8.1      0.000      0.000
REMARK  10 active torsions:
REMARK  status: ('A' for Active; 'I' for Inactive)
REMARK    1  A    between atoms: C_2  and  C_3 
REMARK    2  A    between atoms: C_3  and  N_4 
REMARK    3  A    between atoms: N_4  and  C_5 
REMARK    4  A    between atoms: C_5  and  N_6 
REMARK    5  A    between atoms: N_6  and  N_7 
REMARK       I    between atoms: N_7  and  C_8 
REMARK    6  A    between atoms: C_8  and  C_9 
REMARK    7  A    between atoms: C_9  and  C_10 
REMARK    8  A    between atoms: C_10  and  C_11 
REMARK    9  A    between atoms: C_13  and  O_14 
REMARK   10  A    between atoms: C_15  and  O_16 
ROOT
HETATM    1  N   UNL     1      41.001 -17.229   2.039  1.00  0.00    -0.268 N 
HETATM    2  C   UNL     1      41.956 -17.021   1.063  1.00  0.00     0.236 C 
HETATM    3  O   UNL     1      41.725 -16.432   0.007  1.00  0.00    -0.272 OA
HETATM    4  H   UNL     1      41.262 -17.386   3.009  1.00  0.00     0.190 HD
ENDROOT
BRANCH   1   5
HETATM    5  N   UNL     1      39.731 -16.661   1.820  1.00  0.00    -0.274 N 
HETATM    6  H   UNL     1      39.337 -16.936   0.921  1.00  0.00     0.189 HD
BRANCH   5   7
HETATM    7  C   UNL     1      39.474 -15.376   2.235  1.00  0.00     0.186 C 
HETATM    8  S   UNL     1      38.845 -14.158   1.276  1.00  0.00    -0.040 SA
BRANCH   7   9
HETATM    9  N   UNL     1      39.797 -15.085   3.527  1.00  0.00    -0.362 N 
HETATM   10  H   UNL     1      39.055 -15.247   4.197  1.00  0.00     0.162 HD
BRANCH   9  11
HETATM   11  C   UNL     1      41.012 -14.472   4.035  1.00  0.00     0.160 C 
BRANCH  11  12
HETATM   12  C   UNL     1      41.746 -15.291   5.071  1.00  0.00    -0.040 A 
HETATM   13  C   UNL     1      43.023 -14.957   5.549  1.00  0.00     0.010 A 
HETATM   14  C   UNL     1      43.631 -15.714   6.555  1.00  0.00     0.024 A 
HETATM   15  C   UNL     1      42.969 -16.812   7.096  1.00  0.00     0.034 A 
HETATM   16  C   UNL     1      41.700 -17.157   6.643  1.00  0.00     0.024 A 
HETATM   17 CL   UNL     1      43.717 -17.739   8.337  1.00  0.00    -0.084 Cl
HETATM   18  C   UNL     1      41.090 -16.398   5.640  1.00  0.00     0.010 A 
ENDBRANCH  11  12
ENDBRANCH   9  11
ENDBRANCH   7   9
ENDBRANCH   5   7
ENDBRANCH   1   5
BRANCH   2  19
HETATM   19  C   UNL     1      43.310 -17.618   1.370  1.00  0.00     0.109 C 
BRANCH  19  20
HETATM   20  C   UNL     1      43.553 -17.777   2.874  1.00  0.00     0.048 C 
BRANCH  20  21
HETATM   21  C   UNL     1      43.990 -19.149   3.344  1.00  0.00    -0.055 A 
HETATM   22  C   UNL     1      44.148 -20.230   2.461  1.00  0.00     0.046 A 
HETATM   23  C   UNL     1      44.509 -21.480   2.954  1.00  0.00     0.099 A 
HETATM   24  C   UNL     1      44.758 -21.659   4.311  1.00  0.00     0.098 A 
HETATM   25  C   UNL     1      44.646 -20.599   5.194  1.00  0.00     0.040 A 
HETATM   26  C   UNL     1      44.264 -19.345   4.711  1.00  0.00     0.010 A 
BRANCH  23  27
HETATM   27  O   UNL     1      44.618 -22.573   2.137  1.00  0.00    -0.358 OA
HETATM   28  H   UNL     1      44.180 -23.320   2.580  1.00  0.00     0.218 HD
ENDBRANCH  23  27
BRANCH  24  29
HETATM   29  O   UNL     1      45.107 -22.891   4.783  1.00  0.00    -0.358 OA
HETATM   30  H   UNL     1      46.084 -22.902   4.730  1.00  0.00     0.218 HD
ENDBRANCH  24  29
ENDBRANCH  20  21
ENDBRANCH  19  20
ENDBRANCH   2  19
TORSDOF 10
ENDMDL
MODEL 2
REMARK VINA RESULT:      -8.0      0.739      1.683
REMARK  10 active torsions:
REMARK  status: ('A' for Active; 'I' for Inactive)
REMARK    1  A    between atoms: C_2  and  C_3 
REMARK    2  A    between atoms: C_3  and  N_4 
REMARK    3  A    between atoms: N_4  and  C_5 
REMARK    4  A    between atoms: C_5  and  N_6 
REMARK    5  A    between atoms: N_6  and  N_7 
REMARK       I    between atoms: N_7  and  C_8 
REMARK    6  A    between atoms: C_8  and  C_9 
REMARK    7  A    between atoms: C_9  and  C_10 
REMARK    8  A    between atoms: C_10  and  C_11 
REMARK    9  A    between atoms: C_13  and  O_14 
REMARK   10  A    between atoms: C_15  and  O_16 
ROOT
HETATM    1  N   UNL     1      41.056 -17.145   1.929  1.00  0.00    -0.268 N 
HETATM    2  C   UNL     1      41.909 -16.912   0.867  1.00  0.00     0.236 C 
HETATM    3  O   UNL     1      41.569 -16.313  -0.153  1.00  0.00    -0.272 OA
HETATM    4  H   UNL     1      41.413 -17.310   2.866  1.00  0.00     0.190 HD
ENDROOT
BRANCH   1   5
HETATM    5  N   UNL     1      39.765 -16.590   1.842  1.00  0.00    -0.274 N 
HETATM    6  H   UNL     1      39.310 -16.812   0.958  1.00  0.00     0.189 HD
BRANCH   5   7
HETATM    7  C   UNL     1      39.519 -15.341   2.362  1.00  0.00     0.186 C 
HETATM    8  S   UNL     1      38.984 -14.019   1.487  1.00  0.00    -0.040 SA
BRANCH   7   9
HETATM    9  N   UNL     1      39.770 -15.183   3.692  1.00  0.00    -0.362 N 
HETATM   10  H   UNL     1      39.013 -15.466   4.303  1.00  0.00     0.162 HD
BRANCH   9  11
HETATM   11  C   UNL     1      40.920 -14.560   4.323  1.00  0.00     0.160 C 
BRANCH  11  12
HETATM   12  C   UNL     1      41.800 -15.507   5.105  1.00  0.00    -0.040 A 
HETATM   13  C   UNL     1      41.430 -16.828   5.404  1.00  0.00     0.010 A 
HETATM   14  C   UNL     1      42.309 -17.683   6.076  1.00  0.00     0.024 A 
HETATM   15  C   UNL     1      43.568 -17.229   6.455  1.00  0.00     0.034 A 
HETATM   16  C   UNL     1      43.959 -15.926   6.162  1.00  0.00     0.024 A 
HETATM   17 CL   UNL     1      44.650 -18.283   7.277  1.00  0.00    -0.084 Cl
HETATM   18  C   UNL     1      43.083 -15.072   5.487  1.00  0.00     0.010 A 
ENDBRANCH  11  12
ENDBRANCH   9  11
ENDBRANCH   7   9
ENDBRANCH   5   7
ENDBRANCH   1   5
BRANCH   2  19
HETATM   19  C   UNL     1      43.293 -17.496   1.033  1.00  0.00     0.109 C 
BRANCH  19  20
HETATM   20  C   UNL     1      43.601 -17.869   2.486  1.00  0.00     0.048 C 
BRANCH  20  21
HETATM   21  C   UNL     1      43.906 -19.329   2.756  1.00  0.00    -0.055 A 
HETATM   22  C   UNL     1      44.426 -19.773   3.983  1.00  0.00     0.046 A 
HETATM   23  C   UNL     1      44.727 -21.120   4.160  1.00  0.00     0.099 A 
HETATM   24  C   UNL     1      44.478 -22.039   3.147  1.00  0.00     0.098 A 
HETATM   25  C   UNL     1      43.930 -21.630   1.943  1.00  0.00     0.040 A 
HETATM   26  C   UNL     1      43.643 -20.277   1.749  1.00  0.00     0.010 A 
BRANCH  23  27
HETATM   27  O   UNL     1      45.288 -21.585   5.319  1.00  0.00    -0.358 OA
HETATM   28  H   UNL     1      45.848 -22.349   5.093  1.00  0.00     0.218 HD
ENDBRANCH  23  27
BRANCH  24  29
HETATM   29  O   UNL     1      44.783 -23.357   3.331  1.00  0.00    -0.358 OA
HETATM   30  H   UNL     1      43.937 -23.824   3.178  1.00  0.00     0.218 HD
ENDBRANCH  24  29
ENDBRANCH  20  21
ENDBRANCH  19  20
ENDBRANCH   2  19
TORSDOF 10
ENDMDL
MODEL 3
REMARK VINA RESULT:      -7.6      1.564      2.198
REMARK  10 active torsions:
REMARK  status: ('A' for Active; 'I' for Inactive)
REMARK    1  A    between atoms: C_2  and  C_3 
REMARK    2  A    between atoms: C_3  and  N_4 
REMARK    3  A    between atoms: N_4  and  C_5 
REMARK    4  A    between atoms: C_5  and  N_6 
REMARK    5  A    between atoms: N_6  and  N_7 
REMARK       I    between atoms: N_7  and  C_8 
REMARK    6  A    between atoms: C_8  and  C_9 
REMARK    7  A    between atoms: C_9  and  C_10 
REMARK    8  A    between atoms: C_10  and  C_11 
REMARK    9  A    between atoms: C_13  and  O_14 
REMARK   10  A    between atoms: C_15  and  O_16 
ROOT
HETATM    1  N   UNL     1      41.943 -16.169  -0.195  1.00  0.00    -0.268 N 
HETATM    2  C   UNL     1      42.073 -17.081   0.835  1.00  0.00     0.236 C 
HETATM    3  O   UNL     1      41.138 -17.421   1.558  1.00  0.00    -0.272 OA
HETATM    4  H   UNL     1      42.592 -16.160  -0.977  1.00  0.00     0.190 HD
ENDROOT
BRANCH   1   5
HETATM    5  N   UNL     1      40.648 -15.682  -0.454  1.00  0.00    -0.274 N 
HETATM    6  H   UNL     1      40.352 -15.866  -1.412  1.00  0.00     0.189 HD
BRANCH   5   7
HETATM    7  C   UNL     1      40.241 -14.489   0.094  1.00  0.00     0.186 C 
HETATM    8  S   UNL     1      40.539 -12.976  -0.555  1.00  0.00    -0.040 SA
BRANCH   7   9
HETATM    9  N   UNL     1      39.572 -14.569   1.279  1.00  0.00    -0.362 N 
HETATM   10  H   UNL     1      38.726 -15.126   1.252  1.00  0.00     0.162 HD
BRANCH   9  11
HETATM   11  C   UNL     1      39.853 -13.869   2.521  1.00  0.00     0.160 C 
BRANCH  11  12
HETATM   12  C   UNL     1      40.945 -14.490   3.361  1.00  0.00    -0.040 A 
HETATM   13  C   UNL     1      42.303 -14.165   3.215  1.00  0.00     0.010 A 
HETATM   14  C   UNL     1      43.267 -14.722   4.062  1.00  0.00     0.024 A 
HETATM   15  C   UNL     1      42.884 -15.608   5.063  1.00  0.00     0.034 A 
HETATM   16  C   UNL     1      41.543 -15.940   5.230  1.00  0.00     0.024 A 
HETATM   17 CL   UNL     1      44.070 -16.289   6.107  1.00  0.00    -0.084 Cl
HETATM   18  C   UNL     1      40.579 -15.380   4.387  1.00  0.00     0.010 A 
ENDBRANCH  11  12
ENDBRANCH   9  11
ENDBRANCH   7   9
ENDBRANCH   5   7
ENDBRANCH   1   5
BRANCH   2  19
HETATM   19  C   UNL     1      43.478 -17.600   1.040  1.00  0.00     0.109 C 
BRANCH  19  20
HETATM   20  C   UNL     1      43.765 -17.951   2.503  1.00  0.00     0.048 C 
BRANCH  20  21
HETATM   21  C   UNL     1      44.024 -19.413   2.806  1.00  0.00    -0.055 A 
HETATM   22  C   UNL     1      44.410 -19.858   4.082  1.00  0.00     0.046 A 
HETATM   23  C   UNL     1      44.677 -21.207   4.293  1.00  0.00     0.099 A 
HETATM   24  C   UNL     1      44.524 -22.127   3.262  1.00  0.00     0.098 A 
HETATM   25  C   UNL     1      44.108 -21.717   2.007  1.00  0.00     0.040 A 
HETATM   26  C   UNL     1      43.856 -20.362   1.780  1.00  0.00     0.010 A 
BRANCH  23  27
HETATM   27  O   UNL     1      45.109 -21.674   5.505  1.00  0.00    -0.358 OA
HETATM   28  H   UNL     1      44.395 -22.212   5.888  1.00  0.00     0.218 HD
ENDBRANCH  23  27
BRANCH  24  29
HETATM   29  O   UNL     1      44.794 -23.447   3.480  1.00  0.00    -0.358 OA
HETATM   30  H   UNL     1      45.513 -23.440   4.144  1.00  0.00     0.218 HD
ENDBRANCH  24  29
ENDBRANCH  20  21
ENDBRANCH  19  20
ENDBRANCH   2  19
TORSDOF 10
ENDMDL
MODEL 4
REMARK VINA RESULT:      -7.4      1.751      1.988
REMARK  10 active torsions:
REMARK  status: ('A' for Active; 'I' for Inactive)
REMARK    1  A    between atoms: C_2  and  C_3 
REMARK    2  A    between atoms: C_3  and  N_4 
REMARK    3  A    between atoms: N_4  and  C_5 
REMARK    4  A    between atoms: C_5  and  N_6 
REMARK    5  A    between atoms: N_6  and  N_7 
REMARK       I    between atoms: N_7  and  C_8 
REMARK    6  A    between atoms: C_8  and  C_9 
REMARK    7  A    between atoms: C_9  and  C_10 
REMARK    8  A    between atoms: C_10  and  C_11 
REMARK    9  A    between atoms: C_13  and  O_14 
REMARK   10  A    between atoms: C_15  and  O_16 
ROOT
HETATM    1  N   UNL     1      42.615 -15.351   2.168  1.00  0.00    -0.268 N 
HETATM    2  C   UNL     1      41.512 -16.165   2.339  1.00  0.00     0.236 C 
HETATM    3  O   UNL     1      40.358 -15.739   2.377  1.00  0.00    -0.272 OA
HETATM    4  H   UNL     1      43.488 -15.716   1.795  1.00  0.00     0.190 HD
ENDROOT
BRANCH   1   5
HETATM    5  N   UNL     1      42.369 -13.982   1.950  1.00  0.00    -0.274 N 
HETATM    6  H   UNL     1      42.904 -13.616   1.164  1.00  0.00     0.189 HD
BRANCH   5   7
HETATM    7  C   UNL     1      42.197 -13.137   3.021  1.00  0.00     0.186 C 
HETATM    8  S   UNL     1      41.156 -11.828   3.062  1.00  0.00    -0.040 SA
BRANCH   7   9
HETATM    9  N   UNL     1      42.974 -13.386   4.114  1.00  0.00    -0.362 N 
HETATM   10  H   UNL     1      43.965 -13.462   3.921  1.00  0.00     0.162 HD
BRANCH   9  11
HETATM   11  C   UNL     1      42.550 -13.669   5.474  1.00  0.00     0.160 C 
BRANCH  11  12
HETATM   12  C   UNL     1      42.878 -15.062   5.959  1.00  0.00    -0.040 A 
HETATM   13  C   UNL     1      44.168 -15.453   6.350  1.00  0.00     0.010 A 
HETATM   14  C   UNL     1      44.406 -16.737   6.852  1.00  0.00     0.024 A 
HETATM   15  C   UNL     1      43.356 -17.642   6.971  1.00  0.00     0.034 A 
HETATM   16  C   UNL     1      42.068 -17.273   6.597  1.00  0.00     0.024 A 
HETATM   17 CL   UNL     1      43.649 -19.218   7.594  1.00  0.00    -0.084 Cl
HETATM   18  C   UNL     1      41.830 -15.989   6.099  1.00  0.00     0.010 A 
ENDBRANCH  11  12
ENDBRANCH   9  11
ENDBRANCH   7   9
ENDBRANCH   5   7
ENDBRANCH   1   5
BRANCH   2  19
HETATM   19  C   UNL     1      41.835 -17.630   2.527  1.00  0.00     0.109 C 
BRANCH  19  20
HETATM   20  C   UNL     1      43.288 -17.860   2.952  1.00  0.00     0.048 C 
BRANCH  20  21
HETATM   21  C   UNL     1      43.747 -19.302   3.026  1.00  0.00    -0.055 A 
HETATM   22  C   UNL     1      43.604 -20.191   1.947  1.00  0.00     0.046 A 
HETATM   23  C   UNL     1      44.004 -21.517   2.086  1.00  0.00     0.099 A 
HETATM   24  C   UNL     1      44.585 -21.960   3.270  1.00  0.00     0.098 A 
HETATM   25  C   UNL     1      44.770 -21.091   4.332  1.00  0.00     0.040 A 
HETATM   26  C   UNL     1      44.354 -19.764   4.209  1.00  0.00     0.010 A 
BRANCH  23  27
HETATM   27  O   UNL     1      43.831 -22.430   1.081  1.00  0.00    -0.358 OA
HETATM   28  H   UNL     1      43.256 -23.139   1.419  1.00  0.00     0.218 HD
ENDBRANCH  23  27
BRANCH  24  29
HETATM   29  O   UNL     1      44.968 -23.264   3.395  1.00  0.00    -0.358 OA
HETATM   30  H   UNL     1      45.825 -23.219   3.866  1.00  0.00     0.218 HD
ENDBRANCH  24  29
ENDBRANCH  20  21
ENDBRANCH  19  20
ENDBRANCH   2  19
TORSDOF 10
ENDMDL
MODEL 5
REMARK VINA RESULT:      -7.0      4.726      6.652
REMARK  10 active torsions:
REMARK  status: ('A' for Active; 'I' for Inactive)
REMARK    1  A    between atoms: C_2  and  C_3 
REMARK    2  A    between atoms: C_3  and  N_4 
REMARK    3  A    between atoms: N_4  and  C_5 
REMARK    4  A    between atoms: C_5  and  N_6 
REMARK    5  A    between atoms: N_6  and  N_7 
REMARK       I    between atoms: N_7  and  C_8 
REMARK    6  A    between atoms: C_8  and  C_9 
REMARK    7  A    between atoms: C_9  and  C_10 
REMARK    8  A    between atoms: C_10  and  C_11 
REMARK    9  A    between atoms: C_13  and  O_14 
REMARK   10  A    between atoms: C_15  and  O_16 
ROOT
HETATM    1  N   UNL     1      42.284 -16.380   0.665  1.00  0.00    -0.268 N 
HETATM    2  C   UNL     1      41.535 -16.958   1.671  1.00  0.00     0.236 C 
HETATM    3  O   UNL     1      40.309 -17.059   1.628  1.00  0.00    -0.272 OA
HETATM    4  H   UNL     1      43.267 -16.608   0.541  1.00  0.00     0.190 HD
ENDROOT
BRANCH   1   5
HETATM    5  N   UNL     1      41.590 -15.964  -0.487  1.00  0.00    -0.274 N 
HETATM    6  H   UNL     1      41.826 -16.529  -1.302  1.00  0.00     0.189 HD
BRANCH   5   7
HETATM    7  C   UNL     1      41.371 -14.626  -0.712  1.00  0.00     0.186 C 
HETATM    8  S   UNL     1      40.377 -13.642   0.206  1.00  0.00    -0.040 SA
BRANCH   7   9
HETATM    9  N   UNL     1      41.999 -14.088  -1.795  1.00  0.00    -0.362 N 
HETATM   10  H   UNL     1      42.783 -13.486  -1.575  1.00  0.00     0.162 HD
BRANCH   9  11
HETATM   11  C   UNL     1      41.615 -14.175  -3.193  1.00  0.00     0.160 C 
BRANCH  11  12
HETATM   12  C   UNL     1      40.124 -14.220  -3.436  1.00  0.00    -0.040 A 
HETATM   13  C   UNL     1      39.301 -13.086  -3.360  1.00  0.00     0.010 A 
HETATM   14  C   UNL     1      37.937 -13.170  -3.656  1.00  0.00     0.024 A 
HETATM   15  C   UNL     1      37.382 -14.388  -4.033  1.00  0.00     0.034 A 
HETATM   16  C   UNL     1      38.180 -15.524  -4.122  1.00  0.00     0.024 A 
HETATM   17 CL   UNL     1      35.705 -14.489  -4.402  1.00  0.00    -0.084 Cl
HETATM   18  C   UNL     1      39.544 -15.439  -3.831  1.00  0.00     0.010 A 
ENDBRANCH  11  12
ENDBRANCH   9  11
ENDBRANCH   7   9
ENDBRANCH   5   7
ENDBRANCH   1   5
BRANCH   2  19
HETATM   19  C   UNL     1      42.338 -17.422   2.866  1.00  0.00     0.109 C 
BRANCH  19  20
HETATM   20  C   UNL     1      43.721 -17.947   2.473  1.00  0.00     0.048 C 
BRANCH  20  21
HETATM   21  C   UNL     1      43.991 -19.410   2.760  1.00  0.00    -0.055 A 
HETATM   22  C   UNL     1      44.527 -19.849   3.983  1.00  0.00     0.046 A 
HETATM   23  C   UNL     1      44.796 -21.201   4.176  1.00  0.00     0.099 A 
HETATM   24  C   UNL     1      44.499 -22.128   3.184  1.00  0.00     0.098 A 
HETATM   25  C   UNL     1      43.936 -21.724   1.985  1.00  0.00     0.040 A 
HETATM   26  C   UNL     1      43.681 -20.367   1.775  1.00  0.00     0.010 A 
BRANCH  23  27
HETATM   27  O   UNL     1      45.369 -21.663   5.330  1.00  0.00    -0.358 OA
HETATM   28  H   UNL     1      45.524 -22.618   5.223  1.00  0.00     0.218 HD
ENDBRANCH  23  27
BRANCH  24  29
HETATM   29  O   UNL     1      44.773 -23.451   3.383  1.00  0.00    -0.358 OA
HETATM   30  H   UNL     1      45.569 -23.449   3.951  1.00  0.00     0.218 HD
ENDBRANCH  24  29
ENDBRANCH  20  21
ENDBRANCH  19  20
ENDBRANCH   2  19
TORSDOF 10
ENDMDL
MODEL 6
REMARK VINA RESULT:      -7.0      6.452      9.360
REMARK  10 active torsions:
REMARK  status: ('A' for Active; 'I' for Inactive)
REMARK    1  A    between atoms: C_2  and  C_3 
REMARK    2  A    between atoms: C_3  and  N_4 
REMARK    3  A    between atoms: N_4  and  C_5 
REMARK    4  A    between atoms: C_5  and  N_6 
REMARK    5  A    between atoms: N_6  and  N_7 
REMARK       I    between atoms: N_7  and  C_8 
REMARK    6  A    between atoms: C_8  and  C_9 
REMARK    7  A    between atoms: C_9  and  C_10 
REMARK    8  A    between atoms: C_10  and  C_11 
REMARK    9  A    between atoms: C_13  and  O_14 
REMARK   10  A    between atoms: C_15  and  O_16 
ROOT
HETATM    1  N   UNL     1      44.613 -13.233   8.457  1.00  0.00    -0.268 N 
HETATM    2  C   UNL     1      45.558 -12.304   8.845  1.00  0.00     0.236 C 
HETATM    3  O   UNL     1      46.493 -11.951   8.127  1.00  0.00    -0.272 OA
HETATM    4  H   UNL     1      43.689 -13.256   8.881  1.00  0.00     0.190 HD
ENDROOT
BRANCH   1   5
HETATM    5  N   UNL     1      44.706 -13.726   7.142  1.00  0.00    -0.274 N 
HETATM    6  H   UNL     1      45.364 -13.190   6.576  1.00  0.00     0.189 HD
BRANCH   5   7
HETATM    7  C   UNL     1      43.582 -14.188   6.500  1.00  0.00     0.186 C 
HETATM    8  S   UNL     1      42.599 -13.279   5.496  1.00  0.00    -0.040 SA
BRANCH   7   9
HETATM    9  N   UNL     1      43.241 -15.485   6.744  1.00  0.00    -0.362 N 
HETATM   10  H   UNL     1      42.254 -15.640   6.911  1.00  0.00     0.162 HD
BRANCH   9  11
HETATM   11  C   UNL     1      44.119 -16.631   6.910  1.00  0.00     0.160 C 
BRANCH  11  12
HETATM   12  C   UNL     1      44.076 -17.626   5.774  1.00  0.00    -0.040 A 
HETATM   13  C   UNL     1      43.402 -17.384   4.566  1.00  0.00     0.010 A 
HETATM   14  C   UNL     1      43.448 -18.313   3.522  1.00  0.00     0.024 A 
HETATM   15  C   UNL     1      44.168 -19.494   3.673  1.00  0.00     0.034 A 
HETATM   16  C   UNL     1      44.849 -19.752   4.859  1.00  0.00     0.024 A 
HETATM   17 CL   UNL     1      44.227 -20.633   2.386  1.00  0.00    -0.084 Cl
HETATM   18  C   UNL     1      44.808 -18.821   5.900  1.00  0.00     0.010 A 
ENDBRANCH  11  12
ENDBRANCH   9  11
ENDBRANCH   7   9
ENDBRANCH   5   7
ENDBRANCH   1   5
BRANCH   2  19
HETATM   19  C   UNL     1      45.383 -11.780  10.252  1.00  0.00     0.109 C 
BRANCH  19  20
HETATM   20  C   UNL     1      44.415 -10.596  10.321  1.00  0.00     0.048 C 
BRANCH  20  21
HETATM   21  C   UNL     1      43.058 -10.871  10.937  1.00  0.00    -0.055 A 
HETATM   22  C   UNL     1      41.879 -10.900  10.174  1.00  0.00     0.046 A 
HETATM   23  C   UNL     1      40.654 -11.115  10.800  1.00  0.00     0.099 A 
HETATM   24  C   UNL     1      40.592 -11.342  12.170  1.00  0.00     0.098 A 
HETATM   25  C   UNL     1      41.745 -11.356  12.937  1.00  0.00     0.040 A 
HETATM   26  C   UNL     1      42.977 -11.122  12.320  1.00  0.00     0.010 A 
BRANCH  23  27
HETATM   27  O   UNL     1      39.477 -11.095  10.103  1.00  0.00    -0.358 OA
HETATM   28  H   UNL     1      39.287 -12.005   9.814  1.00  0.00     0.218 HD
ENDBRANCH  23  27
BRANCH  24  29
HETATM   29  O   UNL     1      39.384 -11.546  12.773  1.00  0.00    -0.358 OA
HETATM   30  H   UNL     1      39.322 -10.829  13.437  1.00  0.00     0.218 HD
ENDBRANCH  24  29
ENDBRANCH  20  21
ENDBRANCH  19  20
ENDBRANCH   2  19
TORSDOF 10
ENDMDL
MODEL 7
REMARK VINA RESULT:      -6.8      3.153      4.635
REMARK  10 active torsions:
REMARK  status: ('A' for Active; 'I' for Inactive)
REMARK    1  A    between atoms: C_2  and  C_3 
REMARK    2  A    between atoms: C_3  and  N_4 
REMARK    3  A    between atoms: N_4  and  C_5 
REMARK    4  A    between atoms: C_5  and  N_6 
REMARK    5  A    between atoms: N_6  and  N_7 
REMARK       I    between atoms: N_7  and  C_8 
REMARK    6  A    between atoms: C_8  and  C_9 
REMARK    7  A    between atoms: C_9  and  C_10 
REMARK    8  A    between atoms: C_10  and  C_11 
REMARK    9  A    between atoms: C_13  and  O_14 
REMARK   10  A    between atoms: C_15  and  O_16 
ROOT
HETATM    1  N   UNL     1      42.147 -15.430   5.692  1.00  0.00    -0.268 N 
HETATM    2  C   UNL     1      42.253 -16.762   5.341  1.00  0.00     0.236 C 
HETATM    3  O   UNL     1      41.309 -17.549   5.386  1.00  0.00    -0.272 OA
HETATM    4  H   UNL     1      42.796 -14.735   5.333  1.00  0.00     0.190 HD
ENDROOT
BRANCH   1   5
HETATM    5  N   UNL     1      40.865 -14.963   6.040  1.00  0.00    -0.274 N 
HETATM    6  H   UNL     1      40.262 -15.712   6.379  1.00  0.00     0.189 HD
BRANCH   5   7
HETATM    7  C   UNL     1      40.262 -13.986   5.284  1.00  0.00     0.186 C 
HETATM    8  S   UNL     1      39.467 -12.646   5.893  1.00  0.00    -0.040 SA
BRANCH   7   9
HETATM    9  N   UNL     1      40.299 -14.163   3.933  1.00  0.00    -0.362 N 
HETATM   10  H   UNL     1      40.689 -13.386   3.414  1.00  0.00     0.162 HD
BRANCH   9  11
HETATM   11  C   UNL     1      39.748 -15.258   3.154  1.00  0.00     0.160 C 
BRANCH  11  12
HETATM   12  C   UNL     1      40.082 -15.213   1.680  1.00  0.00    -0.040 A 
HETATM   13  C   UNL     1      39.565 -14.245   0.806  1.00  0.00     0.010 A 
HETATM   14  C   UNL     1      39.957 -14.209  -0.536  1.00  0.00     0.024 A 
HETATM   15  C   UNL     1      40.871 -15.141  -1.018  1.00  0.00     0.034 A 
HETATM   16  C   UNL     1      41.401 -16.106  -0.168  1.00  0.00     0.024 A 
HETATM   17 CL   UNL     1      41.355 -15.094  -2.668  1.00  0.00    -0.084 Cl
HETATM   18  C   UNL     1      41.013 -16.139   1.174  1.00  0.00     0.010 A 
ENDBRANCH  11  12
ENDBRANCH   9  11
ENDBRANCH   7   9
ENDBRANCH   5   7
ENDBRANCH   1   5
BRANCH   2  19
HETATM   19  C   UNL     1      43.644 -17.196   4.938  1.00  0.00     0.109 C 
BRANCH  19  20
HETATM   20  C   UNL     1      43.674 -17.859   3.558  1.00  0.00     0.048 C 
BRANCH  20  21
HETATM   21  C   UNL     1      44.021 -19.333   3.527  1.00  0.00    -0.055 A 
HETATM   22  C   UNL     1      43.913 -20.105   2.358  1.00  0.00     0.046 A 
HETATM   23  C   UNL     1      44.203 -21.466   2.398  1.00  0.00     0.099 A 
HETATM   24  C   UNL     1      44.641 -22.061   3.576  1.00  0.00     0.098 A 
HETATM   25  C   UNL     1      44.791 -21.312   4.731  1.00  0.00     0.040 A 
HETATM   26  C   UNL     1      44.484 -19.950   4.705  1.00  0.00     0.010 A 
BRANCH  23  27
HETATM   27  O   UNL     1      44.057 -22.265   1.296  1.00  0.00    -0.358 OA
HETATM   28  H   UNL     1      44.268 -21.730   0.511  1.00  0.00     0.218 HD
ENDBRANCH  23  27
BRANCH  24  29
HETATM   29  O   UNL     1      44.918 -23.397   3.603  1.00  0.00    -0.358 OA
HETATM   30  H   UNL     1      44.187 -23.784   4.127  1.00  0.00     0.218 HD
ENDBRANCH  24  29
ENDBRANCH  20  21
ENDBRANCH  19  20
ENDBRANCH   2  19
TORSDOF 10
ENDMDL
MODEL 8
REMARK VINA RESULT:      -6.8      2.500      4.257
REMARK  10 active torsions:
REMARK  status: ('A' for Active; 'I' for Inactive)
REMARK    1  A    between atoms: C_2  and  C_3 
REMARK    2  A    between atoms: C_3  and  N_4 
REMARK    3  A    between atoms: N_4  and  C_5 
REMARK    4  A    between atoms: C_5  and  N_6 
REMARK    5  A    between atoms: N_6  and  N_7 
REMARK       I    between atoms: N_7  and  C_8 
REMARK    6  A    between atoms: C_8  and  C_9 
REMARK    7  A    between atoms: C_9  and  C_10 
REMARK    8  A    between atoms: C_10  and  C_11 
REMARK    9  A    between atoms: C_13  and  O_14 
REMARK   10  A    between atoms: C_15  and  O_16 
ROOT
HETATM    1  N   UNL     1      39.576 -14.996   3.105  1.00  0.00    -0.268 N 
HETATM    2  C   UNL     1      40.779 -14.815   3.759  1.00  0.00     0.236 C 
HETATM    3  O   UNL     1      41.552 -13.891   3.508  1.00  0.00    -0.272 OA
HETATM    4  H   UNL     1      38.814 -15.516   3.534  1.00  0.00     0.190 HD
ENDROOT
BRANCH   1   5
HETATM    5  N   UNL     1      39.208 -14.015   2.165  1.00  0.00    -0.274 N 
HETATM    6  H   UNL     1      38.449 -13.424   2.503  1.00  0.00     0.189 HD
BRANCH   5   7
HETATM    7  C   UNL     1      39.197 -14.318   0.825  1.00  0.00     0.186 C 
HETATM    8  S   UNL     1      38.248 -13.566  -0.329  1.00  0.00    -0.040 SA
BRANCH   7   9
HETATM    9  N   UNL     1      40.010 -15.341   0.434  1.00  0.00    -0.362 N 
HETATM   10  H   UNL     1      39.546 -16.236   0.331  1.00  0.00     0.162 HD
BRANCH   9  11
HETATM   11  C   UNL     1      41.452 -15.331   0.267  1.00  0.00     0.160 C 
BRANCH  11  12
HETATM   12  C   UNL     1      42.165 -16.518   0.871  1.00  0.00    -0.040 A 
HETATM   13  C   UNL     1      43.538 -16.522   1.163  1.00  0.00     0.010 A 
HETATM   14  C   UNL     1      44.136 -17.624   1.781  1.00  0.00     0.024 A 
HETATM   15  C   UNL     1      43.368 -18.735   2.116  1.00  0.00     0.034 A 
HETATM   16  C   UNL     1      42.004 -18.751   1.842  1.00  0.00     0.024 A 
HETATM   17 CL   UNL     1      44.104 -20.088   2.881  1.00  0.00    -0.084 Cl
HETATM   18  C   UNL     1      41.406 -17.647   1.228  1.00  0.00     0.010 A 
ENDBRANCH  11  12
ENDBRANCH   9  11
ENDBRANCH   7   9
ENDBRANCH   5   7
ENDBRANCH   1   5
BRANCH   2  19
HETATM   19  C   UNL     1      41.102 -15.877   4.786  1.00  0.00     0.109 C 
BRANCH  19  20
HETATM   20  C   UNL     1      42.598 -16.198   4.846  1.00  0.00     0.048 C 
BRANCH  20  21
HETATM   21  C   UNL     1      43.049 -17.092   5.983  1.00  0.00    -0.055 A 
HETATM   22  C   UNL     1      43.290 -18.466   5.807  1.00  0.00     0.046 A 
HETATM   23  C   UNL     1      43.661 -19.248   6.897  1.00  0.00     0.099 A 
HETATM   24  C   UNL     1      43.837 -18.674   8.151  1.00  0.00     0.098 A 
HETATM   25  C   UNL     1      43.644 -17.316   8.339  1.00  0.00     0.040 A 
HETATM   26  C   UNL     1      43.252 -16.526   7.256  1.00  0.00     0.010 A 
BRANCH  23  27
HETATM   27  O   UNL     1      43.849 -20.599   6.781  1.00  0.00    -0.358 OA
HETATM   28  H   UNL     1      42.974 -21.024   6.808  1.00  0.00     0.218 HD
ENDBRANCH  23  27
BRANCH  24  29
HETATM   29  O   UNL     1      44.196 -19.453   9.213  1.00  0.00    -0.358 OA
HETATM   30  H   UNL     1      43.769 -20.315   9.035  1.00  0.00     0.218 HD
ENDBRANCH  24  29
ENDBRANCH  20  21
ENDBRANCH  19  20
ENDBRANCH   2  19
TORSDOF 10
ENDMDL
MODEL 9
REMARK VINA RESULT:      -6.8      7.344     10.093
REMARK  10 active torsions:
REMARK  status: ('A' for Active; 'I' for Inactive)
REMARK    1  A    between atoms: C_2  and  C_3 
REMARK    2  A    between atoms: C_3  and  N_4 
REMARK    3  A    between atoms: N_4  and  C_5 
REMARK    4  A    between atoms: C_5  and  N_6 
REMARK    5  A    between atoms: N_6  and  N_7 
REMARK       I    between atoms: N_7  and  C_8 
REMARK    6  A    between atoms: C_8  and  C_9 
REMARK    7  A    between atoms: C_9  and  C_10 
REMARK    8  A    between atoms: C_10  and  C_11 
REMARK    9  A    between atoms: C_13  and  O_14 
REMARK   10  A    between atoms: C_15  and  O_16 
ROOT
HETATM    1  N   UNL     1      44.061 -12.890   8.245  1.00  0.00    -0.268 N 
HETATM    2  C   UNL     1      45.148 -12.347   8.902  1.00  0.00     0.236 C 
HETATM    3  O   UNL     1      46.305 -12.728   8.722  1.00  0.00    -0.272 OA
HETATM    4  H   UNL     1      43.198 -12.365   8.129  1.00  0.00     0.190 HD
ENDROOT
BRANCH   1   5
HETATM    5  N   UNL     1      44.330 -13.871   7.271  1.00  0.00    -0.274 N 
HETATM    6  H   UNL     1      45.271 -13.786   6.890  1.00  0.00     0.189 HD
BRANCH   5   7
HETATM    7  C   UNL     1      43.345 -14.253   6.392  1.00  0.00     0.186 C 
HETATM    8  S   UNL     1      42.450 -13.214   5.433  1.00  0.00    -0.040 SA
BRANCH   7   9
HETATM    9  N   UNL     1      43.070 -15.587   6.339  1.00  0.00    -0.362 N 
HETATM   10  H   UNL     1      42.108 -15.814   6.118  1.00  0.00     0.162 HD
BRANCH   9  11
HETATM   11  C   UNL     1      43.943 -16.699   6.673  1.00  0.00     0.160 C 
BRANCH  11  12
HETATM   12  C   UNL     1      44.081 -17.740   5.585  1.00  0.00    -0.040 A 
HETATM   13  C   UNL     1      44.820 -18.922   5.745  1.00  0.00     0.010 A 
HETATM   14  C   UNL     1      44.863 -19.882   4.728  1.00  0.00     0.024 A 
HETATM   15  C   UNL     1      44.166 -19.671   3.543  1.00  0.00     0.034 A 
HETATM   16  C   UNL     1      43.422 -18.509   3.366  1.00  0.00     0.024 A 
HETATM   17 CL   UNL     1      44.216 -20.855   2.296  1.00  0.00    -0.084 Cl
HETATM   18  C   UNL     1      43.375 -17.552   4.383  1.00  0.00     0.010 A 
ENDBRANCH  11  12
ENDBRANCH   9  11
ENDBRANCH   7   9
ENDBRANCH   5   7
ENDBRANCH   1   5
BRANCH   2  19
HETATM   19  C   UNL     1      44.803 -11.271   9.906  1.00  0.00     0.109 C 
BRANCH  19  20
HETATM   20  C   UNL     1      43.292 -11.079  10.062  1.00  0.00     0.048 C 
BRANCH  20  21
HETATM   21  C   UNL     1      42.796 -10.746  11.455  1.00  0.00    -0.055 A 
HETATM   22  C   UNL     1      43.482  -9.861  12.304  1.00  0.00     0.046 A 
HETATM   23  C   UNL     1      43.004  -9.626  13.590  1.00  0.00     0.099 A 
HETATM   24  C   UNL     1      41.828 -10.225  14.027  1.00  0.00     0.098 A 
HETATM   25  C   UNL     1      41.115 -11.070  13.194  1.00  0.00     0.040 A 
HETATM   26  C   UNL     1      41.598 -11.328  11.909  1.00  0.00     0.010 A 
BRANCH  23  27
HETATM   27  O   UNL     1      43.672  -8.816  14.469  1.00  0.00    -0.358 OA
HETATM   28  H   UNL     1      43.979  -9.370  15.208  1.00  0.00     0.218 HD
ENDBRANCH  23  27
BRANCH  24  29
HETATM   29  O   UNL     1      41.373  -9.990  15.292  1.00  0.00    -0.358 OA
HETATM   30  H   UNL     1      42.185  -9.840  15.817  1.00  0.00     0.218 HD
ENDBRANCH  24  29
ENDBRANCH  20  21
ENDBRANCH  19  20
ENDBRANCH   2  19
TORSDOF 10
ENDMDL
MODEL 10
REMARK VINA RESULT:      -6.7      2.198      3.081
REMARK  10 active torsions:
REMARK  status: ('A' for Active; 'I' for Inactive)
REMARK    1  A    between atoms: C_2  and  C_3 
REMARK    2  A    between atoms: C_3  and  N_4 
REMARK    3  A    between atoms: N_4  and  C_5 
REMARK    4  A    between atoms: C_5  and  N_6 
REMARK    5  A    between atoms: N_6  and  N_7 
REMARK       I    between atoms: N_7  and  C_8 
REMARK    6  A    between atoms: C_8  and  C_9 
REMARK    7  A    between atoms: C_9  and  C_10 
REMARK    8  A    between atoms: C_10  and  C_11 
REMARK    9  A    between atoms: C_13  and  O_14 
REMARK   10  A    between atoms: C_15  and  O_16 
ROOT
HETATM    1  N   UNL     1      42.101 -15.854   0.053  1.00  0.00    -0.268 N 
HETATM    2  C   UNL     1      42.258 -17.017   0.780  1.00  0.00     0.236 C 
HETATM    3  O   UNL     1      41.328 -17.778   1.046  1.00  0.00    -0.272 OA
HETATM    4  H   UNL     1      42.881 -15.435  -0.449  1.00  0.00     0.190 HD
ENDROOT
BRANCH   1   5
HETATM    5  N   UNL     1      40.817 -15.592  -0.462  1.00  0.00    -0.274 N 
HETATM    6  H   UNL     1      40.689 -15.986  -1.394  1.00  0.00     0.189 HD
BRANCH   5   7
HETATM    7  C   UNL     1      40.215 -14.381  -0.220  1.00  0.00     0.186 C 
HETATM    8  S   UNL     1      40.903 -12.884  -0.509  1.00  0.00    -0.040 SA
BRANCH   7   9
HETATM    9  N   UNL     1      38.969 -14.429   0.331  1.00  0.00    -0.362 N 
HETATM   10  H   UNL     1      38.235 -14.033  -0.244  1.00  0.00     0.162 HD
BRANCH   9  11
HETATM   11  C   UNL     1      38.591 -14.861   1.665  1.00  0.00     0.160 C 
BRANCH  11  12
HETATM   12  C   UNL     1      39.566 -14.475   2.752  1.00  0.00    -0.040 A 
HETATM   13  C   UNL     1      40.465 -15.382   3.335  1.00  0.00     0.010 A 
HETATM   14  C   UNL     1      41.391 -14.958   4.293  1.00  0.00     0.024 A 
HETATM   15  C   UNL     1      41.430 -13.621   4.678  1.00  0.00     0.034 A 
HETATM   16  C   UNL     1      40.553 -12.703   4.109  1.00  0.00     0.024 A 
HETATM   17 CL   UNL     1      42.573 -13.100   5.853  1.00  0.00    -0.084 Cl
HETATM   18  C   UNL     1      39.631 -13.126   3.149  1.00  0.00     0.010 A 
ENDBRANCH  11  12
ENDBRANCH   9  11
ENDBRANCH   7   9
ENDBRANCH   5   7
ENDBRANCH   1   5
BRANCH   2  19
HETATM   19  C   UNL     1      43.666 -17.266   1.272  1.00  0.00     0.109 C 
BRANCH  19  20
HETATM   20  C   UNL     1      43.913 -18.736   1.621  1.00  0.00     0.048 C 
BRANCH  20  21
HETATM   21  C   UNL     1      43.929 -19.084   3.096  1.00  0.00    -0.055 A 
HETATM   22  C   UNL     1      44.513 -20.267   3.581  1.00  0.00     0.046 A 
HETATM   23  C   UNL     1      44.460 -20.557   4.942  1.00  0.00     0.099 A 
HETATM   24  C   UNL     1      43.872 -19.665   5.832  1.00  0.00     0.098 A 
HETATM   25  C   UNL     1      43.325 -18.476   5.380  1.00  0.00     0.040 A 
HETATM   26  C   UNL     1      43.355 -18.185   4.015  1.00  0.00     0.010 A 
BRANCH  23  27
HETATM   27  O   UNL     1      44.966 -21.723   5.449  1.00  0.00    -0.358 OA
HETATM   28  H   UNL     1      44.593 -21.846   6.339  1.00  0.00     0.218 HD
ENDBRANCH  23  27
BRANCH  24  29
HETATM   29  O   UNL     1      43.822 -19.963   7.163  1.00  0.00    -0.358 OA
HETATM   30  H   UNL     1      43.756 -19.091   7.603  1.00  0.00     0.218 HD
ENDBRANCH  24  29
ENDBRANCH  20  21
ENDBRANCH  19  20
ENDBRANCH   2  19
TORSDOF 10
ENDMDL
