MODEL 1
REMARK VINA RESULT:      -7.8      0.000      0.000
REMARK  7 active torsions:
REMARK  status: ('A' for Active; 'I' for Inactive)
REMARK    1  A    between atoms: C_5  and  N_6 
REMARK    2  A    between atoms: N_6  and  C_9 
REMARK    3  A    between atoms: C_9  and  C_10 
REMARK    4  A    between atoms: C_10  and  C_11 
REMARK    5  A    between atoms: C_10  and  C_13 
REMARK    6  A    between atoms: C_11  and  O_12 
REMARK    7  A    between atoms: C_13  and  C_14 
ROOT
HETATM    1  N   UNL     1      44.527 -17.467   5.922  1.00  0.00    -0.066 N 
HETATM    2  H   UNL     1      44.925 -18.167   6.577  1.00  0.00     0.278 HD
HETATM    3  H   UNL     1      45.342 -17.019   5.459  1.00  0.00     0.278 HD
ENDROOT
BRANCH   1   4
HETATM    4  C   UNL     1      43.723 -18.194   4.919  1.00  0.00     0.220 C 
HETATM    5  C   UNL     1      44.085 -19.648   4.822  1.00  0.00    -0.021 A 
HETATM    6  C   UNL     1      44.151 -20.056   3.478  1.00  0.00    -0.040 A 
HETATM    7  C   UNL     1      44.314 -20.548   5.854  1.00  0.00     0.010 A 
HETATM    8  C   UNL     1      44.490 -21.363   3.135  1.00  0.00    -0.055 A 
HETATM    9  C   UNL     1      43.801 -18.916   2.559  1.00  0.00     0.018 C 
HETATM   10  C   UNL     1      44.554 -21.832   1.712  1.00  0.00     0.049 C 
HETATM   11  C   UNL     1      44.726 -22.266   4.183  1.00  0.00     0.007 A 
HETATM   12  C   UNL     1      44.639 -21.864   5.524  1.00  0.00     0.001 A 
HETATM   13  C   UNL     1      44.045 -17.713   3.492  1.00  0.00     0.047 C 
HETATM   14  C   UNL     1      42.358 -18.991   2.073  1.00  0.00     0.015 C 
ENDBRANCH   1   4
BRANCH   1  15
HETATM   15  C   UNL     1      43.857 -16.442   6.764  1.00  0.00     0.240 C 
BRANCH  15  16
HETATM   16  C   UNL     1      44.031 -15.038   6.146  1.00  0.00     0.040 C 
BRANCH  16  17
HETATM   17  C   UNL     1      44.834 -14.139   7.101  1.00  0.00     0.170 C 
BRANCH  17  18
HETATM   18  O   UNL     1      44.242 -14.186   8.400  1.00  0.00    -0.400 OA
HETATM   19  H   UNL     1      44.942 -13.914   9.032  1.00  0.00     0.209 HD
ENDBRANCH  17  18
ENDBRANCH  16  17
BRANCH  16  20
HETATM   20  C   UNL     1      42.706 -14.330   5.780  1.00  0.00     0.067 C 
BRANCH  20  21
HETATM   21  C   UNL     1      42.191 -14.695   4.415  1.00  0.00     0.034 A 
HETATM   22  N   UNL     1      42.847 -14.133   3.360  1.00  0.00    -0.266 NA
HETATM   23  C   UNL     1      42.395 -14.462   2.124  1.00  0.00     0.117 A 
HETATM   24  C   UNL     1      41.307 -15.287   1.891  1.00  0.00     0.019 A 
HETATM   25  C   UNL     1      40.642 -15.825   2.986  1.00  0.00     0.003 A 
HETATM   26  C   UNL     1      41.087 -15.528   4.270  1.00  0.00     0.027 A 
ENDBRANCH  20  21
ENDBRANCH  16  20
ENDBRANCH  15  16
ENDBRANCH   1  15
TORSDOF 7
ENDMDL
MODEL 2
REMARK VINA RESULT:      -7.5      2.880      4.813
REMARK  7 active torsions:
REMARK  status: ('A' for Active; 'I' for Inactive)
REMARK    1  A    between atoms: C_5  and  N_6 
REMARK    2  A    between atoms: N_6  and  C_9 
REMARK    3  A    between atoms: C_9  and  C_10 
REMARK    4  A    between atoms: C_10  and  C_11 
REMARK    5  A    between atoms: C_10  and  C_13 
REMARK    6  A    between atoms: C_11  and  O_12 
REMARK    7  A    between atoms: C_13  and  C_14 
ROOT
HETATM    1  N   UNL     1      41.412 -17.052   1.010  1.00  0.00    -0.066 N 
HETATM    2  H   UNL     1      41.209 -17.437   0.067  1.00  0.00     0.278 HD
HETATM    3  H   UNL     1      40.490 -16.807   1.419  1.00  0.00     0.278 HD
ENDROOT
BRANCH   1   4
HETATM    4  C   UNL     1      42.042 -18.122   1.808  1.00  0.00     0.220 C 
HETATM    5  C   UNL     1      42.111 -17.797   3.272  1.00  0.00    -0.021 A 
HETATM    6  C   UNL     1      43.365 -18.150   3.803  1.00  0.00    -0.040 A 
HETATM    7  C   UNL     1      41.123 -17.251   4.079  1.00  0.00     0.010 A 
HETATM    8  C   UNL     1      43.672 -17.925   5.142  1.00  0.00    -0.055 A 
HETATM    9  C   UNL     1      44.231 -18.779   2.743  1.00  0.00     0.018 C 
HETATM   10  C   UNL     1      44.995 -18.304   5.740  1.00  0.00     0.049 C 
HETATM   11  C   UNL     1      42.671 -17.367   5.950  1.00  0.00     0.007 A 
HETATM   12  C   UNL     1      41.413 -17.034   5.426  1.00  0.00     0.001 A 
HETATM   13  C   UNL     1      43.537 -18.266   1.466  1.00  0.00     0.047 C 
HETATM   14  C   UNL     1      44.235 -20.301   2.831  1.00  0.00     0.015 C 
ENDBRANCH   1   4
BRANCH   1  15
HETATM   15  C   UNL     1      42.165 -15.789   0.790  1.00  0.00     0.240 C 
BRANCH  15  16
HETATM   16  C   UNL     1      41.335 -14.577   1.261  1.00  0.00     0.040 C 
BRANCH  16  17
HETATM   17  C   UNL     1      40.446 -14.071   0.113  1.00  0.00     0.170 C 
BRANCH  17  18
HETATM   18  O   UNL     1      40.236 -15.130  -0.822  1.00  0.00    -0.400 OA
HETATM   19  H   UNL     1      41.072 -15.642  -0.852  1.00  0.00     0.209 HD
ENDBRANCH  17  18
ENDBRANCH  16  17
BRANCH  16  20
HETATM   20  C   UNL     1      42.173 -13.398   1.807  1.00  0.00     0.067 C 
BRANCH  20  21
HETATM   21  C   UNL     1      42.480 -13.513   3.276  1.00  0.00     0.034 A 
HETATM   22  N   UNL     1      41.493 -13.106   4.125  1.00  0.00    -0.266 NA
HETATM   23  C   UNL     1      41.757 -13.212   5.451  1.00  0.00     0.117 A 
HETATM   24  C   UNL     1      42.959 -13.667   5.967  1.00  0.00     0.019 A 
HETATM   25  C   UNL     1      43.956 -14.051   5.079  1.00  0.00     0.003 A 
HETATM   26  C   UNL     1      43.717 -13.976   3.710  1.00  0.00     0.027 A 
ENDBRANCH  20  21
ENDBRANCH  16  20
ENDBRANCH  15  16
ENDBRANCH   1  15
TORSDOF 7
ENDMDL
MODEL 3
REMARK VINA RESULT:      -7.4      2.961      4.532
REMARK  7 active torsions:
REMARK  status: ('A' for Active; 'I' for Inactive)
REMARK    1  A    between atoms: C_5  and  N_6 
REMARK    2  A    between atoms: N_6  and  C_9 
REMARK    3  A    between atoms: C_9  and  C_10 
REMARK    4  A    between atoms: C_10  and  C_11 
REMARK    5  A    between atoms: C_10  and  C_13 
REMARK    6  A    between atoms: C_11  and  O_12 
REMARK    7  A    between atoms: C_13  and  C_14 
ROOT
HETATM    1  N   UNL     1      41.775 -16.788   3.415  1.00  0.00    -0.066 N 
HETATM    2  H   UNL     1      41.687 -17.157   2.448  1.00  0.00     0.278 HD
HETATM    3  H   UNL     1      40.987 -17.204   3.948  1.00  0.00     0.278 HD
ENDROOT
BRANCH   1   4
HETATM    4  C   UNL     1      43.057 -17.270   3.966  1.00  0.00     0.220 C 
HETATM    5  C   UNL     1      43.495 -18.577   3.370  1.00  0.00    -0.021 A 
HETATM    6  C   UNL     1      43.983 -19.440   4.367  1.00  0.00    -0.040 A 
HETATM    7  C   UNL     1      43.484 -18.961   2.036  1.00  0.00     0.010 A 
HETATM    8  C   UNL     1      44.431 -20.722   4.057  1.00  0.00    -0.055 A 
HETATM    9  C   UNL     1      43.949 -18.768   5.715  1.00  0.00     0.018 C 
HETATM   10  C   UNL     1      44.971 -21.660   5.096  1.00  0.00     0.049 C 
HETATM   11  C   UNL     1      44.411 -21.105   2.708  1.00  0.00     0.007 A 
HETATM   12  C   UNL     1      43.944 -20.237   1.711  1.00  0.00     0.001 A 
HETATM   13  C   UNL     1      42.917 -17.654   5.450  1.00  0.00     0.047 C 
HETATM   14  C   UNL     1      45.311 -18.215   6.116  1.00  0.00     0.015 C 
ENDBRANCH   1   4
BRANCH   1  15
HETATM   15  C   UNL     1      41.545 -15.322   3.324  1.00  0.00     0.240 C 
BRANCH  15  16
HETATM   16  C   UNL     1      41.037 -14.942   1.917  1.00  0.00     0.040 C 
BRANCH  16  17
HETATM   17  C   UNL     1      39.502 -15.024   1.872  1.00  0.00     0.170 C 
BRANCH  17  18
HETATM   18  O   UNL     1      39.096 -16.376   2.093  1.00  0.00    -0.400 OA
HETATM   19  H   UNL     1      39.218 -16.844   1.240  1.00  0.00     0.209 HD
ENDBRANCH  17  18
ENDBRANCH  16  17
BRANCH  16  20
HETATM   20  C   UNL     1      41.621 -15.800   0.770  1.00  0.00     0.067 C 
BRANCH  20  21
HETATM   21  C   UNL     1      41.496 -15.153  -0.582  1.00  0.00     0.034 A 
HETATM   22  N   UNL     1      41.863 -13.841  -0.652  1.00  0.00    -0.266 NA
HETATM   23  C   UNL     1      41.760 -13.250  -1.868  1.00  0.00     0.117 A 
HETATM   24  C   UNL     1      41.280 -13.887  -3.001  1.00  0.00     0.019 A 
HETATM   25  C   UNL     1      40.891 -15.217  -2.895  1.00  0.00     0.003 A 
HETATM   26  C   UNL     1      40.999 -15.865  -1.668  1.00  0.00     0.027 A 
ENDBRANCH  20  21
ENDBRANCH  16  20
ENDBRANCH  15  16
ENDBRANCH   1  15
TORSDOF 7
ENDMDL
MODEL 4
REMARK VINA RESULT:      -7.4      2.595      4.297
REMARK  7 active torsions:
REMARK  status: ('A' for Active; 'I' for Inactive)
REMARK    1  A    between atoms: C_5  and  N_6 
REMARK    2  A    between atoms: N_6  and  C_9 
REMARK    3  A    between atoms: C_9  and  C_10 
REMARK    4  A    between atoms: C_10  and  C_11 
REMARK    5  A    between atoms: C_10  and  C_13 
REMARK    6  A    between atoms: C_11  and  O_12 
REMARK    7  A    between atoms: C_13  and  C_14 
ROOT
HETATM    1  N   UNL     1      41.910 -17.630   2.447  1.00  0.00    -0.066 N 
HETATM    2  H   UNL     1      41.427 -18.514   2.193  1.00  0.00     0.278 HD
HETATM    3  H   UNL     1      41.253 -17.118   3.068  1.00  0.00     0.278 HD
ENDROOT
BRANCH   1   4
HETATM    4  C   UNL     1      43.131 -17.983   3.196  1.00  0.00     0.220 C 
HETATM    5  C   UNL     1      43.589 -19.389   2.940  1.00  0.00    -0.021 A 
HETATM    6  C   UNL     1      43.975 -20.015   4.140  1.00  0.00    -0.040 A 
HETATM    7  C   UNL     1      43.680 -20.057   1.726  1.00  0.00     0.010 A 
HETATM    8  C   UNL     1      44.419 -21.334   4.157  1.00  0.00    -0.055 A 
HETATM    9  C   UNL     1      43.844 -19.063   5.300  1.00  0.00     0.018 C 
HETATM   10  C   UNL     1      44.852 -22.023   5.418  1.00  0.00     0.049 C 
HETATM   11  C   UNL     1      44.502 -22.004   2.927  1.00  0.00     0.007 A 
HETATM   12  C   UNL     1      44.137 -21.375   1.728  1.00  0.00     0.001 A 
HETATM   13  C   UNL     1      42.861 -18.031   4.712  1.00  0.00     0.047 C 
HETATM   14  C   UNL     1      45.180 -18.439   5.685  1.00  0.00     0.015 C 
ENDBRANCH   1   4
BRANCH   1  15
HETATM   15  C   UNL     1      42.046 -16.854   1.186  1.00  0.00     0.240 C 
BRANCH  15  16
HETATM   16  C   UNL     1      41.342 -15.487   1.315  1.00  0.00     0.040 C 
BRANCH  16  17
HETATM   17  C   UNL     1      40.714 -15.090  -0.031  1.00  0.00     0.170 C 
BRANCH  17  18
HETATM   18  O   UNL     1      40.863 -16.169  -0.956  1.00  0.00    -0.400 OA
HETATM   19  H   UNL     1      40.093 -16.760  -0.817  1.00  0.00     0.209 HD
ENDBRANCH  17  18
ENDBRANCH  16  17
BRANCH  16  20
HETATM   20  C   UNL     1      42.255 -14.338   1.804  1.00  0.00     0.067 C 
BRANCH  20  21
HETATM   21  C   UNL     1      42.482 -14.349   3.292  1.00  0.00     0.034 A 
HETATM   22  N   UNL     1      41.412 -14.711   4.056  1.00  0.00    -0.266 NA
HETATM   23  C   UNL     1      41.609 -14.730   5.398  1.00  0.00     0.117 A 
HETATM   24  C   UNL     1      42.798 -14.374   6.011  1.00  0.00     0.019 A 
HETATM   25  C   UNL     1      43.864 -13.985   5.209  1.00  0.00     0.003 A 
HETATM   26  C   UNL     1      43.709 -13.971   3.826  1.00  0.00     0.027 A 
ENDBRANCH  20  21
ENDBRANCH  16  20
ENDBRANCH  15  16
ENDBRANCH   1  15
TORSDOF 7
ENDMDL
MODEL 5
REMARK VINA RESULT:      -7.3      3.323      5.437
REMARK  7 active torsions:
REMARK  status: ('A' for Active; 'I' for Inactive)
REMARK    1  A    between atoms: C_5  and  N_6 
REMARK    2  A    between atoms: N_6  and  C_9 
REMARK    3  A    between atoms: C_9  and  C_10 
REMARK    4  A    between atoms: C_10  and  C_11 
REMARK    5  A    between atoms: C_10  and  C_13 
REMARK    6  A    between atoms: C_11  and  O_12 
REMARK    7  A    between atoms: C_13  and  C_14 
ROOT
HETATM    1  N   UNL     1      43.672 -14.155   7.316  1.00  0.00    -0.066 N 
HETATM    2  H   UNL     1      43.195 -13.235   7.254  1.00  0.00     0.278 HD
HETATM    3  H   UNL     1      43.550 -14.470   8.298  1.00  0.00     0.278 HD
ENDROOT
BRANCH   1   4
HETATM    4  C   UNL     1      42.975 -15.085   6.406  1.00  0.00     0.220 C 
HETATM    5  C   UNL     1      43.368 -16.518   6.620  1.00  0.00    -0.021 A 
HETATM    6  C   UNL     1      43.563 -17.171   5.389  1.00  0.00    -0.040 A 
HETATM    7  C   UNL     1      43.517 -17.199   7.820  1.00  0.00     0.010 A 
HETATM    8  C   UNL     1      43.952 -18.507   5.334  1.00  0.00    -0.055 A 
HETATM    9  C   UNL     1      43.278 -16.237   4.243  1.00  0.00     0.018 C 
HETATM   10  C   UNL     1      44.153 -19.234   4.037  1.00  0.00     0.049 C 
HETATM   11  C   UNL     1      44.107 -19.186   6.551  1.00  0.00     0.007 A 
HETATM   12  C   UNL     1      43.892 -18.542   7.778  1.00  0.00     0.001 A 
HETATM   13  C   UNL     1      43.417 -14.873   4.946  1.00  0.00     0.047 C 
HETATM   14  C   UNL     1      41.887 -16.451   3.658  1.00  0.00     0.015 C 
ENDBRANCH   1   4
BRANCH   1  15
HETATM   15  C   UNL     1      45.117 -13.890   7.094  1.00  0.00     0.240 C 
BRANCH  15  16
HETATM   16  C   UNL     1      45.549 -12.604   7.830  1.00  0.00     0.040 C 
BRANCH  16  17
HETATM   17  C   UNL     1      47.037 -12.321   7.563  1.00  0.00     0.170 C 
BRANCH  17  18
HETATM   18  O   UNL     1      47.326 -10.964   7.905  1.00  0.00    -0.400 OA
HETATM   19  H   UNL     1      48.120 -10.987   8.481  1.00  0.00     0.209 HD
ENDBRANCH  17  18
ENDBRANCH  16  17
BRANCH  16  20
HETATM   20  C   UNL     1      45.306 -12.626   9.357  1.00  0.00     0.067 C 
BRANCH  20  21
HETATM   21  C   UNL     1      44.340 -11.570   9.822  1.00  0.00     0.034 A 
HETATM   22  N   UNL     1      43.405 -11.175   8.912  1.00  0.00    -0.266 NA
HETATM   23  C   UNL     1      42.524 -10.229   9.324  1.00  0.00     0.117 A 
HETATM   24  C   UNL     1      42.554  -9.636  10.575  1.00  0.00     0.019 A 
HETATM   25  C   UNL     1      43.534 -10.040  11.474  1.00  0.00     0.003 A 
HETATM   26  C   UNL     1      44.444 -11.023  11.097  1.00  0.00     0.027 A 
ENDBRANCH  20  21
ENDBRANCH  16  20
ENDBRANCH  15  16
ENDBRANCH   1  15
TORSDOF 7
ENDMDL
MODEL 6
REMARK VINA RESULT:      -7.2      2.308      6.326
REMARK  7 active torsions:
REMARK  status: ('A' for Active; 'I' for Inactive)
REMARK    1  A    between atoms: C_5  and  N_6 
REMARK    2  A    between atoms: N_6  and  C_9 
REMARK    3  A    between atoms: C_9  and  C_10 
REMARK    4  A    between atoms: C_10  and  C_11 
REMARK    5  A    between atoms: C_10  and  C_13 
REMARK    6  A    between atoms: C_11  and  O_12 
REMARK    7  A    between atoms: C_13  and  C_14 
ROOT
HETATM    1  N   UNL     1      42.220 -16.910   5.696  1.00  0.00    -0.066 N 
HETATM    2  H   UNL     1      41.972 -16.074   6.259  1.00  0.00     0.278 HD
HETATM    3  H   UNL     1      41.510 -17.630   5.932  1.00  0.00     0.278 HD
ENDROOT
BRANCH   1   4
HETATM    4  C   UNL     1      42.102 -16.543   4.271  1.00  0.00     0.220 C 
HETATM    5  C   UNL     1      41.289 -15.300   4.052  1.00  0.00    -0.021 A 
HETATM    6  C   UNL     1      40.410 -15.463   2.966  1.00  0.00    -0.040 A 
HETATM    7  C   UNL     1      41.345 -14.102   4.751  1.00  0.00     0.010 A 
HETATM    8  C   UNL     1      39.538 -14.447   2.583  1.00  0.00    -0.055 A 
HETATM    9  C   UNL     1      40.587 -16.821   2.340  1.00  0.00     0.018 C 
HETATM   10  C   UNL     1      38.600 -14.587   1.421  1.00  0.00     0.049 C 
HETATM   11  C   UNL     1      39.596 -13.242   3.298  1.00  0.00     0.007 A 
HETATM   12  C   UNL     1      40.487 -13.071   4.367  1.00  0.00     0.001 A 
HETATM   13  C   UNL     1      41.268 -17.581   3.495  1.00  0.00     0.047 C 
HETATM   14  C   UNL     1      41.455 -16.769   1.088  1.00  0.00     0.015 C 
ENDBRANCH   1   4
BRANCH   1  15
HETATM   15  C   UNL     1      43.536 -17.378   6.204  1.00  0.00     0.240 C 
BRANCH  15  16
HETATM   16  C   UNL     1      43.673 -18.905   6.020  1.00  0.00     0.040 C 
BRANCH  16  17
HETATM   17  C   UNL     1      43.719 -19.597   7.393  1.00  0.00     0.170 C 
BRANCH  17  18
HETATM   18  O   UNL     1      43.619 -21.011   7.210  1.00  0.00    -0.400 OA
HETATM   19  H   UNL     1      43.276 -21.374   8.054  1.00  0.00     0.209 HD
ENDBRANCH  17  18
ENDBRANCH  16  17
BRANCH  16  20
HETATM   20  C   UNL     1      44.902 -19.344   5.192  1.00  0.00     0.067 C 
BRANCH  20  21
HETATM   21  C   UNL     1      44.549 -20.214   4.016  1.00  0.00     0.034 A 
HETATM   22  N   UNL     1      44.790 -21.548   4.168  1.00  0.00    -0.266 NA
HETATM   23  C   UNL     1      44.469 -22.342   3.116  1.00  0.00     0.117 A 
HETATM   24  C   UNL     1      43.959 -21.872   1.918  1.00  0.00     0.019 A 
HETATM   25  C   UNL     1      43.748 -20.505   1.782  1.00  0.00     0.003 A 
HETATM   26  C   UNL     1      44.045 -19.659   2.845  1.00  0.00     0.027 A 
ENDBRANCH  20  21
ENDBRANCH  16  20
ENDBRANCH  15  16
ENDBRANCH   1  15
TORSDOF 7
ENDMDL
MODEL 7
REMARK VINA RESULT:      -7.1      1.850      5.785
REMARK  7 active torsions:
REMARK  status: ('A' for Active; 'I' for Inactive)
REMARK    1  A    between atoms: C_5  and  N_6 
REMARK    2  A    between atoms: N_6  and  C_9 
REMARK    3  A    between atoms: C_9  and  C_10 
REMARK    4  A    between atoms: C_10  and  C_11 
REMARK    5  A    between atoms: C_10  and  C_13 
REMARK    6  A    between atoms: C_11  and  O_12 
REMARK    7  A    between atoms: C_13  and  C_14 
ROOT
HETATM    1  N   UNL     1      42.197 -16.825   6.570  1.00  0.00    -0.066 N 
HETATM    2  H   UNL     1      42.185 -16.593   7.582  1.00  0.00     0.278 HD
HETATM    3  H   UNL     1      41.603 -17.671   6.468  1.00  0.00     0.278 HD
ENDROOT
BRANCH   1   4
HETATM    4  C   UNL     1      41.585 -15.697   5.841  1.00  0.00     0.220 C 
HETATM    5  C   UNL     1      41.449 -15.956   4.369  1.00  0.00    -0.021 A 
HETATM    6  C   UNL     1      41.825 -14.822   3.626  1.00  0.00    -0.040 A 
HETATM    7  C   UNL     1      41.000 -17.107   3.736  1.00  0.00     0.010 A 
HETATM    8  C   UNL     1      41.800 -14.829   2.234  1.00  0.00    -0.055 A 
HETATM    9  C   UNL     1      42.209 -13.691   4.544  1.00  0.00     0.018 C 
HETATM   10  C   UNL     1      42.180 -13.631   1.415  1.00  0.00     0.049 C 
HETATM   11  C   UNL     1      41.351 -15.998   1.601  1.00  0.00     0.007 A 
HETATM   12  C   UNL     1      40.957 -17.122   2.342  1.00  0.00     0.001 A 
HETATM   13  C   UNL     1      42.511 -14.466   5.841  1.00  0.00     0.047 C 
HETATM   14  C   UNL     1      41.079 -12.683   4.719  1.00  0.00     0.015 C 
ENDBRANCH   1   4
BRANCH   1  15
HETATM   15  C   UNL     1      43.597 -17.207   6.248  1.00  0.00     0.240 C 
BRANCH  15  16
HETATM   16  C   UNL     1      43.709 -18.735   6.055  1.00  0.00     0.040 C 
BRANCH  16  17
HETATM   17  C   UNL     1      43.812 -19.430   7.422  1.00  0.00     0.170 C 
BRANCH  17  18
HETATM   18  O   UNL     1      43.710 -18.451   8.458  1.00  0.00    -0.400 OA
HETATM   19  H   UNL     1      44.322 -17.725   8.212  1.00  0.00     0.209 HD
ENDBRANCH  17  18
ENDBRANCH  16  17
BRANCH  16  20
HETATM   20  C   UNL     1      44.893 -19.185   5.168  1.00  0.00     0.067 C 
BRANCH  20  21
HETATM   21  C   UNL     1      44.472 -20.017   3.987  1.00  0.00     0.034 A 
HETATM   22  N   UNL     1      44.836 -21.330   4.023  1.00  0.00    -0.266 NA
HETATM   23  C   UNL     1      44.456 -22.091   2.966  1.00  0.00     0.117 A 
HETATM   24  C   UNL     1      43.767 -21.602   1.869  1.00  0.00     0.019 A 
HETATM   25  C   UNL     1      43.431 -20.254   1.848  1.00  0.00     0.003 A 
HETATM   26  C   UNL     1      43.786 -19.444   2.922  1.00  0.00     0.027 A 
ENDBRANCH  20  21
ENDBRANCH  16  20
ENDBRANCH  15  16
ENDBRANCH   1  15
TORSDOF 7
ENDMDL
MODEL 8
REMARK VINA RESULT:      -7.0      3.285      5.109
REMARK  7 active torsions:
REMARK  status: ('A' for Active; 'I' for Inactive)
REMARK    1  A    between atoms: C_5  and  N_6 
REMARK    2  A    between atoms: N_6  and  C_9 
REMARK    3  A    between atoms: C_9  and  C_10 
REMARK    4  A    between atoms: C_10  and  C_11 
REMARK    5  A    between atoms: C_10  and  C_13 
REMARK    6  A    between atoms: C_11  and  O_12 
REMARK    7  A    between atoms: C_13  and  C_14 
ROOT
HETATM    1  N   UNL     1      41.429 -16.442   1.115  1.00  0.00    -0.066 N 
HETATM    2  H   UNL     1      41.434 -16.498   0.078  1.00  0.00     0.278 HD
HETATM    3  H   UNL     1      40.434 -16.314   1.385  1.00  0.00     0.278 HD
ENDROOT
BRANCH   1   4
HETATM    4  C   UNL     1      41.925 -17.729   1.639  1.00  0.00     0.220 C 
HETATM    5  C   UNL     1      42.046 -17.745   3.135  1.00  0.00    -0.021 A 
HETATM    6  C   UNL     1      43.249 -18.356   3.532  1.00  0.00    -0.040 A 
HETATM    7  C   UNL     1      41.140 -17.273   4.076  1.00  0.00     0.010 A 
HETATM    8  C   UNL     1      43.593 -18.469   4.877  1.00  0.00    -0.055 A 
HETATM    9  C   UNL     1      44.021 -18.837   2.331  1.00  0.00     0.018 C 
HETATM   10  C   UNL     1      44.861 -19.129   5.331  1.00  0.00     0.049 C 
HETATM   11  C   UNL     1      42.676 -17.985   5.822  1.00  0.00     0.007 A 
HETATM   12  C   UNL     1      41.466 -17.395   5.427  1.00  0.00     0.001 A 
HETATM   13  C   UNL     1      43.387 -17.975   1.222  1.00  0.00     0.047 C 
HETATM   14  C   UNL     1      43.833 -20.329   2.087  1.00  0.00     0.015 C 
ENDBRANCH   1   4
BRANCH   1  15
HETATM   15  C   UNL     1      42.163 -15.198   1.468  1.00  0.00     0.240 C 
BRANCH  15  16
HETATM   16  C   UNL     1      41.708 -14.030   0.567  1.00  0.00     0.040 C 
BRANCH  16  17
HETATM   17  C   UNL     1      42.060 -12.688   1.231  1.00  0.00     0.170 C 
BRANCH  17  18
HETATM   18  O   UNL     1      42.891 -12.929   2.368  1.00  0.00    -0.400 OA
HETATM   19  H   UNL     1      43.817 -12.863   2.052  1.00  0.00     0.209 HD
ENDBRANCH  17  18
ENDBRANCH  16  17
BRANCH  16  20
HETATM   20  C   UNL     1      40.203 -14.039   0.215  1.00  0.00     0.067 C 
BRANCH  20  21
HETATM   21  C   UNL     1      39.924 -14.464  -1.201  1.00  0.00     0.034 A 
HETATM   22  N   UNL     1      40.838 -15.307  -1.761  1.00  0.00    -0.266 NA
HETATM   23  C   UNL     1      40.593 -15.702  -3.035  1.00  0.00     0.117 A 
HETATM   24  C   UNL     1      39.510 -15.274  -3.784  1.00  0.00     0.019 A 
HETATM   25  C   UNL     1      38.607 -14.395  -3.196  1.00  0.00     0.003 A 
HETATM   26  C   UNL     1      38.813 -13.981  -1.884  1.00  0.00     0.027 A 
ENDBRANCH  20  21
ENDBRANCH  16  20
ENDBRANCH  15  16
ENDBRANCH   1  15
TORSDOF 7
ENDMDL
MODEL 9
REMARK VINA RESULT:      -7.0      1.977      3.615
REMARK  7 active torsions:
REMARK  status: ('A' for Active; 'I' for Inactive)
REMARK    1  A    between atoms: C_5  and  N_6 
REMARK    2  A    between atoms: N_6  and  C_9 
REMARK    3  A    between atoms: C_9  and  C_10 
REMARK    4  A    between atoms: C_10  and  C_11 
REMARK    5  A    between atoms: C_10  and  C_13 
REMARK    6  A    between atoms: C_11  and  O_12 
REMARK    7  A    between atoms: C_13  and  C_14 
ROOT
HETATM    1  N   UNL     1      41.934 -15.991   4.364  1.00  0.00    -0.066 N 
HETATM    2  H   UNL     1      41.524 -16.530   3.577  1.00  0.00     0.278 HD
HETATM    3  H   UNL     1      41.256 -16.073   5.146  1.00  0.00     0.278 HD
ENDROOT
BRANCH   1   4
HETATM    4  C   UNL     1      43.206 -16.639   4.739  1.00  0.00     0.220 C 
HETATM    5  C   UNL     1      43.567 -17.785   3.839  1.00  0.00    -0.021 A 
HETATM    6  C   UNL     1      44.040 -18.877   4.587  1.00  0.00    -0.040 A 
HETATM    7  C   UNL     1      43.502 -17.843   2.453  1.00  0.00     0.010 A 
HETATM    8  C   UNL     1      44.419 -20.067   3.970  1.00  0.00    -0.055 A 
HETATM    9  C   UNL     1      44.073 -18.540   6.055  1.00  0.00     0.018 C 
HETATM   10  C   UNL     1      44.942 -21.243   4.740  1.00  0.00     0.049 C 
HETATM   11  C   UNL     1      44.346 -20.121   2.570  1.00  0.00     0.007 A 
HETATM   12  C   UNL     1      43.893 -19.024   1.822  1.00  0.00     0.001 A 
HETATM   13  C   UNL     1      43.088 -17.356   6.097  1.00  0.00     0.047 C 
HETATM   14  C   UNL     1      45.470 -18.151   6.524  1.00  0.00     0.015 C 
ENDBRANCH   1   4
BRANCH   1  15
HETATM   15  C   UNL     1      41.960 -14.570   3.926  1.00  0.00     0.240 C 
BRANCH  15  16
HETATM   16  C   UNL     1      40.526 -14.007   3.839  1.00  0.00     0.040 C 
BRANCH  16  17
HETATM   17  C   UNL     1      39.842 -14.094   5.214  1.00  0.00     0.170 C 
BRANCH  17  18
HETATM   18  O   UNL     1      40.826 -13.941   6.239  1.00  0.00    -0.400 OA
HETATM   19  H   UNL     1      41.600 -14.475   5.960  1.00  0.00     0.209 HD
ENDBRANCH  17  18
ENDBRANCH  16  17
BRANCH  16  20
HETATM   20  C   UNL     1      39.628 -14.695   2.785  1.00  0.00     0.067 C 
BRANCH  20  21
HETATM   21  C   UNL     1      40.246 -14.742   1.414  1.00  0.00     0.034 A 
HETATM   22  N   UNL     1      40.189 -13.585   0.695  1.00  0.00    -0.266 NA
HETATM   23  C   UNL     1      40.749 -13.614  -0.540  1.00  0.00     0.117 A 
HETATM   24  C   UNL     1      41.326 -14.740  -1.102  1.00  0.00     0.019 A 
HETATM   25  C   UNL     1      41.347 -15.913  -0.356  1.00  0.00     0.003 A 
HETATM   26  C   UNL     1      40.801 -15.919   0.923  1.00  0.00     0.027 A 
ENDBRANCH  20  21
ENDBRANCH  16  20
ENDBRANCH  15  16
ENDBRANCH   1  15
TORSDOF 7
ENDMDL
MODEL 10
REMARK VINA RESULT:      -6.9      2.580      4.034
REMARK  7 active torsions:
REMARK  status: ('A' for Active; 'I' for Inactive)
REMARK    1  A    between atoms: C_5  and  N_6 
REMARK    2  A    between atoms: N_6  and  C_9 
REMARK    3  A    between atoms: C_9  and  C_10 
REMARK    4  A    between atoms: C_10  and  C_11 
REMARK    5  A    between atoms: C_10  and  C_13 
REMARK    6  A    between atoms: C_11  and  O_12 
REMARK    7  A    between atoms: C_13  and  C_14 
ROOT
HETATM    1  N   UNL     1      42.204 -17.262   2.843  1.00  0.00    -0.066 N 
HETATM    2  H   UNL     1      42.455 -16.386   2.346  1.00  0.00     0.278 HD
HETATM    3  H   UNL     1      41.921 -17.934   2.103  1.00  0.00     0.278 HD
ENDROOT
BRANCH   1   4
HETATM    4  C   UNL     1      43.416 -17.756   3.526  1.00  0.00     0.220 C 
HETATM    5  C   UNL     1      43.764 -19.167   3.152  1.00  0.00    -0.021 A 
HETATM    6  C   UNL     1      44.135 -19.907   4.290  1.00  0.00    -0.040 A 
HETATM    7  C   UNL     1      43.776 -19.745   1.890  1.00  0.00     0.010 A 
HETATM    8  C   UNL     1      44.484 -21.252   4.196  1.00  0.00    -0.055 A 
HETATM    9  C   UNL     1      44.103 -19.039   5.521  1.00  0.00     0.018 C 
HETATM   10  C   UNL     1      44.898 -22.062   5.388  1.00  0.00     0.049 C 
HETATM   11  C   UNL     1      44.487 -21.831   2.918  1.00  0.00     0.007 A 
HETATM   12  C   UNL     1      44.138 -21.088   1.781  1.00  0.00     0.001 A 
HETATM   13  C   UNL     1      43.182 -17.900   5.041  1.00  0.00     0.047 C 
HETATM   14  C   UNL     1      45.490 -18.541   5.910  1.00  0.00     0.015 C 
ENDBRANCH   1   4
BRANCH   1  15
HETATM   15  C   UNL     1      41.003 -16.948   3.660  1.00  0.00     0.240 C 
BRANCH  15  16
HETATM   16  C   UNL     1      40.614 -15.463   3.498  1.00  0.00     0.040 C 
BRANCH  16  17
HETATM   17  C   UNL     1      40.331 -15.153   2.019  1.00  0.00     0.170 C 
BRANCH  17  18
HETATM   18  O   UNL     1      39.950 -16.356   1.350  1.00  0.00    -0.400 OA
HETATM   19  H   UNL     1      39.145 -16.682   1.805  1.00  0.00     0.209 HD
ENDBRANCH  17  18
ENDBRANCH  16  17
BRANCH  16  20
HETATM   20  C   UNL     1      41.665 -14.462   4.031  1.00  0.00     0.067 C 
BRANCH  20  21
HETATM   21  C   UNL     1      41.106 -13.485   5.030  1.00  0.00     0.034 A 
HETATM   22  N   UNL     1      41.992 -12.585   5.544  1.00  0.00    -0.266 NA
HETATM   23  C   UNL     1      41.497 -11.695   6.439  1.00  0.00     0.117 A 
HETATM   24  C   UNL     1      40.181 -11.682   6.871  1.00  0.00     0.019 A 
HETATM   25  C   UNL     1      39.306 -12.627   6.349  1.00  0.00     0.003 A 
HETATM   26  C   UNL     1      39.770 -13.545   5.413  1.00  0.00     0.027 A 
ENDBRANCH  20  21
ENDBRANCH  16  20
ENDBRANCH  15  16
ENDBRANCH   1  15
TORSDOF 7
ENDMDL
