MODEL 1
REMARK VINA RESULT:      -7.8      0.000      0.000
REMARK  4 active torsions:
REMARK  status: ('A' for Active; 'I' for Inactive)
REMARK    1  A    between atoms: C_7  and  C_8 
REMARK    2  A    between atoms: C_8  and  N_9 
REMARK    3  A    between atoms: N_15  and  C_17 
REMARK    4  A    between atoms: C_21  and  C_22 
ROOT
HETATM    1  N   UNL     1      43.206 -16.910   3.512  1.00  0.00    -0.067 N 
HETATM    2  H   UNL     1      43.822 -17.102   4.316  1.00  0.00     0.280 HD
HETATM    3  C   UNL     1      43.274 -15.427   3.295  1.00  0.00     0.236 C 
HETATM    4  C   UNL     1      42.269 -14.986   2.232  1.00  0.00     0.039 C 
HETATM    5  C   UNL     1      40.802 -15.425   2.502  1.00  0.00    -0.013 C 
HETATM    6  C   UNL     1      40.149 -14.611   3.649  1.00  0.00     0.245 C 
HETATM    7  N   UNL     1      39.887 -13.183   3.234  1.00  0.00    -0.065 N 
HETATM    8  H   UNL     1      40.769 -12.730   2.958  1.00  0.00     0.280 HD
HETATM    9  C   UNL     1      38.953 -13.090   2.030  1.00  0.00     0.244 C 
HETATM   10  C   UNL     1      39.576 -13.804   0.816  1.00  0.00     0.045 C 
HETATM   11  C   UNL     1      39.918 -15.260   1.226  1.00  0.00     0.022 C 
HETATM   12  C   UNL     1      40.806 -16.945   2.859  1.00  0.00     0.039 C 
HETATM   13  C   UNL     1      41.836 -17.370   3.906  1.00  0.00     0.236 C 
ENDROOT
BRANCH   7  14
HETATM   14  C   UNL     1      39.336 -12.378   4.376  1.00  0.00     0.188 A 
HETATM   15  C   UNL     1      40.041 -11.092   4.702  1.00  0.00     0.035 A 
HETATM   16  C   UNL     1      38.694 -11.064   4.039  1.00  0.00     0.035 A 
ENDBRANCH   7  14
BRANCH  10  17
HETATM   17  C   UNL     1      40.724 -13.086   0.110  1.00  0.00    -0.052 A 
HETATM   18  C   UNL     1      41.254 -11.855   0.531  1.00  0.00     0.007 A 
HETATM   19  C   UNL     1      42.312 -11.251  -0.157  1.00  0.00     0.001 A 
HETATM   20  C   UNL     1      42.844 -11.847  -1.295  1.00  0.00     0.000 A 
HETATM   21  C   UNL     1      42.301 -13.037  -1.762  1.00  0.00     0.001 A 
HETATM   22  C   UNL     1      41.246 -13.642  -1.075  1.00  0.00     0.007 A 
ENDBRANCH  10  17
BRANCH   1  23
HETATM   23  C   UNL     1      43.848 -17.755   2.412  1.00  0.00     0.277 C 
BRANCH  23  24
HETATM   24  C   UNL     1      44.058 -19.156   2.843  1.00  0.00     0.011 A 
HETATM   25  C   UNL     1      44.539 -19.645   4.052  1.00  0.00     0.035 A 
HETATM   26  C   UNL     1      44.929 -18.957   5.312  1.00  0.00     0.070 C 
HETATM   27  N   UNL     1      44.578 -21.015   3.913  1.00  0.00    -0.278 N 
HETATM   28  C   UNL     1      44.987 -22.014   4.875  1.00  0.00     0.179 C 
HETATM   29  N   UNL     1      44.177 -21.424   2.698  1.00  0.00    -0.185 NA
HETATM   30  C   UNL     1      43.809 -20.313   2.072  1.00  0.00     0.149 A 
ENDBRANCH  23  24
ENDBRANCH   1  23
TORSDOF 4
ENDMDL
MODEL 2
REMARK VINA RESULT:      -7.8      2.763      7.548
REMARK  4 active torsions:
REMARK  status: ('A' for Active; 'I' for Inactive)
REMARK    1  A    between atoms: C_7  and  C_8 
REMARK    2  A    between atoms: C_8  and  N_9 
REMARK    3  A    between atoms: N_15  and  C_17 
REMARK    4  A    between atoms: C_21  and  C_22 
ROOT
HETATM    1  N   UNL     1      42.255 -15.779   0.341  1.00  0.00    -0.067 N 
HETATM    2  H   UNL     1      42.715 -15.837  -0.580  1.00  0.00     0.280 HD
HETATM    3  C   UNL     1      43.361 -15.861   1.352  1.00  0.00     0.236 C 
HETATM    4  C   UNL     1      42.798 -15.957   2.768  1.00  0.00     0.039 C 
HETATM    5  C   UNL     1      41.780 -17.113   2.987  1.00  0.00    -0.013 C 
HETATM    6  C   UNL     1      42.471 -18.501   3.023  1.00  0.00     0.245 C 
HETATM    7  N   UNL     1      43.291 -18.678   4.280  1.00  0.00    -0.065 N 
HETATM    8  H   UNL     1      44.008 -17.942   4.337  1.00  0.00     0.280 HD
HETATM    9  C   UNL     1      42.446 -18.564   5.546  1.00  0.00     0.244 C 
HETATM   10  C   UNL     1      41.793 -17.171   5.627  1.00  0.00     0.045 C 
HETATM   11  C   UNL     1      40.991 -16.928   4.321  1.00  0.00     0.022 C 
HETATM   12  C   UNL     1      40.733 -17.065   1.830  1.00  0.00     0.039 C 
HETATM   13  C   UNL     1      41.316 -16.944   0.422  1.00  0.00     0.236 C 
ENDROOT
BRANCH   7  14
HETATM   14  C   UNL     1      44.026 -19.988   4.267  1.00  0.00     0.188 A 
HETATM   15  C   UNL     1      45.468 -19.959   4.686  1.00  0.00     0.035 A 
HETATM   16  C   UNL     1      44.433 -20.554   5.597  1.00  0.00     0.035 A 
ENDBRANCH   7  14
BRANCH  10  17
HETATM   17  C   UNL     1      42.703 -16.006   6.007  1.00  0.00    -0.052 A 
HETATM   18  C   UNL     1      43.959 -16.161   6.618  1.00  0.00     0.007 A 
HETATM   19  C   UNL     1      44.749 -15.051   6.937  1.00  0.00     0.001 A 
HETATM   20  C   UNL     1      44.292 -13.764   6.679  1.00  0.00     0.000 A 
HETATM   21  C   UNL     1      43.031 -13.582   6.125  1.00  0.00     0.001 A 
HETATM   22  C   UNL     1      42.242 -14.690   5.805  1.00  0.00     0.007 A 
ENDBRANCH  10  17
BRANCH   1  23
HETATM   23  C   UNL     1      41.552 -14.425   0.259  1.00  0.00     0.277 C 
BRANCH  23  24
HETATM   24  C   UNL     1      40.720 -14.306  -0.960  1.00  0.00     0.011 A 
HETATM   25  C   UNL     1      39.349 -14.113  -1.078  1.00  0.00     0.035 A 
HETATM   26  C   UNL     1      38.290 -13.894  -0.057  1.00  0.00     0.070 C 
HETATM   27  N   UNL     1      39.085 -14.121  -2.430  1.00  0.00    -0.278 N 
HETATM   28  C   UNL     1      37.819 -13.949  -3.109  1.00  0.00     0.179 C 
HETATM   29  N   UNL     1      40.186 -14.328  -3.172  1.00  0.00    -0.185 NA
HETATM   30  C   UNL     1      41.179 -14.382  -2.294  1.00  0.00     0.149 A 
ENDBRANCH  23  24
ENDBRANCH   1  23
TORSDOF 4
ENDMDL
MODEL 3
REMARK VINA RESULT:      -7.8      1.727      3.930
REMARK  4 active torsions:
REMARK  status: ('A' for Active; 'I' for Inactive)
REMARK    1  A    between atoms: C_7  and  C_8 
REMARK    2  A    between atoms: C_8  and  N_9 
REMARK    3  A    between atoms: N_15  and  C_17 
REMARK    4  A    between atoms: C_21  and  C_22 
ROOT
HETATM    1  N   UNL     1      42.470 -17.763   3.479  1.00  0.00    -0.067 N 
HETATM    2  H   UNL     1      42.202 -18.758   3.479  1.00  0.00     0.280 HD
HETATM    3  C   UNL     1      41.218 -17.006   3.811  1.00  0.00     0.236 C 
HETATM    4  C   UNL     1      41.441 -15.501   3.676  1.00  0.00     0.039 C 
HETATM    5  C   UNL     1      41.998 -15.046   2.297  1.00  0.00    -0.013 C 
HETATM    6  C   UNL     1      40.926 -15.122   1.179  1.00  0.00     0.245 C 
HETATM    7  N   UNL     1      39.864 -14.062   1.357  1.00  0.00    -0.065 N 
HETATM    8  H   UNL     1      39.407 -14.175   2.273  1.00  0.00     0.280 HD
HETATM    9  C   UNL     1      40.443 -12.650   1.328  1.00  0.00     0.244 C 
HETATM   10  C   UNL     1      41.458 -12.466   2.472  1.00  0.00     0.045 C 
HETATM   11  C   UNL     1      42.532 -13.580   2.357  1.00  0.00     0.022 C 
HETATM   12  C   UNL     1      43.213 -15.958   1.938  1.00  0.00     0.039 C 
HETATM   13  C   UNL     1      42.977 -17.459   2.103  1.00  0.00     0.236 C 
ENDROOT
BRANCH   7  14
HETATM   14  C   UNL     1      38.784 -14.198   0.323  1.00  0.00     0.188 A 
HETATM   15  C   UNL     1      37.365 -14.125   0.811  1.00  0.00     0.035 A 
HETATM   16  C   UNL     1      37.954 -12.979   0.039  1.00  0.00     0.035 A 
ENDBRANCH   7  14
BRANCH  10  17
HETATM   17  C   UNL     1      40.889 -12.313   3.880  1.00  0.00    -0.052 A 
HETATM   18  C   UNL     1      39.515 -12.320   4.173  1.00  0.00     0.007 A 
HETATM   19  C   UNL     1      39.056 -12.181   5.487  1.00  0.00     0.001 A 
HETATM   20  C   UNL     1      39.956 -12.005   6.532  1.00  0.00     0.000 A 
HETATM   21  C   UNL     1      41.317 -11.942   6.262  1.00  0.00     0.001 A 
HETATM   22  C   UNL     1      41.776 -12.082   4.950  1.00  0.00     0.007 A 
ENDBRANCH  10  17
BRANCH   1  23
HETATM   23  C   UNL     1      43.553 -17.727   4.557  1.00  0.00     0.277 C 
BRANCH  23  24
HETATM   24  C   UNL     1      43.894 -19.084   5.043  1.00  0.00     0.011 A 
HETATM   25  C   UNL     1      44.460 -20.151   4.356  1.00  0.00     0.035 A 
HETATM   26  C   UNL     1      44.966 -20.273   2.963  1.00  0.00     0.070 C 
HETATM   27  N   UNL     1      44.521 -21.188   5.260  1.00  0.00    -0.278 N 
HETATM   28  C   UNL     1      45.035 -22.527   5.072  1.00  0.00     0.179 C 
HETATM   29  N   UNL     1      44.015 -20.860   6.461  1.00  0.00    -0.185 NA
HETATM   30  C   UNL     1      43.690 -19.578   6.350  1.00  0.00     0.149 A 
ENDBRANCH  23  24
ENDBRANCH   1  23
TORSDOF 4
ENDMDL
MODEL 4
REMARK VINA RESULT:      -7.4      3.303      8.668
REMARK  4 active torsions:
REMARK  status: ('A' for Active; 'I' for Inactive)
REMARK    1  A    between atoms: C_7  and  C_8 
REMARK    2  A    between atoms: C_8  and  N_9 
REMARK    3  A    between atoms: N_15  and  C_17 
REMARK    4  A    between atoms: C_21  and  C_22 
ROOT
HETATM    1  N   UNL     1      41.770 -12.041   5.590  1.00  0.00    -0.067 N 
HETATM    2  H   UNL     1      42.077 -11.144   5.185  1.00  0.00     0.280 HD
HETATM    3  C   UNL     1      42.805 -13.047   5.179  1.00  0.00     0.236 C 
HETATM    4  C   UNL     1      42.378 -14.459   5.576  1.00  0.00     0.039 C 
HETATM    5  C   UNL     1      40.976 -14.885   5.057  1.00  0.00    -0.013 C 
HETATM    6  C   UNL     1      40.977 -15.169   3.532  1.00  0.00     0.245 C 
HETATM    7  N   UNL     1      41.734 -16.434   3.206  1.00  0.00    -0.065 N 
HETATM    8  H   UNL     1      42.706 -16.356   3.536  1.00  0.00     0.280 HD
HETATM    9  C   UNL     1      41.138 -17.661   3.890  1.00  0.00     0.244 C 
HETATM   10  C   UNL     1      41.182 -17.492   5.420  1.00  0.00     0.045 C 
HETATM   11  C   UNL     1      40.466 -16.166   5.788  1.00  0.00     0.022 C 
HETATM   12  C   UNL     1      39.966 -13.741   5.388  1.00  0.00     0.039 C 
HETATM   13  C   UNL     1      40.422 -12.333   5.006  1.00  0.00     0.236 C 
ENDROOT
BRANCH   7  14
HETATM   14  C   UNL     1      41.806 -16.656   1.722  1.00  0.00     0.188 A 
HETATM   15  C   UNL     1      43.163 -16.945   1.145  1.00  0.00     0.035 A 
HETATM   16  C   UNL     1      42.143 -18.042   1.255  1.00  0.00     0.035 A 
ENDBRANCH   7  14
BRANCH  10  17
HETATM   17  C   UNL     1      42.544 -17.654   6.092  1.00  0.00    -0.052 A 
HETATM   18  C   UNL     1      43.717 -18.010   5.405  1.00  0.00     0.007 A 
HETATM   19  C   UNL     1      44.937 -18.137   6.078  1.00  0.00     0.001 A 
HETATM   20  C   UNL     1      45.007 -17.939   7.452  1.00  0.00     0.000 A 
HETATM   21  C   UNL     1      43.851 -17.639   8.161  1.00  0.00     0.001 A 
HETATM   22  C   UNL     1      42.633 -17.511   7.490  1.00  0.00     0.007 A 
ENDBRANCH  10  17
BRANCH   1  23
HETATM   23  C   UNL     1      41.739 -11.719   7.084  1.00  0.00     0.277 C 
BRANCH  23  24
HETATM   24  C   UNL     1      40.646 -10.779   7.424  1.00  0.00     0.011 A 
HETATM   25  C   UNL     1      40.525  -9.425   7.136  1.00  0.00     0.035 A 
HETATM   26  C   UNL     1      41.387  -8.500   6.353  1.00  0.00     0.070 C 
HETATM   27  N   UNL     1      39.343  -9.023   7.718  1.00  0.00    -0.278 N 
HETATM   28  C   UNL     1      38.728  -7.713   7.713  1.00  0.00     0.179 C 
HETATM   29  N   UNL     1      38.721 -10.019   8.370  1.00  0.00    -0.185 NA
HETATM   30  C   UNL     1      39.472 -11.089   8.146  1.00  0.00     0.149 A 
ENDBRANCH  23  24
ENDBRANCH   1  23
TORSDOF 4
ENDMDL
MODEL 5
REMARK VINA RESULT:      -7.3      2.515      5.358
REMARK  4 active torsions:
REMARK  status: ('A' for Active; 'I' for Inactive)
REMARK    1  A    between atoms: C_7  and  C_8 
REMARK    2  A    between atoms: C_8  and  N_9 
REMARK    3  A    between atoms: N_15  and  C_17 
REMARK    4  A    between atoms: C_21  and  C_22 
ROOT
HETATM    1  N   UNL     1      41.758 -12.213   4.799  1.00  0.00    -0.067 N 
HETATM    2  H   UNL     1      42.272 -11.375   5.109  1.00  0.00     0.280 HD
HETATM    3  C   UNL     1      42.635 -12.869   3.773  1.00  0.00     0.236 C 
HETATM    4  C   UNL     1      41.912 -14.037   3.106  1.00  0.00     0.039 C 
HETATM    5  C   UNL     1      40.532 -13.679   2.486  1.00  0.00    -0.013 C 
HETATM    6  C   UNL     1      40.673 -12.848   1.184  1.00  0.00     0.245 C 
HETATM    7  N   UNL     1      41.222 -13.684   0.051  1.00  0.00    -0.065 N 
HETATM    8  H   UNL     1      42.143 -14.064   0.311  1.00  0.00     0.280 HD
HETATM    9  C   UNL     1      40.330 -14.879  -0.274  1.00  0.00     0.244 C 
HETATM   10  C   UNL     1      40.212 -15.805   0.951  1.00  0.00     0.045 C 
HETATM   11  C   UNL     1      39.709 -14.964   2.154  1.00  0.00     0.022 C 
HETATM   12  C   UNL     1      39.714 -12.877   3.547  1.00  0.00     0.039 C 
HETATM   13  C   UNL     1      40.464 -11.728   4.220  1.00  0.00     0.236 C 
ENDROOT
BRANCH   7  14
HETATM   14  C   UNL     1      41.438 -12.852  -1.181  1.00  0.00     0.188 A 
HETATM   15  C   UNL     1      42.854 -12.714  -1.666  1.00  0.00     0.035 A 
HETATM   16  C   UNL     1      41.881 -13.573  -2.422  1.00  0.00     0.035 A 
ENDBRANCH   7  14
BRANCH  10  17
HETATM   17  C   UNL     1      41.426 -16.670   1.280  1.00  0.00    -0.052 A 
HETATM   18  C   UNL     1      42.573 -16.749   0.472  1.00  0.00     0.007 A 
HETATM   19  C   UNL     1      43.656 -17.557   0.832  1.00  0.00     0.001 A 
HETATM   20  C   UNL     1      43.607 -18.325   1.989  1.00  0.00     0.000 A 
HETATM   21  C   UNL     1      42.464 -18.306   2.777  1.00  0.00     0.001 A 
HETATM   22  C   UNL     1      41.382 -17.497   2.419  1.00  0.00     0.007 A 
ENDBRANCH  10  17
BRANCH   1  23
HETATM   23  C   UNL     1      41.598 -12.989   6.105  1.00  0.00     0.277 C 
BRANCH  23  24
HETATM   24  C   UNL     1      42.709 -13.946   6.318  1.00  0.00     0.011 A 
HETATM   25  C   UNL     1      42.695 -15.335   6.279  1.00  0.00     0.035 A 
HETATM   26  C   UNL     1      41.617 -16.305   5.952  1.00  0.00     0.070 C 
HETATM   27  N   UNL     1      43.978 -15.730   6.591  1.00  0.00    -0.278 N 
HETATM   28  C   UNL     1      44.519 -17.068   6.680  1.00  0.00     0.179 C 
HETATM   29  N   UNL     1      44.792 -14.692   6.845  1.00  0.00    -0.185 NA
HETATM   30  C   UNL     1      44.047 -13.617   6.625  1.00  0.00     0.149 A 
ENDBRANCH  23  24
ENDBRANCH   1  23
TORSDOF 4
ENDMDL
MODEL 6
REMARK VINA RESULT:      -7.3      1.837      2.869
REMARK  4 active torsions:
REMARK  status: ('A' for Active; 'I' for Inactive)
REMARK    1  A    between atoms: C_7  and  C_8 
REMARK    2  A    between atoms: C_8  and  N_9 
REMARK    3  A    between atoms: N_15  and  C_17 
REMARK    4  A    between atoms: C_21  and  C_22 
ROOT
HETATM    1  N   UNL     1      41.779 -15.041   3.484  1.00  0.00    -0.067 N 
HETATM    2  H   UNL     1      41.685 -15.076   4.510  1.00  0.00     0.280 HD
HETATM    3  C   UNL     1      41.399 -13.644   3.089  1.00  0.00     0.236 C 
HETATM    4  C   UNL     1      41.334 -13.507   1.569  1.00  0.00     0.039 C 
HETATM    5  C   UNL     1      40.410 -14.538   0.862  1.00  0.00    -0.013 C 
HETATM    6  C   UNL     1      38.907 -14.229   1.088  1.00  0.00     0.245 C 
HETATM    7  N   UNL     1      38.478 -12.989   0.340  1.00  0.00    -0.065 N 
HETATM    8  H   UNL     1      39.040 -12.183   0.648  1.00  0.00     0.280 HD
HETATM    9  C   UNL     1      38.688 -13.117  -1.167  1.00  0.00     0.244 C 
HETATM   10  C   UNL     1      40.180 -13.339  -1.480  1.00  0.00     0.045 C 
HETATM   11  C   UNL     1      40.671 -14.572  -0.677  1.00  0.00     0.022 C 
HETATM   12  C   UNL     1      40.753 -15.959   1.412  1.00  0.00     0.039 C 
HETATM   13  C   UNL     1      40.838 -16.069   2.934  1.00  0.00     0.236 C 
ENDROOT
BRANCH   7  14
HETATM   14  C   UNL     1      37.046 -12.646   0.634  1.00  0.00     0.188 A 
HETATM   15  C   UNL     1      36.780 -11.289   1.221  1.00  0.00     0.035 A 
HETATM   16  C   UNL     1      36.414 -11.575  -0.208  1.00  0.00     0.035 A 
ENDBRANCH   7  14
BRANCH  10  17
HETATM   17  C   UNL     1      41.098 -12.126  -1.353  1.00  0.00    -0.052 A 
HETATM   18  C   UNL     1      40.650 -10.839  -1.009  1.00  0.00     0.007 A 
HETATM   19  C   UNL     1      41.544  -9.768  -0.903  1.00  0.00     0.001 A 
HETATM   20  C   UNL     1      42.897  -9.951  -1.166  1.00  0.00     0.000 A 
HETATM   21  C   UNL     1      43.355 -11.202  -1.560  1.00  0.00     0.001 A 
HETATM   22  C   UNL     1      42.464 -12.272  -1.664  1.00  0.00     0.007 A 
ENDBRANCH  10  17
BRANCH   1  23
HETATM   23  C   UNL     1      43.255 -15.389   3.290  1.00  0.00     0.277 C 
BRANCH  23  24
HETATM   24  C   UNL     1      43.521 -16.825   3.536  1.00  0.00     0.011 A 
HETATM   25  C   UNL     1      43.780 -17.843   2.626  1.00  0.00     0.035 A 
HETATM   26  C   UNL     1      43.943 -17.830   1.148  1.00  0.00     0.070 C 
HETATM   27  N   UNL     1      43.909 -18.991   3.376  1.00  0.00    -0.278 N 
HETATM   28  C   UNL     1      44.195 -20.338   2.932  1.00  0.00     0.179 C 
HETATM   29  N   UNL     1      43.729 -18.775   4.690  1.00  0.00    -0.185 NA
HETATM   30  C   UNL     1      43.553 -17.464   4.795  1.00  0.00     0.149 A 
ENDBRANCH  23  24
ENDBRANCH   1  23
TORSDOF 4
ENDMDL
MODEL 7
REMARK VINA RESULT:      -7.1      2.438      7.511
REMARK  4 active torsions:
REMARK  status: ('A' for Active; 'I' for Inactive)
REMARK    1  A    between atoms: C_7  and  C_8 
REMARK    2  A    between atoms: C_8  and  N_9 
REMARK    3  A    between atoms: N_15  and  C_17 
REMARK    4  A    between atoms: C_21  and  C_22 
ROOT
HETATM    1  N   UNL     1      41.938 -16.044   0.448  1.00  0.00    -0.067 N 
HETATM    2  H   UNL     1      42.337 -16.002  -0.502  1.00  0.00     0.280 HD
HETATM    3  C   UNL     1      43.097 -15.852   1.382  1.00  0.00     0.236 C 
HETATM    4  C   UNL     1      42.667 -16.063   2.832  1.00  0.00     0.039 C 
HETATM    5  C   UNL     1      41.967 -17.423   3.113  1.00  0.00    -0.013 C 
HETATM    6  C   UNL     1      42.966 -18.609   3.096  1.00  0.00     0.245 C 
HETATM    7  N   UNL     1      43.886 -18.575   4.294  1.00  0.00    -0.065 N 
HETATM    8  H   UNL     1      44.412 -17.690   4.307  1.00  0.00     0.280 HD
HETATM    9  C   UNL     1      43.123 -18.648   5.615  1.00  0.00     0.244 C 
HETATM   10  C   UNL     1      42.168 -17.448   5.746  1.00  0.00     0.045 C 
HETATM   11  C   UNL     1      41.247 -17.415   4.498  1.00  0.00     0.022 C 
HETATM   12  C   UNL     1      40.864 -17.636   2.028  1.00  0.00     0.039 C 
HETATM   13  C   UNL     1      41.308 -17.396   0.586  1.00  0.00     0.236 C 
ENDROOT
BRANCH   7  14
HETATM   14  C   UNL     1      44.906 -19.674   4.226  1.00  0.00     0.188 A 
HETATM   15  C   UNL     1      44.388 -21.084   4.279  1.00  0.00     0.035 A 
HETATM   16  C   UNL     1      44.913 -20.523   2.988  1.00  0.00     0.035 A 
ENDBRANCH   7  14
BRANCH  10  17
HETATM   17  C   UNL     1      42.801 -16.097   6.070  1.00  0.00    -0.052 A 
HETATM   18  C   UNL     1      42.193 -14.861   5.790  1.00  0.00     0.007 A 
HETATM   19  C   UNL     1      42.823 -13.656   6.118  1.00  0.00     0.001 A 
HETATM   20  C   UNL     1      44.083 -13.657   6.705  1.00  0.00     0.000 A 
HETATM   21  C   UNL     1      44.727 -14.864   6.943  1.00  0.00     0.001 A 
HETATM   22  C   UNL     1      44.098 -16.068   6.618  1.00  0.00     0.007 A 
ENDBRANCH  10  17
BRANCH   1  23
HETATM   23  C   UNL     1      40.932 -14.894   0.420  1.00  0.00     0.277 C 
BRANCH  23  24
HETATM   24  C   UNL     1      41.540 -13.641  -0.081  1.00  0.00     0.011 A 
HETATM   25  C   UNL     1      41.765 -12.441   0.585  1.00  0.00     0.035 A 
HETATM   26  C   UNL     1      41.546 -12.040   2.000  1.00  0.00     0.070 C 
HETATM   27  N   UNL     1      42.312 -11.591  -0.352  1.00  0.00    -0.278 N 
HETATM   28  C   UNL     1      42.747 -10.221  -0.189  1.00  0.00     0.179 C 
HETATM   29  N   UNL     1      42.427 -12.159  -1.563  1.00  0.00    -0.185 NA
HETATM   30  C   UNL     1      42.018 -13.409  -1.390  1.00  0.00     0.149 A 
ENDBRANCH  23  24
ENDBRANCH   1  23
TORSDOF 4
ENDMDL
MODEL 8
REMARK VINA RESULT:      -7.1      2.376      4.381
REMARK  4 active torsions:
REMARK  status: ('A' for Active; 'I' for Inactive)
REMARK    1  A    between atoms: C_7  and  C_8 
REMARK    2  A    between atoms: C_8  and  N_9 
REMARK    3  A    between atoms: N_15  and  C_17 
REMARK    4  A    between atoms: C_21  and  C_22 
ROOT
HETATM    1  N   UNL     1      41.187 -14.781   2.007  1.00  0.00    -0.067 N 
HETATM    2  H   UNL     1      40.667 -14.977   2.875  1.00  0.00     0.280 HD
HETATM    3  C   UNL     1      40.707 -13.438   1.542  1.00  0.00     0.236 C 
HETATM    4  C   UNL     1      41.278 -13.102   0.166  1.00  0.00     0.039 C 
HETATM    5  C   UNL     1      41.016 -14.176  -0.927  1.00  0.00    -0.013 C 
HETATM    6  C   UNL     1      39.537 -14.186  -1.395  1.00  0.00     0.245 C 
HETATM    7  N   UNL     1      39.205 -12.953  -2.203  1.00  0.00    -0.065 N 
HETATM    8  H   UNL     1      39.375 -12.109  -1.639  1.00  0.00     0.280 HD
HETATM    9  C   UNL     1      40.071 -12.826  -3.454  1.00  0.00     0.244 C 
HETATM   10  C   UNL     1      41.557 -12.722  -3.064  1.00  0.00     0.045 C 
HETATM   11  C   UNL     1      41.919 -13.943  -2.179  1.00  0.00     0.022 C 
HETATM   12  C   UNL     1      41.402 -15.571  -0.342  1.00  0.00     0.039 C 
HETATM   13  C   UNL     1      40.841 -15.877   1.046  1.00  0.00     0.236 C 
ENDROOT
BRANCH   7  14
HETATM   14  C   UNL     1      37.751 -12.927  -2.578  1.00  0.00     0.188 A 
HETATM   15  C   UNL     1      36.976 -11.695  -2.204  1.00  0.00     0.035 A 
HETATM   16  C   UNL     1      37.337 -11.949  -3.639  1.00  0.00     0.035 A 
ENDBRANCH   7  14
BRANCH  10  17
HETATM   17  C   UNL     1      42.024 -11.389  -2.483  1.00  0.00    -0.052 A 
HETATM   18  C   UNL     1      43.221 -11.226  -1.765  1.00  0.00     0.007 A 
HETATM   19  C   UNL     1      43.596  -9.975  -1.262  1.00  0.00     0.001 A 
HETATM   20  C   UNL     1      42.773  -8.869  -1.439  1.00  0.00     0.000 A 
HETATM   21  C   UNL     1      41.559  -9.016  -2.099  1.00  0.00     0.001 A 
HETATM   22  C   UNL     1      41.185 -10.264  -2.603  1.00  0.00     0.007 A 
ENDBRANCH  10  17
BRANCH   1  23
HETATM   23  C   UNL     1      42.636 -14.819   2.490  1.00  0.00     0.277 C 
BRANCH  23  24
HETATM   24  C   UNL     1      42.964 -16.100   3.156  1.00  0.00     0.011 A 
HETATM   25  C   UNL     1      43.656 -17.200   2.662  1.00  0.00     0.035 A 
HETATM   26  C   UNL     1      44.343 -17.434   1.364  1.00  0.00     0.070 C 
HETATM   27  N   UNL     1      43.639 -18.137   3.672  1.00  0.00    -0.278 N 
HETATM   28  C   UNL     1      44.225 -19.459   3.693  1.00  0.00     0.179 C 
HETATM   29  N   UNL     1      42.969 -17.716   4.758  1.00  0.00    -0.185 NA
HETATM   30  C   UNL     1      42.612 -16.471   4.472  1.00  0.00     0.149 A 
ENDBRANCH  23  24
ENDBRANCH   1  23
TORSDOF 4
ENDMDL
MODEL 9
REMARK VINA RESULT:      -7.0      1.489      2.182
REMARK  4 active torsions:
REMARK  status: ('A' for Active; 'I' for Inactive)
REMARK    1  A    between atoms: C_7  and  C_8 
REMARK    2  A    between atoms: C_8  and  N_9 
REMARK    3  A    between atoms: N_15  and  C_17 
REMARK    4  A    between atoms: C_21  and  C_22 
ROOT
HETATM    1  N   UNL     1      42.443 -15.831   3.290  1.00  0.00    -0.067 N 
HETATM    2  H   UNL     1      43.087 -15.878   4.094  1.00  0.00     0.280 HD
HETATM    3  C   UNL     1      42.796 -14.567   2.562  1.00  0.00     0.236 C 
HETATM    4  C   UNL     1      41.799 -14.290   1.438  1.00  0.00     0.039 C 
HETATM    5  C   UNL     1      40.309 -14.260   1.883  1.00  0.00    -0.013 C 
HETATM    6  C   UNL     1      39.964 -12.978   2.686  1.00  0.00     0.245 C 
HETATM    7  N   UNL     1      39.963 -11.754   1.801  1.00  0.00    -0.065 N 
HETATM    8  H   UNL     1      40.886 -11.639   1.361  1.00  0.00     0.280 HD
HETATM    9  C   UNL     1      38.947 -11.859   0.666  1.00  0.00     0.244 C 
HETATM   10  C   UNL     1      39.277 -13.065  -0.234  1.00  0.00     0.045 C 
HETATM   11  C   UNL     1      39.349 -14.335   0.654  1.00  0.00     0.022 C 
HETATM   12  C   UNL     1      40.034 -15.527   2.753  1.00  0.00     0.039 C 
HETATM   13  C   UNL     1      41.056 -15.800   3.855  1.00  0.00     0.236 C 
ENDROOT
BRANCH   7  14
HETATM   14  C   UNL     1      39.715 -10.507   2.600  1.00  0.00     0.188 A 
HETATM   15  C   UNL     1      40.758  -9.429   2.515  1.00  0.00     0.035 A 
HETATM   16  C   UNL     1      39.433  -9.249   1.832  1.00  0.00     0.035 A 
ENDBRANCH   7  14
BRANCH  10  17
HETATM   17  C   UNL     1      40.468 -12.915  -1.177  1.00  0.00    -0.052 A 
HETATM   18  C   UNL     1      40.884 -13.912  -2.076  1.00  0.00     0.007 A 
HETATM   19  C   UNL     1      41.982 -13.710  -2.920  1.00  0.00     0.001 A 
HETATM   20  C   UNL     1      42.704 -12.524  -2.865  1.00  0.00     0.000 A 
HETATM   21  C   UNL     1      42.344 -11.545  -1.948  1.00  0.00     0.001 A 
HETATM   22  C   UNL     1      41.248 -11.744  -1.106  1.00  0.00     0.007 A 
ENDBRANCH  10  17
BRANCH   1  23
HETATM   23  C   UNL     1      42.776 -17.122   2.542  1.00  0.00     0.277 C 
BRANCH  23  24
HETATM   24  C   UNL     1      43.487 -18.093   3.406  1.00  0.00     0.011 A 
HETATM   25  C   UNL     1      43.793 -19.427   3.167  1.00  0.00     0.035 A 
HETATM   26  C   UNL     1      43.583 -20.292   1.975  1.00  0.00     0.070 C 
HETATM   27  N   UNL     1      44.418 -19.878   4.309  1.00  0.00    -0.278 N 
HETATM   28  C   UNL     1      44.955 -21.191   4.592  1.00  0.00     0.179 C 
HETATM   29  N   UNL     1      44.509 -18.931   5.258  1.00  0.00    -0.185 NA
HETATM   30  C   UNL     1      44.002 -17.842   4.696  1.00  0.00     0.149 A 
ENDBRANCH  23  24
ENDBRANCH   1  23
TORSDOF 4
ENDMDL
MODEL 10
REMARK VINA RESULT:      -7.0      1.826      3.864
REMARK  4 active torsions:
REMARK  status: ('A' for Active; 'I' for Inactive)
REMARK    1  A    between atoms: C_7  and  C_8 
REMARK    2  A    between atoms: C_8  and  N_9 
REMARK    3  A    between atoms: N_15  and  C_17 
REMARK    4  A    between atoms: C_21  and  C_22 
ROOT
HETATM    1  N   UNL     1      42.565 -17.457   3.092  1.00  0.00    -0.067 N 
HETATM    2  H   UNL     1      42.324 -18.460   3.098  1.00  0.00     0.280 HD
HETATM    3  C   UNL     1      41.317 -16.739   3.518  1.00  0.00     0.236 C 
HETATM    4  C   UNL     1      41.489 -15.227   3.388  1.00  0.00     0.039 C 
HETATM    5  C   UNL     1      41.936 -14.742   1.981  1.00  0.00    -0.013 C 
HETATM    6  C   UNL     1      40.792 -14.836   0.938  1.00  0.00     0.245 C 
HETATM    7  N   UNL     1      39.717 -13.809   1.202  1.00  0.00    -0.065 N 
HETATM    8  H   UNL     1      39.326 -13.945   2.145  1.00  0.00     0.280 HD
HETATM    9  C   UNL     1      40.252 -12.380   1.152  1.00  0.00     0.244 C 
HETATM   10  C   UNL     1      41.338 -12.181   2.225  1.00  0.00     0.045 C 
HETATM   11  C   UNL     1      42.432 -13.262   2.023  1.00  0.00     0.022 C 
HETATM   12  C   UNL     1      43.149 -15.614   1.527  1.00  0.00     0.039 C 
HETATM   13  C   UNL     1      42.967 -17.123   1.688  1.00  0.00     0.236 C 
ENDROOT
BRANCH   7  14
HETATM   14  C   UNL     1      38.572 -13.964   0.242  1.00  0.00     0.188 A 
HETATM   15  C   UNL     1      37.226 -14.268   0.836  1.00  0.00     0.035 A 
HETATM   16  C   UNL     1      37.508 -12.905   0.272  1.00  0.00     0.035 A 
ENDBRANCH   7  14
BRANCH  10  17
HETATM   17  C   UNL     1      40.863 -12.060   3.671  1.00  0.00    -0.052 A 
HETATM   18  C   UNL     1      41.729 -11.956   4.773  1.00  0.00     0.007 A 
HETATM   19  C   UNL     1      41.230 -11.842   6.075  1.00  0.00     0.001 A 
HETATM   20  C   UNL     1      39.860 -11.857   6.308  1.00  0.00     0.000 A 
HETATM   21  C   UNL     1      38.985 -12.012   5.240  1.00  0.00     0.001 A 
HETATM   22  C   UNL     1      39.482 -12.124   3.940  1.00  0.00     0.007 A 
ENDBRANCH  10  17
BRANCH   1  23
HETATM   23  C   UNL     1      43.717 -17.402   4.094  1.00  0.00     0.277 C 
BRANCH  23  24
HETATM   24  C   UNL     1      43.817 -18.647   4.890  1.00  0.00     0.011 A 
HETATM   25  C   UNL     1      43.470 -18.877   6.216  1.00  0.00     0.035 A 
HETATM   26  C   UNL     1      42.836 -18.003   7.238  1.00  0.00     0.070 C 
HETATM   27  N   UNL     1      43.808 -20.189   6.468  1.00  0.00    -0.278 N 
HETATM   28  C   UNL     1      43.649 -20.948   7.689  1.00  0.00     0.179 C 
HETATM   29  N   UNL     1      44.361 -20.795   5.405  1.00  0.00    -0.185 NA
HETATM   30  C   UNL     1      44.315 -19.889   4.438  1.00  0.00     0.149 A 
ENDBRANCH  23  24
ENDBRANCH   1  23
TORSDOF 4
ENDMDL
