MODEL 1
REMARK VINA RESULT:      -9.0      0.000      0.000
REMARK  4 active torsions:
REMARK  status: ('A' for Active; 'I' for Inactive)
REMARK    1  A    between atoms: C_6  and  C_7 
REMARK    2  A    between atoms: C_8  and  C_9 
REMARK       I    between atoms: C_9  and  N_10 
REMARK    3  A    between atoms: N_10  and  C_11 
REMARK    4  A    between atoms: C_18  and  C_19 
REMARK       I    between atoms: C_19  and  N_20 
ROOT
HETATM    1  C   UNL     1      40.765 -14.290   2.564  1.00  0.00     0.035 A 
HETATM    2  C   UNL     1      40.656 -13.784   3.865  1.00  0.00     0.046 A 
HETATM    3  C   UNL     1      39.738 -12.743   4.134  1.00  0.00     0.030 A 
HETATM    4  C   UNL     1      38.960 -12.250   3.094  1.00  0.00     0.063 A 
HETATM    5  N   UNL     1      38.188 -11.268   3.651  1.00  0.00    -0.277 N 
HETATM    6  H   UNL     1      37.501 -10.689   3.183  1.00  0.00     0.189 HD
HETATM    7  N   UNL     1      38.392 -11.079   4.964  1.00  0.00    -0.168 NA
HETATM    8  C   UNL     1      39.346 -11.984   5.279  1.00  0.00     0.156 A 
HETATM    9  C   UNL     1      39.037 -12.734   1.788  1.00  0.00     0.034 A 
HETATM   10  C   UNL     1      39.954 -13.764   1.547  1.00  0.00     0.032 A 
ENDROOT
BRANCH   1  11
HETATM   11  N   UNL     1      41.659 -15.315   2.188  1.00  0.00    -0.327 N 
HETATM   12  C   UNL     1      41.403 -16.668   2.097  1.00  0.00     0.227 C 
HETATM   13  O   UNL     1      40.339 -17.229   2.313  1.00  0.00    -0.273 OA
HETATM   14  H   UNL     1      42.604 -15.021   1.999  1.00  0.00     0.169 HD
BRANCH  12  15
HETATM   15  C   UNL     1      42.567 -17.529   1.723  1.00  0.00     0.087 A 
HETATM   16  C   UNL     1      43.445 -18.096   2.829  1.00  0.00     0.032 A 
HETATM   17  C   UNL     1      44.022 -17.147   1.804  1.00  0.00     0.025 A 
BRANCH  16  18
HETATM   18  C   UNL     1      43.822 -19.558   2.810  1.00  0.00    -0.051 A 
HETATM   19  C   UNL     1      44.352 -20.187   3.950  1.00  0.00     0.031 A 
HETATM   20  C   UNL     1      44.673 -21.546   3.938  1.00  0.00     0.034 A 
HETATM   21  C   UNL     1      44.470 -22.311   2.793  1.00  0.00     0.024 A 
HETATM   22 CL   UNL     1      45.318 -22.281   5.354  1.00  0.00    -0.084 Cl
HETATM   23  C   UNL     1      43.939 -21.711   1.655  1.00  0.00     0.002 A 
HETATM   24  C   UNL     1      43.616 -20.350   1.668  1.00  0.00     0.007 A 
ENDBRANCH  16  18
ENDBRANCH  12  15
ENDBRANCH   1  11
BRANCH   8  25
HETATM   25  C   UNL     1      39.859 -12.101   6.652  1.00  0.00     0.270 C 
HETATM   26  N   UNL     1      39.195 -13.022   7.417  1.00  0.00    -0.365 N 
HETATM   27  H   UNL     1      38.429 -13.538   7.001  1.00  0.00     0.159 HD
HETATM   28  H   UNL     1      39.477 -13.171   8.372  1.00  0.00     0.159 HD
HETATM   29  O   UNL     1      40.793 -11.453   7.108  1.00  0.00    -0.266 OA
ENDBRANCH   8  25
TORSDOF 4
ENDMDL
MODEL 2
REMARK VINA RESULT:      -8.9      3.779      5.383
REMARK  4 active torsions:
REMARK  status: ('A' for Active; 'I' for Inactive)
REMARK    1  A    between atoms: C_6  and  C_7 
REMARK    2  A    between atoms: C_8  and  C_9 
REMARK       I    between atoms: C_9  and  N_10 
REMARK    3  A    between atoms: N_10  and  C_11 
REMARK    4  A    between atoms: C_18  and  C_19 
REMARK       I    between atoms: C_19  and  N_20 
ROOT
HETATM    1  C   UNL     1      40.898 -16.216   1.372  1.00  0.00     0.035 A 
HETATM    2  C   UNL     1      41.266 -15.808   0.084  1.00  0.00     0.046 A 
HETATM    3  C   UNL     1      40.582 -14.734  -0.530  1.00  0.00     0.030 A 
HETATM    4  C   UNL     1      39.556 -14.107   0.167  1.00  0.00     0.063 A 
HETATM    5  N   UNL     1      39.093 -13.130  -0.671  1.00  0.00    -0.277 N 
HETATM    6  H   UNL     1      38.341 -12.475  -0.491  1.00  0.00     0.189 HD
HETATM    7  N   UNL     1      39.726 -13.063  -1.852  1.00  0.00    -0.168 NA
HETATM    8  C   UNL     1      40.651 -14.048  -1.781  1.00  0.00     0.156 A 
HETATM    9  C   UNL     1      39.166 -14.482   1.452  1.00  0.00     0.034 A 
HETATM   10  C   UNL     1      39.859 -15.548   2.039  1.00  0.00     0.032 A 
ENDROOT
BRANCH   1  11
HETATM   11  N   UNL     1      41.506 -17.284   2.066  1.00  0.00    -0.327 N 
HETATM   12  C   UNL     1      42.675 -17.941   1.745  1.00  0.00     0.227 C 
HETATM   13  O   UNL     1      43.413 -17.707   0.800  1.00  0.00    -0.273 OA
HETATM   14  H   UNL     1      41.003 -17.624   2.871  1.00  0.00     0.169 HD
BRANCH  12  15
HETATM   15  C   UNL     1      43.051 -19.079   2.641  1.00  0.00     0.087 A 
HETATM   16  C   UNL     1      44.233 -18.911   3.585  1.00  0.00     0.032 A 
HETATM   17  C   UNL     1      44.261 -19.963   2.500  1.00  0.00     0.025 A 
BRANCH  16  18
HETATM   18  C   UNL     1      44.098 -19.313   5.033  1.00  0.00    -0.051 A 
HETATM   19  C   UNL     1      43.892 -18.353   6.039  1.00  0.00     0.031 A 
HETATM   20  C   UNL     1      43.739 -18.731   7.374  1.00  0.00     0.034 A 
HETATM   21  C   UNL     1      43.784 -20.074   7.739  1.00  0.00     0.024 A 
HETATM   22 CL   UNL     1      43.486 -17.526   8.576  1.00  0.00    -0.084 Cl
HETATM   23  C   UNL     1      43.980 -21.042   6.759  1.00  0.00     0.002 A 
HETATM   24  C   UNL     1      44.131 -20.664   5.422  1.00  0.00     0.007 A 
ENDBRANCH  16  18
ENDBRANCH  12  15
ENDBRANCH   1  11
BRANCH   8  25
HETATM   25  C   UNL     1      41.570 -14.309  -2.898  1.00  0.00     0.270 C 
HETATM   26  N   UNL     1      42.713 -13.556  -2.867  1.00  0.00    -0.365 N 
HETATM   27  H   UNL     1      42.841 -12.900  -2.107  1.00  0.00     0.159 HD
HETATM   28  H   UNL     1      43.402 -13.668  -3.593  1.00  0.00     0.159 HD
HETATM   29  O   UNL     1      41.368 -15.118  -3.796  1.00  0.00    -0.266 OA
ENDBRANCH   8  25
TORSDOF 4
ENDMDL
MODEL 3
REMARK VINA RESULT:      -8.9      5.788      9.930
REMARK  4 active torsions:
REMARK  status: ('A' for Active; 'I' for Inactive)
REMARK    1  A    between atoms: C_6  and  C_7 
REMARK    2  A    between atoms: C_8  and  C_9 
REMARK       I    between atoms: C_9  and  N_10 
REMARK    3  A    between atoms: N_10  and  C_11 
REMARK    4  A    between atoms: C_18  and  C_19 
REMARK       I    between atoms: C_19  and  N_20 
ROOT
HETATM    1  C   UNL     1      43.748 -14.887   6.624  1.00  0.00     0.035 A 
HETATM    2  C   UNL     1      43.875 -16.281   6.671  1.00  0.00     0.046 A 
HETATM    3  C   UNL     1      43.629 -17.044   5.507  1.00  0.00     0.030 A 
HETATM    4  C   UNL     1      43.268 -16.385   4.338  1.00  0.00     0.063 A 
HETATM    5  N   UNL     1      43.097 -17.369   3.404  1.00  0.00    -0.277 N 
HETATM    6  H   UNL     1      42.828 -17.254   2.434  1.00  0.00     0.189 HD
HETATM    7  N   UNL     1      43.316 -18.612   3.860  1.00  0.00    -0.168 NA
HETATM    8  C   UNL     1      43.647 -18.429   5.159  1.00  0.00     0.156 A 
HETATM    9  C   UNL     1      43.138 -14.998   4.252  1.00  0.00     0.034 A 
HETATM   10  C   UNL     1      43.387 -14.266   5.419  1.00  0.00     0.032 A 
ENDROOT
BRANCH   1  11
HETATM   11  N   UNL     1      43.956 -14.037   7.732  1.00  0.00    -0.327 N 
HETATM   12  C   UNL     1      45.048 -13.233   7.985  1.00  0.00     0.227 C 
HETATM   13  O   UNL     1      46.037 -13.096   7.281  1.00  0.00    -0.273 OA
HETATM   14  H   UNL     1      43.233 -14.052   8.434  1.00  0.00     0.169 HD
BRANCH  12  15
HETATM   15  C   UNL     1      45.016 -12.477   9.276  1.00  0.00     0.087 A 
HETATM   16  C   UNL     1      44.319 -11.125   9.317  1.00  0.00     0.032 A 
HETATM   17  C   UNL     1      45.799 -11.233   9.601  1.00  0.00     0.025 A 
BRANCH  16  18
HETATM   18  C   UNL     1      43.350 -10.815  10.432  1.00  0.00    -0.051 A 
HETATM   19  C   UNL     1      43.787 -10.239  11.637  1.00  0.00     0.031 A 
HETATM   20  C   UNL     1      42.884  -9.927  12.655  1.00  0.00     0.034 A 
HETATM   21  C   UNL     1      41.525 -10.178  12.496  1.00  0.00     0.024 A 
HETATM   22 CL   UNL     1      43.458  -9.221  14.116  1.00  0.00    -0.084 Cl
HETATM   23  C   UNL     1      41.067 -10.741  11.308  1.00  0.00     0.002 A 
HETATM   24  C   UNL     1      41.972 -11.051  10.288  1.00  0.00     0.007 A 
ENDBRANCH  16  18
ENDBRANCH  12  15
ENDBRANCH   1  11
BRANCH   8  25
HETATM   25  C   UNL     1      43.969 -19.569   6.028  1.00  0.00     0.270 C 
HETATM   26  N   UNL     1      44.678 -20.562   5.406  1.00  0.00    -0.365 N 
HETATM   27  H   UNL     1      44.922 -20.445   4.430  1.00  0.00     0.159 HD
HETATM   28  H   UNL     1      44.944 -21.383   5.925  1.00  0.00     0.159 HD
HETATM   29  O   UNL     1      43.652 -19.661   7.208  1.00  0.00    -0.266 OA
ENDBRANCH   8  25
TORSDOF 4
ENDMDL
MODEL 4
REMARK VINA RESULT:      -8.7      3.250      4.952
REMARK  4 active torsions:
REMARK  status: ('A' for Active; 'I' for Inactive)
REMARK    1  A    between atoms: C_6  and  C_7 
REMARK    2  A    between atoms: C_8  and  C_9 
REMARK       I    between atoms: C_9  and  N_10 
REMARK    3  A    between atoms: N_10  and  C_11 
REMARK    4  A    between atoms: C_18  and  C_19 
REMARK       I    between atoms: C_19  and  N_20 
ROOT
HETATM    1  C   UNL     1      40.777 -15.476   1.079  1.00  0.00     0.035 A 
HETATM    2  C   UNL     1      40.931 -15.126  -0.268  1.00  0.00     0.046 A 
HETATM    3  C   UNL     1      39.935 -14.353  -0.907  1.00  0.00     0.030 A 
HETATM    4  C   UNL     1      38.823 -13.956  -0.175  1.00  0.00     0.063 A 
HETATM    5  N   UNL     1      38.051 -13.240  -1.047  1.00  0.00    -0.277 N 
HETATM    6  H   UNL     1      37.159 -12.798  -0.856  1.00  0.00     0.189 HD
HETATM    7  N   UNL     1      38.562 -13.131  -2.283  1.00  0.00    -0.168 NA
HETATM    8  C   UNL     1      39.728 -13.814  -2.213  1.00  0.00     0.156 A 
HETATM    9  C   UNL     1      38.638 -14.281   1.169  1.00  0.00     0.034 A 
HETATM   10  C   UNL     1      39.639 -15.048   1.779  1.00  0.00     0.032 A 
ENDROOT
BRANCH   1  11
HETATM   11  N   UNL     1      41.704 -16.257   1.803  1.00  0.00    -0.327 N 
HETATM   12  C   UNL     1      42.796 -15.818   2.522  1.00  0.00     0.227 C 
HETATM   13  O   UNL     1      43.156 -14.660   2.677  1.00  0.00    -0.273 OA
HETATM   14  H   UNL     1      41.565 -17.254   1.756  1.00  0.00     0.169 HD
BRANCH  12  15
HETATM   15  C   UNL     1      43.637 -16.886   3.146  1.00  0.00     0.087 A 
HETATM   16  C   UNL     1      42.957 -18.141   3.674  1.00  0.00     0.032 A 
HETATM   17  C   UNL     1      43.706 -17.223   4.612  1.00  0.00     0.025 A 
BRANCH  16  18
HETATM   18  C   UNL     1      43.517 -19.499   3.327  1.00  0.00    -0.051 A 
HETATM   19  C   UNL     1      44.165 -20.287   4.294  1.00  0.00     0.031 A 
HETATM   20  C   UNL     1      44.656 -21.555   3.976  1.00  0.00     0.034 A 
HETATM   21  C   UNL     1      44.511 -22.069   2.691  1.00  0.00     0.024 A 
HETATM   22 CL   UNL     1      45.442 -22.491   5.188  1.00  0.00    -0.084 Cl
HETATM   23  C   UNL     1      43.866 -21.309   1.720  1.00  0.00     0.002 A 
HETATM   24  C   UNL     1      43.372 -20.040   2.038  1.00  0.00     0.007 A 
ENDBRANCH  16  18
ENDBRANCH  12  15
ENDBRANCH   1  11
BRANCH   8  25
HETATM   25  C   UNL     1      40.608 -13.935  -3.384  1.00  0.00     0.270 C 
HETATM   26  N   UNL     1      41.230 -12.767  -3.737  1.00  0.00    -0.365 N 
HETATM   27  H   UNL     1      41.049 -11.936  -3.187  1.00  0.00     0.159 HD
HETATM   28  H   UNL     1      41.854 -12.754  -4.527  1.00  0.00     0.159 HD
HETATM   29  O   UNL     1      40.795 -14.968  -4.016  1.00  0.00    -0.266 OA
ENDBRANCH   8  25
TORSDOF 4
ENDMDL
MODEL 5
REMARK VINA RESULT:      -8.7      4.615      5.666
REMARK  4 active torsions:
REMARK  status: ('A' for Active; 'I' for Inactive)
REMARK    1  A    between atoms: C_6  and  C_7 
REMARK    2  A    between atoms: C_8  and  C_9 
REMARK       I    between atoms: C_9  and  N_10 
REMARK    3  A    between atoms: N_10  and  C_11 
REMARK    4  A    between atoms: C_18  and  C_19 
REMARK       I    between atoms: C_19  and  N_20 
ROOT
HETATM    1  C   UNL     1      44.732 -14.168   7.214  1.00  0.00     0.035 A 
HETATM    2  C   UNL     1      44.154 -13.583   8.348  1.00  0.00     0.046 A 
HETATM    3  C   UNL     1      44.802 -12.498   8.981  1.00  0.00     0.030 A 
HETATM    4  C   UNL     1      46.002 -12.034   8.455  1.00  0.00     0.063 A 
HETATM    5  N   UNL     1      46.380 -11.002   9.268  1.00  0.00    -0.277 N 
HETATM    6  H   UNL     1      47.212 -10.429   9.185  1.00  0.00     0.189 HD
HETATM    7  N   UNL     1      45.532 -10.749  10.277  1.00  0.00    -0.168 NA
HETATM    8  C   UNL     1      44.550 -11.665  10.113  1.00  0.00     0.156 A 
HETATM    9  C   UNL     1      46.603 -12.587   7.324  1.00  0.00     0.034 A 
HETATM   10  C   UNL     1      45.942 -13.661   6.716  1.00  0.00     0.032 A 
ENDROOT
BRANCH   1  11
HETATM   11  N   UNL     1      44.175 -15.263   6.520  1.00  0.00    -0.327 N 
HETATM   12  C   UNL     1      43.379 -15.231   5.394  1.00  0.00     0.227 C 
HETATM   13  O   UNL     1      43.018 -14.240   4.778  1.00  0.00    -0.273 OA
HETATM   14  H   UNL     1      44.357 -16.170   6.919  1.00  0.00     0.169 HD
BRANCH  12  15
HETATM   15  C   UNL     1      42.887 -16.557   4.906  1.00  0.00     0.087 A 
HETATM   16  C   UNL     1      43.613 -17.228   3.749  1.00  0.00     0.032 A 
HETATM   17  C   UNL     1      42.165 -16.819   3.611  1.00  0.00     0.025 A 
BRANCH  16  18
HETATM   18  C   UNL     1      43.986 -18.688   3.844  1.00  0.00    -0.051 A 
HETATM   19  C   UNL     1      43.870 -19.542   2.734  1.00  0.00     0.031 A 
HETATM   20  C   UNL     1      44.244 -20.885   2.818  1.00  0.00     0.034 A 
HETATM   21  C   UNL     1      44.745 -21.407   4.007  1.00  0.00     0.024 A 
HETATM   22 CL   UNL     1      44.089 -21.900   1.437  1.00  0.00    -0.084 Cl
HETATM   23  C   UNL     1      44.876 -20.577   5.117  1.00  0.00     0.002 A 
HETATM   24  C   UNL     1      44.504 -19.232   5.032  1.00  0.00     0.007 A 
ENDBRANCH  16  18
ENDBRANCH  12  15
ENDBRANCH   1  11
BRANCH   8  25
HETATM   25  C   UNL     1      43.405 -11.723  11.033  1.00  0.00     0.270 C 
HETATM   26  N   UNL     1      43.541 -12.647  12.034  1.00  0.00    -0.365 N 
HETATM   27  H   UNL     1      44.387 -13.203  12.070  1.00  0.00     0.159 HD
HETATM   28  H   UNL     1      42.806 -12.758  12.714  1.00  0.00     0.159 HD
HETATM   29  O   UNL     1      42.401 -11.025  10.948  1.00  0.00    -0.266 OA
ENDBRANCH   8  25
TORSDOF 4
ENDMDL
MODEL 6
REMARK VINA RESULT:      -8.7      4.219      5.819
REMARK  4 active torsions:
REMARK  status: ('A' for Active; 'I' for Inactive)
REMARK    1  A    between atoms: C_6  and  C_7 
REMARK    2  A    between atoms: C_8  and  C_9 
REMARK       I    between atoms: C_9  and  N_10 
REMARK    3  A    between atoms: N_10  and  C_11 
REMARK    4  A    between atoms: C_18  and  C_19 
REMARK       I    between atoms: C_19  and  N_20 
ROOT
HETATM    1  C   UNL     1      41.370 -15.200  -0.629  1.00  0.00     0.035 A 
HETATM    2  C   UNL     1      40.426 -15.403  -1.644  1.00  0.00     0.046 A 
HETATM    3  C   UNL     1      39.807 -14.288  -2.254  1.00  0.00     0.030 A 
HETATM    4  C   UNL     1      40.156 -13.012  -1.829  1.00  0.00     0.063 A 
HETATM    5  N   UNL     1      39.403 -12.159  -2.587  1.00  0.00    -0.277 N 
HETATM    6  H   UNL     1      39.396 -11.146  -2.545  1.00  0.00     0.189 HD
HETATM    7  N   UNL     1      38.595 -12.764  -3.470  1.00  0.00    -0.168 NA
HETATM    8  C   UNL     1      38.833 -14.082  -3.278  1.00  0.00     0.156 A 
HETATM    9  C   UNL     1      41.095 -12.772  -0.826  1.00  0.00     0.034 A 
HETATM   10  C   UNL     1      41.694 -13.892  -0.238  1.00  0.00     0.032 A 
ENDROOT
BRANCH   1  11
HETATM   11  N   UNL     1      42.032 -16.244   0.053  1.00  0.00    -0.327 N 
HETATM   12  C   UNL     1      41.560 -16.995   1.108  1.00  0.00     0.227 C 
HETATM   13  O   UNL     1      40.464 -16.904   1.641  1.00  0.00    -0.273 OA
HETATM   14  H   UNL     1      42.975 -16.432  -0.250  1.00  0.00     0.169 HD
BRANCH  12  15
HETATM   15  C   UNL     1      42.512 -18.004   1.668  1.00  0.00     0.087 A 
HETATM   16  C   UNL     1      43.482 -17.571   2.758  1.00  0.00     0.032 A 
HETATM   17  C   UNL     1      43.997 -18.061   1.424  1.00  0.00     0.025 A 
BRANCH  16  18
HETATM   18  C   UNL     1      43.645 -18.419   3.996  1.00  0.00    -0.051 A 
HETATM   19  C   UNL     1      44.275 -19.674   3.940  1.00  0.00     0.031 A 
HETATM   20  C   UNL     1      44.450 -20.444   5.092  1.00  0.00     0.034 A 
HETATM   21  C   UNL     1      44.006 -19.979   6.327  1.00  0.00     0.024 A 
HETATM   22 CL   UNL     1      45.227 -21.975   4.983  1.00  0.00    -0.084 Cl
HETATM   23  C   UNL     1      43.386 -18.736   6.408  1.00  0.00     0.002 A 
HETATM   24  C   UNL     1      43.213 -17.965   5.254  1.00  0.00     0.007 A 
ENDBRANCH  16  18
ENDBRANCH  12  15
ENDBRANCH   1  11
BRANCH   8  25
HETATM   25  C   UNL     1      38.132 -15.104  -4.068  1.00  0.00     0.270 C 
HETATM   26  N   UNL     1      38.964 -15.986  -4.703  1.00  0.00    -0.365 N 
HETATM   27  H   UNL     1      39.965 -15.878  -4.587  1.00  0.00     0.159 HD
HETATM   28  H   UNL     1      38.573 -16.722  -5.268  1.00  0.00     0.159 HD
HETATM   29  O   UNL     1      36.914 -15.193  -4.176  1.00  0.00    -0.266 OA
ENDBRANCH   8  25
TORSDOF 4
ENDMDL
MODEL 7
REMARK VINA RESULT:      -8.6      2.904      3.514
REMARK  4 active torsions:
REMARK  status: ('A' for Active; 'I' for Inactive)
REMARK    1  A    between atoms: C_6  and  C_7 
REMARK    2  A    between atoms: C_8  and  C_9 
REMARK       I    between atoms: C_9  and  N_10 
REMARK    3  A    between atoms: N_10  and  C_11 
REMARK    4  A    between atoms: C_18  and  C_19 
REMARK       I    between atoms: C_19  and  N_20 
ROOT
HETATM    1  C   UNL     1      42.410 -13.951   5.045  1.00  0.00     0.035 A 
HETATM    2  C   UNL     1      43.221 -13.721   6.163  1.00  0.00     0.046 A 
HETATM    3  C   UNL     1      43.003 -12.574   6.959  1.00  0.00     0.030 A 
HETATM    4  C   UNL     1      41.979 -11.701   6.610  1.00  0.00     0.063 A 
HETATM    5  N   UNL     1      42.016 -10.705   7.547  1.00  0.00    -0.277 N 
HETATM    6  H   UNL     1      41.411  -9.894   7.603  1.00  0.00     0.189 HD
HETATM    7  N   UNL     1      42.971 -10.852   8.477  1.00  0.00    -0.168 NA
HETATM    8  C   UNL     1      43.590 -12.003   8.129  1.00  0.00     0.156 A 
HETATM    9  C   UNL     1      41.148 -11.901   5.508  1.00  0.00     0.034 A 
HETATM   10  C   UNL     1      41.385 -13.045   4.735  1.00  0.00     0.032 A 
ENDROOT
BRANCH   1  11
HETATM   11  N   UNL     1      42.555 -15.056   4.178  1.00  0.00    -0.327 N 
HETATM   12  C   UNL     1      42.134 -16.353   4.386  1.00  0.00     0.227 C 
HETATM   13  O   UNL     1      41.538 -16.783   5.363  1.00  0.00    -0.273 OA
HETATM   14  H   UNL     1      43.057 -14.876   3.323  1.00  0.00     0.169 HD
BRANCH  12  15
HETATM   15  C   UNL     1      42.476 -17.331   3.307  1.00  0.00     0.087 A 
HETATM   16  C   UNL     1      43.879 -17.919   3.268  1.00  0.00     0.032 A 
HETATM   17  C   UNL     1      43.369 -17.076   2.122  1.00  0.00     0.025 A 
BRANCH  16  18
HETATM   18  C   UNL     1      44.063 -19.407   3.096  1.00  0.00    -0.051 A 
HETATM   19  C   UNL     1      44.566 -20.204   4.138  1.00  0.00     0.031 A 
HETATM   20  C   UNL     1      44.708 -21.584   3.985  1.00  0.00     0.034 A 
HETATM   21  C   UNL     1      44.348 -22.204   2.792  1.00  0.00     0.024 A 
HETATM   22 CL   UNL     1      45.327 -22.526   5.285  1.00  0.00    -0.084 Cl
HETATM   23  C   UNL     1      43.840 -21.437   1.748  1.00  0.00     0.002 A 
HETATM   24  C   UNL     1      43.697 -20.055   1.903  1.00  0.00     0.007 A 
ENDBRANCH  16  18
ENDBRANCH  12  15
ENDBRANCH   1  11
BRANCH   8  25
HETATM   25  C   UNL     1      44.718 -12.527   8.913  1.00  0.00     0.270 C 
HETATM   26  N   UNL     1      45.887 -12.628   8.208  1.00  0.00    -0.365 N 
HETATM   27  H   UNL     1      45.894 -12.346   7.235  1.00  0.00     0.159 HD
HETATM   28  H   UNL     1      46.715 -12.977   8.664  1.00  0.00     0.159 HD
HETATM   29  O   UNL     1      44.659 -12.854  10.092  1.00  0.00    -0.266 OA
ENDBRANCH   8  25
TORSDOF 4
ENDMDL
MODEL 8
REMARK VINA RESULT:      -8.6      1.874      2.518
REMARK  4 active torsions:
REMARK  status: ('A' for Active; 'I' for Inactive)
REMARK    1  A    between atoms: C_6  and  C_7 
REMARK    2  A    between atoms: C_8  and  C_9 
REMARK       I    between atoms: C_9  and  N_10 
REMARK    3  A    between atoms: N_10  and  C_11 
REMARK    4  A    between atoms: C_18  and  C_19 
REMARK       I    between atoms: C_19  and  N_20 
ROOT
HETATM    1  C   UNL     1      39.907 -13.641   4.482  1.00  0.00     0.035 A 
HETATM    2  C   UNL     1      39.838 -13.212   5.814  1.00  0.00     0.046 A 
HETATM    3  C   UNL     1      39.516 -11.865   6.098  1.00  0.00     0.030 A 
HETATM    4  C   UNL     1      39.273 -10.997   5.040  1.00  0.00     0.063 A 
HETATM    5  N   UNL     1      38.998  -9.789   5.618  1.00  0.00    -0.277 N 
HETATM    6  H   UNL     1      38.775  -8.920   5.146  1.00  0.00     0.189 HD
HETATM    7  N   UNL     1      39.037  -9.792   6.959  1.00  0.00    -0.168 NA
HETATM    8  C   UNL     1      39.356 -11.069   7.272  1.00  0.00     0.156 A 
HETATM    9  C   UNL     1      39.327 -11.390   3.703  1.00  0.00     0.034 A 
HETATM   10  C   UNL     1      39.648 -12.729   3.448  1.00  0.00     0.032 A 
ENDROOT
BRANCH   1  11
HETATM   11  N   UNL     1      40.235 -14.958   4.093  1.00  0.00    -0.327 N 
HETATM   12  C   UNL     1      41.195 -15.784   4.638  1.00  0.00     0.227 C 
HETATM   13  O   UNL     1      41.935 -15.531   5.577  1.00  0.00    -0.273 OA
HETATM   14  H   UNL     1      39.727 -15.316   3.300  1.00  0.00     0.169 HD
BRANCH  12  15
HETATM   15  C   UNL     1      41.357 -17.118   3.980  1.00  0.00     0.087 A 
HETATM   16  C   UNL     1      42.605 -17.379   3.148  1.00  0.00     0.032 A 
HETATM   17  C   UNL     1      41.236 -17.406   2.507  1.00  0.00     0.025 A 
BRANCH  16  18
HETATM   18  C   UNL     1      43.380 -18.659   3.343  1.00  0.00    -0.051 A 
HETATM   19  C   UNL     1      43.389 -19.662   2.359  1.00  0.00     0.031 A 
HETATM   20  C   UNL     1      44.131 -20.832   2.530  1.00  0.00     0.034 A 
HETATM   21  C   UNL     1      44.884 -21.030   3.683  1.00  0.00     0.024 A 
HETATM   22 CL   UNL     1      44.117 -22.037   1.301  1.00  0.00    -0.084 Cl
HETATM   23  C   UNL     1      44.897 -20.047   4.669  1.00  0.00     0.002 A 
HETATM   24  C   UNL     1      44.156 -18.875   4.496  1.00  0.00     0.007 A 
ENDBRANCH  16  18
ENDBRANCH  12  15
ENDBRANCH   1  11
BRANCH   8  25
HETATM   25  C   UNL     1      39.499 -11.495   8.672  1.00  0.00     0.270 C 
HETATM   26  N   UNL     1      38.773 -12.611   8.992  1.00  0.00    -0.365 N 
HETATM   27  H   UNL     1      38.213 -13.048   8.271  1.00  0.00     0.159 HD
HETATM   28  H   UNL     1      38.810 -12.977   9.929  1.00  0.00     0.159 HD
HETATM   29  O   UNL     1      40.194 -10.930   9.508  1.00  0.00    -0.266 OA
ENDBRANCH   8  25
TORSDOF 4
ENDMDL
MODEL 9
REMARK VINA RESULT:      -8.5      5.233      9.456
REMARK  4 active torsions:
REMARK  status: ('A' for Active; 'I' for Inactive)
REMARK    1  A    between atoms: C_6  and  C_7 
REMARK    2  A    between atoms: C_8  and  C_9 
REMARK       I    between atoms: C_9  and  N_10 
REMARK    3  A    between atoms: N_10  and  C_11 
REMARK    4  A    between atoms: C_18  and  C_19 
REMARK       I    between atoms: C_19  and  N_20 
ROOT
HETATM    1  C   UNL     1      43.703 -15.786   6.624  1.00  0.00     0.035 A 
HETATM    2  C   UNL     1      42.746 -15.683   5.607  1.00  0.00     0.046 A 
HETATM    3  C   UNL     1      42.634 -16.715   4.647  1.00  0.00     0.030 A 
HETATM    4  C   UNL     1      43.480 -17.813   4.742  1.00  0.00     0.063 A 
HETATM    5  N   UNL     1      43.142 -18.624   3.694  1.00  0.00    -0.277 N 
HETATM    6  H   UNL     1      43.557 -19.516   3.450  1.00  0.00     0.189 HD
HETATM    7  N   UNL     1      42.148 -18.153   2.925  1.00  0.00    -0.168 NA
HETATM    8  C   UNL     1      41.822 -16.973   3.501  1.00  0.00     0.156 A 
HETATM    9  C   UNL     1      44.440 -17.952   5.744  1.00  0.00     0.034 A 
HETATM   10  C   UNL     1      44.532 -16.917   6.682  1.00  0.00     0.032 A 
ENDROOT
BRANCH   1  11
HETATM   11  N   UNL     1      43.906 -14.806   7.619  1.00  0.00    -0.327 N 
HETATM   12  C   UNL     1      44.790 -13.747   7.592  1.00  0.00     0.227 C 
HETATM   13  O   UNL     1      45.556 -13.453   6.686  1.00  0.00    -0.273 OA
HETATM   14  H   UNL     1      43.363 -14.919   8.459  1.00  0.00     0.169 HD
BRANCH  12  15
HETATM   15  C   UNL     1      44.825 -12.895   8.822  1.00  0.00     0.087 A 
HETATM   16  C   UNL     1      44.349 -11.453   8.729  1.00  0.00     0.032 A 
HETATM   17  C   UNL     1      45.781 -11.765   9.097  1.00  0.00     0.025 A 
BRANCH  16  18
HETATM   18  C   UNL     1      43.396 -10.910   9.766  1.00  0.00    -0.051 A 
HETATM   19  C   UNL     1      43.851 -10.514  11.036  1.00  0.00     0.031 A 
HETATM   20  C   UNL     1      42.972  -9.985  11.982  1.00  0.00     0.034 A 
HETATM   21  C   UNL     1      41.620  -9.835  11.686  1.00  0.00     0.024 A 
HETATM   22 CL   UNL     1      43.567  -9.511  13.526  1.00  0.00    -0.084 Cl
HETATM   23  C   UNL     1      41.148 -10.213  10.433  1.00  0.00     0.002 A 
HETATM   24  C   UNL     1      42.030 -10.740   9.484  1.00  0.00     0.007 A 
ENDBRANCH  16  18
ENDBRANCH  12  15
ENDBRANCH   1  11
BRANCH   8  25
HETATM   25  C   UNL     1      40.753 -16.128   2.949  1.00  0.00     0.270 C 
HETATM   26  N   UNL     1      40.211 -16.605   1.786  1.00  0.00    -0.365 N 
HETATM   27  H   UNL     1      40.568 -17.473   1.404  1.00  0.00     0.159 HD
HETATM   28  H   UNL     1      39.471 -16.093   1.335  1.00  0.00     0.159 HD
HETATM   29  O   UNL     1      40.355 -15.085   3.453  1.00  0.00    -0.266 OA
ENDBRANCH   8  25
TORSDOF 4
ENDMDL
MODEL 10
REMARK VINA RESULT:      -8.4      3.917      4.983
REMARK  4 active torsions:
REMARK  status: ('A' for Active; 'I' for Inactive)
REMARK    1  A    between atoms: C_6  and  C_7 
REMARK    2  A    between atoms: C_8  and  C_9 
REMARK       I    between atoms: C_9  and  N_10 
REMARK    3  A    between atoms: N_10  and  C_11 
REMARK    4  A    between atoms: C_18  and  C_19 
REMARK       I    between atoms: C_19  and  N_20 
ROOT
HETATM    1  C   UNL     1      40.930 -15.044  -1.286  1.00  0.00     0.035 A 
HETATM    2  C   UNL     1      40.023 -14.033  -0.942  1.00  0.00     0.046 A 
HETATM    3  C   UNL     1      39.084 -13.583  -1.898  1.00  0.00     0.030 A 
HETATM    4  C   UNL     1      39.084 -14.162  -3.161  1.00  0.00     0.063 A 
HETATM    5  N   UNL     1      38.086 -13.530  -3.850  1.00  0.00    -0.277 N 
HETATM    6  H   UNL     1      37.802 -13.696  -4.809  1.00  0.00     0.189 HD
HETATM    7  N   UNL     1      37.434 -12.591  -3.148  1.00  0.00    -0.168 NA
HETATM    8  C   UNL     1      38.038 -12.612  -1.938  1.00  0.00     0.156 A 
HETATM    9  C   UNL     1      39.967 -15.175  -3.537  1.00  0.00     0.034 A 
HETATM   10  C   UNL     1      40.887 -15.602  -2.573  1.00  0.00     0.032 A 
ENDROOT
BRANCH   1  11
HETATM   11  N   UNL     1      41.915 -15.551  -0.412  1.00  0.00    -0.327 N 
HETATM   12  C   UNL     1      41.819 -16.644   0.424  1.00  0.00     0.227 C 
HETATM   13  O   UNL     1      40.858 -17.389   0.550  1.00  0.00    -0.273 OA
HETATM   14  H   UNL     1      42.775 -15.028  -0.374  1.00  0.00     0.169 HD
BRANCH  12  15
HETATM   15  C   UNL     1      43.014 -16.916   1.282  1.00  0.00     0.087 A 
HETATM   16  C   UNL     1      42.797 -17.345   2.726  1.00  0.00     0.032 A 
HETATM   17  C   UNL     1      43.516 -16.054   2.410  1.00  0.00     0.025 A 
BRANCH  16  18
HETATM   18  C   UNL     1      43.558 -18.525   3.279  1.00  0.00    -0.051 A 
HETATM   19  C   UNL     1      43.713 -19.706   2.532  1.00  0.00     0.031 A 
HETATM   20  C   UNL     1      44.442 -20.785   3.035  1.00  0.00     0.034 A 
HETATM   21  C   UNL     1      45.038 -20.712   4.291  1.00  0.00     0.024 A 
HETATM   22 CL   UNL     1      44.610 -22.213   2.090  1.00  0.00    -0.084 Cl
HETATM   23  C   UNL     1      44.905 -19.551   5.045  1.00  0.00     0.002 A 
HETATM   24  C   UNL     1      44.176 -18.469   4.541  1.00  0.00     0.007 A 
ENDBRANCH  16  18
ENDBRANCH  12  15
ENDBRANCH   1  11
BRANCH   8  25
HETATM   25  C   UNL     1      37.607 -11.711  -0.859  1.00  0.00     0.270 C 
HETATM   26  N   UNL     1      36.940 -12.340   0.158  1.00  0.00    -0.365 N 
HETATM   27  H   UNL     1      36.797 -13.341   0.099  1.00  0.00     0.159 HD
HETATM   28  H   UNL     1      36.608 -11.803   0.942  1.00  0.00     0.159 HD
HETATM   29  O   UNL     1      37.808 -10.503  -0.833  1.00  0.00    -0.266 OA
ENDBRANCH   8  25
TORSDOF 4
ENDMDL
