MODEL 1
REMARK VINA RESULT:      -8.4      0.000      0.000
REMARK  2 active torsions:
REMARK  status: ('A' for Active; 'I' for Inactive)
REMARK    1  A    between atoms: C_2  and  N_3 
REMARK    2  A    between atoms: N_3  and  C_4 
ROOT
HETATM    1  C   UNL     1      41.469 -17.122   4.462  1.00  0.00     0.143 A 
HETATM    2  N   UNL     1      41.270 -16.405   5.595  1.00  0.00    -0.223 NA
HETATM    3  C   UNL     1      42.108 -16.553   6.631  1.00  0.00     0.236 A 
HETATM    4  N   UNL     1      43.174 -17.350   6.709  1.00  0.00    -0.234 NA
HETATM    5  C   UNL     1      43.362 -18.052   5.580  1.00  0.00     0.114 A 
HETATM    6  C   UNL     1      42.573 -18.006   4.429  1.00  0.00     0.053 A 
HETATM    7  S   UNL     1      44.688 -19.142   5.456  1.00  0.00    -0.073 SA
HETATM    8  C   UNL     1      44.234 -19.545   3.901  1.00  0.00    -0.008 A 
HETATM    9  C   UNL     1      43.112 -18.901   3.458  1.00  0.00    -0.028 A 
HETATM   10  C   UNL     1      42.793 -19.309   2.065  1.00  0.00     0.041 C 
HETATM   11  C   UNL     1      43.707 -20.556   1.856  1.00  0.00     0.010 C 
HETATM   12  C   UNL     1      44.844 -20.467   2.917  1.00  0.00     0.047 C 
ENDROOT
BRANCH   1  13
HETATM   13  N   UNL     1      40.584 -17.016   3.378  1.00  0.00    -0.340 N 
HETATM   14  H   UNL     1      39.941 -17.788   3.303  1.00  0.00     0.167 HD
BRANCH  13  15
HETATM   15  C   UNL     1      40.424 -16.035   2.385  1.00  0.00     0.036 A 
HETATM   16  C   UNL     1      39.702 -14.850   2.575  1.00  0.00     0.032 A 
HETATM   17  C   UNL     1      39.544 -13.919   1.542  1.00  0.00     0.042 A 
HETATM   18  C   UNL     1      40.096 -14.170   0.292  1.00  0.00     0.102 A 
HETATM   19  C   UNL     1      40.785 -15.363   0.068  1.00  0.00     0.104 A 
HETATM   20  O   UNL     1      39.913 -13.212  -0.672  1.00  0.00    -0.346 OA
HETATM   21  C   UNL     1      40.959 -16.277   1.109  1.00  0.00     0.069 A 
HETATM   22  O   UNL     1      41.320 -15.705  -1.150  1.00  0.00    -0.346 OA
HETATM   23  C   UNL     1      40.774 -14.894  -2.197  1.00  0.00     0.202 C 
HETATM   24  C   UNL     1      40.774 -13.429  -1.795  1.00  0.00     0.202 C 
ENDBRANCH  13  15
ENDBRANCH   1  13
TORSDOF 2
ENDMDL
MODEL 2
REMARK VINA RESULT:      -8.4      0.910      1.682
REMARK  2 active torsions:
REMARK  status: ('A' for Active; 'I' for Inactive)
REMARK    1  A    between atoms: C_2  and  N_3 
REMARK    2  A    between atoms: N_3  and  C_4 
ROOT
HETATM    1  C   UNL     1      41.357 -17.050   4.159  1.00  0.00     0.143 A 
HETATM    2  N   UNL     1      41.071 -16.222   5.194  1.00  0.00    -0.223 NA
HETATM    3  C   UNL     1      41.851 -16.228   6.285  1.00  0.00     0.236 A 
HETATM    4  N   UNL     1      42.933 -16.973   6.508  1.00  0.00    -0.234 NA
HETATM    5  C   UNL     1      43.208 -17.786   5.475  1.00  0.00     0.114 A 
HETATM    6  C   UNL     1      42.486 -17.892   4.285  1.00  0.00     0.053 A 
HETATM    7  S   UNL     1      44.570 -18.835   5.544  1.00  0.00    -0.073 SA
HETATM    8  C   UNL     1      44.220 -19.419   4.021  1.00  0.00    -0.008 A 
HETATM    9  C   UNL     1      43.107 -18.867   3.448  1.00  0.00    -0.028 A 
HETATM   10  C   UNL     1      42.882 -19.434   2.093  1.00  0.00     0.041 C 
HETATM   11  C   UNL     1      43.844 -20.663   2.073  1.00  0.00     0.010 C 
HETATM   12  C   UNL     1      44.913 -20.420   3.178  1.00  0.00     0.047 C 
ENDROOT
BRANCH   1  13
HETATM   13  N   UNL     1      40.534 -17.093   3.023  1.00  0.00    -0.340 N 
HETATM   14  H   UNL     1      39.888 -17.866   3.019  1.00  0.00     0.167 HD
BRANCH  13  15
HETATM   15  C   UNL     1      40.439 -16.258   1.896  1.00  0.00     0.036 A 
HETATM   16  C   UNL     1      41.284 -16.358   0.785  1.00  0.00     0.032 A 
HETATM   17  C   UNL     1      41.169 -15.479  -0.299  1.00  0.00     0.042 A 
HETATM   18  C   UNL     1      40.211 -14.473  -0.279  1.00  0.00     0.102 A 
HETATM   19  C   UNL     1      39.385 -14.330   0.837  1.00  0.00     0.104 A 
HETATM   20  O   UNL     1      40.145 -13.656  -1.377  1.00  0.00    -0.346 OA
HETATM   21  C   UNL     1      39.489 -15.223   1.906  1.00  0.00     0.069 A 
HETATM   22  O   UNL     1      38.446 -13.335   0.954  1.00  0.00    -0.346 OA
HETATM   23  C   UNL     1      38.679 -12.293  -0.001  1.00  0.00     0.202 C 
HETATM   24  C   UNL     1      38.943 -12.878  -1.378  1.00  0.00     0.202 C 
ENDBRANCH  13  15
ENDBRANCH   1  13
TORSDOF 2
ENDMDL
MODEL 3
REMARK VINA RESULT:      -8.1      1.624      2.123
REMARK  2 active torsions:
REMARK  status: ('A' for Active; 'I' for Inactive)
REMARK    1  A    between atoms: C_2  and  N_3 
REMARK    2  A    between atoms: N_3  and  C_4 
ROOT
HETATM    1  C   UNL     1      43.932 -17.874   4.405  1.00  0.00     0.143 A 
HETATM    2  N   UNL     1      43.920 -17.243   5.605  1.00  0.00    -0.223 NA
HETATM    3  C   UNL     1      44.105 -17.950   6.730  1.00  0.00     0.236 A 
HETATM    4  N   UNL     1      44.316 -19.261   6.842  1.00  0.00    -0.234 NA
HETATM    5  C   UNL     1      44.331 -19.874   5.648  1.00  0.00     0.114 A 
HETATM    6  C   UNL     1      44.147 -19.272   4.401  1.00  0.00     0.053 A 
HETATM    7  S   UNL     1      44.596 -21.571   5.554  1.00  0.00    -0.073 SA
HETATM    8  C   UNL     1      44.478 -21.517   3.891  1.00  0.00    -0.008 A 
HETATM    9  C   UNL     1      44.237 -20.269   3.384  1.00  0.00    -0.028 A 
HETATM   10  C   UNL     1      44.163 -20.314   1.901  1.00  0.00     0.041 C 
HETATM   11  C   UNL     1      44.062 -21.844   1.609  1.00  0.00     0.010 C 
HETATM   12  C   UNL     1      44.604 -22.581   2.870  1.00  0.00     0.047 C 
ENDROOT
BRANCH   1  13
HETATM   13  N   UNL     1      43.701 -17.165   3.217  1.00  0.00    -0.340 N 
HETATM   14  H   UNL     1      44.512 -17.092   2.623  1.00  0.00     0.167 HD
BRANCH  13  15
HETATM   15  C   UNL     1      42.551 -16.545   2.699  1.00  0.00     0.036 A 
HETATM   16  C   UNL     1      41.305 -16.564   3.338  1.00  0.00     0.032 A 
HETATM   17  C   UNL     1      40.181 -15.959   2.763  1.00  0.00     0.042 A 
HETATM   18  C   UNL     1      40.287 -15.334   1.526  1.00  0.00     0.102 A 
HETATM   19  C   UNL     1      41.509 -15.338   0.853  1.00  0.00     0.104 A 
HETATM   20  O   UNL     1      39.151 -14.752   1.025  1.00  0.00    -0.346 OA
HETATM   21  C   UNL     1      42.632 -15.924   1.441  1.00  0.00     0.069 A 
HETATM   22  O   UNL     1      41.683 -14.785  -0.392  1.00  0.00    -0.346 OA
HETATM   23  C   UNL     1      40.424 -14.555  -1.034  1.00  0.00     0.202 C 
HETATM   24  C   UNL     1      39.449 -13.888  -0.078  1.00  0.00     0.202 C 
ENDBRANCH  13  15
ENDBRANCH   1  13
TORSDOF 2
ENDMDL
MODEL 4
REMARK VINA RESULT:      -7.9      2.351      3.737
REMARK  2 active torsions:
REMARK  status: ('A' for Active; 'I' for Inactive)
REMARK    1  A    between atoms: C_2  and  N_3 
REMARK    2  A    between atoms: N_3  and  C_4 
ROOT
HETATM    1  C   UNL     1      43.984 -19.607   2.318  1.00  0.00     0.143 A 
HETATM    2  N   UNL     1      44.028 -20.679   1.489  1.00  0.00    -0.223 NA
HETATM    3  C   UNL     1      44.239 -21.903   1.995  1.00  0.00     0.236 A 
HETATM    4  N   UNL     1      44.420 -22.235   3.273  1.00  0.00    -0.234 NA
HETATM    5  C   UNL     1      44.371 -21.166   4.084  1.00  0.00     0.114 A 
HETATM    6  C   UNL     1      44.166 -19.839   3.701  1.00  0.00     0.053 A 
HETATM    7  S   UNL     1      44.573 -21.363   5.782  1.00  0.00    -0.073 SA
HETATM    8  C   UNL     1      44.384 -19.722   6.013  1.00  0.00    -0.008 A 
HETATM    9  C   UNL     1      44.182 -19.010   4.862  1.00  0.00    -0.028 A 
HETATM   10  C   UNL     1      44.011 -17.566   5.165  1.00  0.00     0.041 C 
HETATM   11  C   UNL     1      44.478 -17.470   6.652  1.00  0.00     0.010 C 
HETATM   12  C   UNL     1      44.385 -18.906   7.249  1.00  0.00     0.047 C 
ENDROOT
BRANCH   1  13
HETATM   13  N   UNL     1      43.805 -18.312   1.810  1.00  0.00    -0.340 N 
HETATM   14  H   UNL     1      44.648 -17.901   1.439  1.00  0.00     0.167 HD
BRANCH  13  15
HETATM   15  C   UNL     1      42.673 -17.484   1.717  1.00  0.00     0.036 A 
HETATM   16  C   UNL     1      41.559 -17.598   2.557  1.00  0.00     0.032 A 
HETATM   17  C   UNL     1      40.441 -16.770   2.401  1.00  0.00     0.042 A 
HETATM   18  C   UNL     1      40.416 -15.821   1.386  1.00  0.00     0.102 A 
HETATM   19  C   UNL     1      41.500 -15.718   0.512  1.00  0.00     0.104 A 
HETATM   20  O   UNL     1      39.296 -15.036   1.297  1.00  0.00    -0.346 OA
HETATM   21  C   UNL     1      42.621 -16.531   0.686  1.00  0.00     0.069 A 
HETATM   22  O   UNL     1      41.532 -14.839  -0.543  1.00  0.00    -0.346 OA
HETATM   23  C   UNL     1      40.222 -14.340  -0.838  1.00  0.00     0.202 C 
HETATM   24  C   UNL     1      39.513 -13.912   0.436  1.00  0.00     0.202 C 
ENDBRANCH  13  15
ENDBRANCH   1  13
TORSDOF 2
ENDMDL
MODEL 5
REMARK VINA RESULT:      -7.8      3.588      5.238
REMARK  2 active torsions:
REMARK  status: ('A' for Active; 'I' for Inactive)
REMARK    1  A    between atoms: C_2  and  N_3 
REMARK    2  A    between atoms: N_3  and  C_4 
ROOT
HETATM    1  C   UNL     1      41.603 -17.208   3.675  1.00  0.00     0.143 A 
HETATM    2  N   UNL     1      41.633 -17.540   2.361  1.00  0.00    -0.223 NA
HETATM    3  C   UNL     1      42.524 -18.442   1.924  1.00  0.00     0.236 A 
HETATM    4  N   UNL     1      43.435 -19.100   2.641  1.00  0.00    -0.234 NA
HETATM    5  C   UNL     1      43.392 -18.766   3.940  1.00  0.00     0.114 A 
HETATM    6  C   UNL     1      42.528 -17.844   4.535  1.00  0.00     0.053 A 
HETATM    7  S   UNL     1      44.478 -19.502   5.055  1.00  0.00    -0.073 SA
HETATM    8  C   UNL     1      43.815 -18.623   6.309  1.00  0.00    -0.008 A 
HETATM    9  C   UNL     1      42.805 -17.780   5.933  1.00  0.00    -0.028 A 
HETATM   10  C   UNL     1      42.267 -17.053   7.112  1.00  0.00     0.041 C 
HETATM   11  C   UNL     1      43.340 -17.341   8.210  1.00  0.00     0.010 C 
HETATM   12  C   UNL     1      44.121 -18.609   7.757  1.00  0.00     0.047 C 
ENDROOT
BRANCH   1  13
HETATM   13  N   UNL     1      40.709 -16.238   4.152  1.00  0.00    -0.340 N 
HETATM   14  H   UNL     1      39.752 -16.553   4.194  1.00  0.00     0.167 HD
BRANCH  13  15
HETATM   15  C   UNL     1      40.898 -14.913   4.585  1.00  0.00     0.036 A 
HETATM   16  C   UNL     1      42.038 -14.157   4.289  1.00  0.00     0.032 A 
HETATM   17  C   UNL     1      42.192 -12.852   4.773  1.00  0.00     0.042 A 
HETATM   18  C   UNL     1      41.209 -12.289   5.577  1.00  0.00     0.102 A 
HETATM   19  C   UNL     1      40.082 -13.040   5.917  1.00  0.00     0.104 A 
HETATM   20  O   UNL     1      41.417 -11.005   6.007  1.00  0.00    -0.346 OA
HETATM   21  C   UNL     1      39.923 -14.333   5.413  1.00  0.00     0.069 A 
HETATM   22  O   UNL     1      39.090 -12.574   6.743  1.00  0.00    -0.346 OA
HETATM   23  C   UNL     1      39.527 -11.422   7.474  1.00  0.00     0.202 C 
HETATM   24  C   UNL     1      40.222 -10.434   6.551  1.00  0.00     0.202 C 
ENDBRANCH  13  15
ENDBRANCH   1  13
TORSDOF 2
ENDMDL
MODEL 6
REMARK VINA RESULT:      -7.7      3.815      4.604
REMARK  2 active torsions:
REMARK  status: ('A' for Active; 'I' for Inactive)
REMARK    1  A    between atoms: C_2  and  N_3 
REMARK    2  A    between atoms: N_3  and  C_4 
ROOT
HETATM    1  C   UNL     1      43.334 -16.728   6.098  1.00  0.00     0.143 A 
HETATM    2  N   UNL     1      43.318 -16.699   7.454  1.00  0.00    -0.223 NA
HETATM    3  C   UNL     1      43.630 -17.804   8.146  1.00  0.00     0.236 A 
HETATM    4  N   UNL     1      43.977 -18.997   7.662  1.00  0.00    -0.234 NA
HETATM    5  C   UNL     1      43.993 -19.012   6.319  1.00  0.00     0.114 A 
HETATM    6  C   UNL     1      43.688 -17.945   5.471  1.00  0.00     0.053 A 
HETATM    7  S   UNL     1      44.422 -20.451   5.479  1.00  0.00    -0.073 SA
HETATM    8  C   UNL     1      44.217 -19.679   4.014  1.00  0.00    -0.008 A 
HETATM    9  C   UNL     1      43.826 -18.372   4.117  1.00  0.00    -0.028 A 
HETATM   10  C   UNL     1      43.683 -17.763   2.769  1.00  0.00     0.041 C 
HETATM   11  C   UNL     1      43.722 -19.007   1.826  1.00  0.00     0.010 C 
HETATM   12  C   UNL     1      44.397 -20.160   2.626  1.00  0.00     0.047 C 
ENDROOT
BRANCH   1  13
HETATM   13  N   UNL     1      42.973 -15.597   5.350  1.00  0.00    -0.340 N 
HETATM   14  H   UNL     1      43.551 -15.446   4.538  1.00  0.00     0.167 HD
BRANCH  13  15
HETATM   15  C   UNL     1      41.957 -14.641   5.518  1.00  0.00     0.036 A 
HETATM   16  C   UNL     1      40.594 -14.925   5.369  1.00  0.00     0.032 A 
HETATM   17  C   UNL     1      39.622 -13.928   5.514  1.00  0.00     0.042 A 
HETATM   18  C   UNL     1      40.003 -12.622   5.798  1.00  0.00     0.102 A 
HETATM   19  C   UNL     1      41.359 -12.309   5.911  1.00  0.00     0.104 A 
HETATM   20  O   UNL     1      39.001 -11.698   5.939  1.00  0.00    -0.346 OA
HETATM   21  C   UNL     1      42.323 -13.311   5.787  1.00  0.00     0.069 A 
HETATM   22  O   UNL     1      41.819 -11.036   6.143  1.00  0.00    -0.346 OA
HETATM   23  C   UNL     1      40.797 -10.065   5.886  1.00  0.00     0.202 C 
HETATM   24  C   UNL     1      39.485 -10.486   6.527  1.00  0.00     0.202 C 
ENDBRANCH  13  15
ENDBRANCH   1  13
TORSDOF 2
ENDMDL
MODEL 7
REMARK VINA RESULT:      -7.6      1.844      2.510
REMARK  2 active torsions:
REMARK  status: ('A' for Active; 'I' for Inactive)
REMARK    1  A    between atoms: C_2  and  N_3 
REMARK    2  A    between atoms: N_3  and  C_4 
ROOT
HETATM    1  C   UNL     1      41.667 -17.163   5.122  1.00  0.00     0.143 A 
HETATM    2  N   UNL     1      41.524 -16.720   6.396  1.00  0.00    -0.223 NA
HETATM    3  C   UNL     1      42.309 -17.216   7.364  1.00  0.00     0.236 A 
HETATM    4  N   UNL     1      43.268 -18.134   7.243  1.00  0.00    -0.234 NA
HETATM    5  C   UNL     1      43.402 -18.561   5.978  1.00  0.00     0.114 A 
HETATM    6  C   UNL     1      42.656 -18.142   4.874  1.00  0.00     0.053 A 
HETATM    7  S   UNL     1      44.590 -19.744   5.590  1.00  0.00    -0.073 SA
HETATM    8  C   UNL     1      44.135 -19.702   3.985  1.00  0.00    -0.008 A 
HETATM    9  C   UNL     1      43.111 -18.836   3.714  1.00  0.00    -0.028 A 
HETATM   10  C   UNL     1      42.783 -18.854   2.264  1.00  0.00     0.041 C 
HETATM   11  C   UNL     1      43.547 -20.118   1.757  1.00  0.00     0.010 C 
HETATM   12  C   UNL     1      44.656 -20.428   2.805  1.00  0.00     0.047 C 
ENDROOT
BRANCH   1  13
HETATM   13  N   UNL     1      40.831 -16.691   4.099  1.00  0.00    -0.340 N 
HETATM   14  H   UNL     1      40.068 -17.312   3.879  1.00  0.00     0.167 HD
BRANCH  13  15
HETATM   15  C   UNL     1      40.856 -15.515   3.329  1.00  0.00     0.036 A 
HETATM   16  C   UNL     1      41.797 -15.267   2.323  1.00  0.00     0.032 A 
HETATM   17  C   UNL     1      41.799 -14.064   1.607  1.00  0.00     0.042 A 
HETATM   18  C   UNL     1      40.862 -13.080   1.901  1.00  0.00     0.102 A 
HETATM   19  C   UNL     1      39.940 -13.290   2.928  1.00  0.00     0.104 A 
HETATM   20  O   UNL     1      40.912 -11.932   1.155  1.00  0.00    -0.346 OA
HETATM   21  C   UNL     1      39.928 -14.501   3.623  1.00  0.00     0.069 A 
HETATM   22  O   UNL     1      39.014 -12.351   3.309  1.00  0.00    -0.346 OA
HETATM   23  C   UNL     1      39.353 -11.056   2.798  1.00  0.00     0.202 C 
HETATM   24  C   UNL     1      39.730 -11.142   1.329  1.00  0.00     0.202 C 
ENDBRANCH  13  15
ENDBRANCH   1  13
TORSDOF 2
ENDMDL
MODEL 8
REMARK VINA RESULT:      -7.6      3.902      7.071
REMARK  2 active torsions:
REMARK  status: ('A' for Active; 'I' for Inactive)
REMARK    1  A    between atoms: C_2  and  N_3 
REMARK    2  A    between atoms: N_3  and  C_4 
ROOT
HETATM    1  C   UNL     1      42.020 -16.184   2.536  1.00  0.00     0.143 A 
HETATM    2  N   UNL     1      41.042 -16.533   1.665  1.00  0.00    -0.223 NA
HETATM    3  C   UNL     1      39.849 -15.922   1.725  1.00  0.00     0.236 A 
HETATM    4  N   UNL     1      39.469 -14.961   2.567  1.00  0.00    -0.234 NA
HETATM    5  C   UNL     1      40.447 -14.621   3.421  1.00  0.00     0.114 A 
HETATM    6  C   UNL     1      41.729 -15.172   3.480  1.00  0.00     0.053 A 
HETATM    7  S   UNL     1      40.177 -13.392   4.595  1.00  0.00    -0.073 SA
HETATM    8  C   UNL     1      41.732 -13.575   5.171  1.00  0.00    -0.008 A 
HETATM    9  C   UNL     1      42.462 -14.535   4.525  1.00  0.00    -0.028 A 
HETATM   10  C   UNL     1      43.833 -14.618   5.093  1.00  0.00     0.041 C 
HETATM   11  C   UNL     1      43.708 -13.788   6.409  1.00  0.00     0.010 C 
HETATM   12  C   UNL     1      42.461 -12.869   6.249  1.00  0.00     0.047 C 
ENDROOT
BRANCH   1  13
HETATM   13  N   UNL     1      43.263 -16.835   2.521  1.00  0.00    -0.340 N 
HETATM   14  H   UNL     1      44.031 -16.238   2.257  1.00  0.00     0.167 HD
BRANCH  13  15
HETATM   15  C   UNL     1      43.636 -18.159   2.810  1.00  0.00     0.036 A 
HETATM   16  C   UNL     1      43.731 -19.166   1.842  1.00  0.00     0.032 A 
HETATM   17  C   UNL     1      44.075 -20.479   2.188  1.00  0.00     0.042 A 
HETATM   18  C   UNL     1      44.316 -20.806   3.516  1.00  0.00     0.102 A 
HETATM   19  C   UNL     1      44.188 -19.826   4.503  1.00  0.00     0.104 A 
HETATM   20  O   UNL     1      44.660 -22.106   3.784  1.00  0.00    -0.346 OA
HETATM   21  C   UNL     1      43.867 -18.514   4.150  1.00  0.00     0.069 A 
HETATM   22  O   UNL     1      44.364 -20.080   5.840  1.00  0.00    -0.346 OA
HETATM   23  C   UNL     1      44.322 -21.487   6.108  1.00  0.00     0.202 C 
HETATM   24  C   UNL     1      45.180 -22.247   5.110  1.00  0.00     0.202 C 
ENDBRANCH  13  15
ENDBRANCH   1  13
TORSDOF 2
ENDMDL
MODEL 9
REMARK VINA RESULT:      -7.6      1.901      3.570
REMARK  2 active torsions:
REMARK  status: ('A' for Active; 'I' for Inactive)
REMARK    1  A    between atoms: C_2  and  N_3 
REMARK    2  A    between atoms: N_3  and  C_4 
ROOT
HETATM    1  C   UNL     1      42.869 -19.110   2.643  1.00  0.00     0.143 A 
HETATM    2  N   UNL     1      43.732 -19.940   2.007  1.00  0.00    -0.223 NA
HETATM    3  C   UNL     1      44.784 -20.439   2.672  1.00  0.00     0.236 A 
HETATM    4  N   UNL     1      45.120 -20.226   3.944  1.00  0.00    -0.234 NA
HETATM    5  C   UNL     1      44.255 -19.407   4.564  1.00  0.00     0.114 A 
HETATM    6  C   UNL     1      43.125 -18.810   4.001  1.00  0.00     0.053 A 
HETATM    7  S   UNL     1      44.490 -18.999   6.218  1.00  0.00    -0.073 SA
HETATM    8  C   UNL     1      43.116 -18.052   6.200  1.00  0.00    -0.008 A 
HETATM    9  C   UNL     1      42.476 -18.014   4.991  1.00  0.00    -0.028 A 
HETATM   10  C   UNL     1      41.261 -17.162   5.072  1.00  0.00     0.041 C 
HETATM   11  C   UNL     1      41.453 -16.420   6.432  1.00  0.00     0.010 C 
HETATM   12  C   UNL     1      42.465 -17.260   7.266  1.00  0.00     0.047 C 
ENDROOT
BRANCH   1  13
HETATM   13  N   UNL     1      41.783 -18.541   1.960  1.00  0.00    -0.340 N 
HETATM   14  H   UNL     1      41.058 -19.202   1.729  1.00  0.00     0.167 HD
BRANCH  13  15
HETATM   15  C   UNL     1      41.516 -17.225   1.544  1.00  0.00     0.036 A 
HETATM   16  C   UNL     1      42.470 -16.392   0.949  1.00  0.00     0.032 A 
HETATM   17  C   UNL     1      42.162 -15.076   0.583  1.00  0.00     0.042 A 
HETATM   18  C   UNL     1      40.891 -14.569   0.823  1.00  0.00     0.102 A 
HETATM   19  C   UNL     1      39.936 -15.370   1.451  1.00  0.00     0.104 A 
HETATM   20  O   UNL     1      40.653 -13.278   0.429  1.00  0.00    -0.346 OA
HETATM   21  C   UNL     1      40.242 -16.688   1.794  1.00  0.00     0.069 A 
HETATM   22  O   UNL     1      38.674 -14.928   1.764  1.00  0.00    -0.346 OA
HETATM   23  C   UNL     1      38.600 -13.498   1.709  1.00  0.00     0.202 C 
HETATM   24  C   UNL     1      39.252 -12.978   0.439  1.00  0.00     0.202 C 
ENDBRANCH  13  15
ENDBRANCH   1  13
TORSDOF 2
ENDMDL
MODEL 10
REMARK VINA RESULT:      -7.6      3.631      5.356
REMARK  2 active torsions:
REMARK  status: ('A' for Active; 'I' for Inactive)
REMARK    1  A    between atoms: C_2  and  N_3 
REMARK    2  A    between atoms: N_3  and  C_4 
ROOT
HETATM    1  C   UNL     1      41.062 -16.792   3.434  1.00  0.00     0.143 A 
HETATM    2  N   UNL     1      40.548 -16.640   2.188  1.00  0.00    -0.223 NA
HETATM    3  C   UNL     1      41.084 -17.315   1.161  1.00  0.00     0.236 A 
HETATM    4  N   UNL     1      42.108 -18.167   1.193  1.00  0.00    -0.234 NA
HETATM    5  C   UNL     1      42.606 -18.312   2.432  1.00  0.00     0.114 A 
HETATM    6  C   UNL     1      42.157 -17.674   3.589  1.00  0.00     0.053 A 
HETATM    7  S   UNL     1      43.932 -19.373   2.708  1.00  0.00    -0.073 SA
HETATM    8  C   UNL     1      43.912 -19.004   4.335  1.00  0.00    -0.008 A 
HETATM    9  C   UNL     1      42.950 -18.100   4.695  1.00  0.00    -0.028 A 
HETATM   10  C   UNL     1      42.998 -17.844   6.158  1.00  0.00     0.041 C 
HETATM   11  C   UNL     1      44.362 -18.480   6.573  1.00  0.00     0.010 C 
HETATM   12  C   UNL     1      44.746 -19.494   5.455  1.00  0.00     0.047 C 
ENDROOT
BRANCH   1  13
HETATM   13  N   UNL     1      40.546 -16.067   4.519  1.00  0.00    -0.340 N 
HETATM   14  H   UNL     1      39.803 -16.542   5.008  1.00  0.00     0.167 HD
BRANCH  13  15
HETATM   15  C   UNL     1      40.873 -14.809   5.052  1.00  0.00     0.036 A 
HETATM   16  C   UNL     1      42.178 -14.303   5.100  1.00  0.00     0.032 A 
HETATM   17  C   UNL     1      42.456 -13.056   5.674  1.00  0.00     0.042 A 
HETATM   18  C   UNL     1      41.427 -12.301   6.223  1.00  0.00     0.102 A 
HETATM   19  C   UNL     1      40.125 -12.803   6.222  1.00  0.00     0.104 A 
HETATM   20  O   UNL     1      41.767 -11.085   6.758  1.00  0.00    -0.346 OA
HETATM   21  C   UNL     1      39.850 -14.037   5.629  1.00  0.00     0.069 A 
HETATM   22  O   UNL     1      39.063 -12.140   6.786  1.00  0.00    -0.346 OA
HETATM   23  C   UNL     1      39.513 -11.100   7.663  1.00  0.00     0.202 C 
HETATM   24  C   UNL     1      40.609 -10.279   7.003  1.00  0.00     0.202 C 
ENDBRANCH  13  15
ENDBRANCH   1  13
TORSDOF 2
ENDMDL
