MODEL 1
REMARK VINA RESULT:      -9.3      0.000      0.000
REMARK  9 active torsions:
REMARK  status: ('A' for Active; 'I' for Inactive)
REMARK    1  A    between atoms: C_2  and  O_3 
REMARK    2  A    between atoms: O_3  and  C_4 
REMARK    3  A    between atoms: C_7  and  C_8 
REMARK       I    between atoms: C_8  and  N_9 
REMARK    4  A    between atoms: N_9  and  C_10 
REMARK    5  A    between atoms: C_10  and  N_11 
REMARK    6  A    between atoms: N_11  and  C_12 
REMARK    7  A    between atoms: C_15  and  N_16 
REMARK    8  A    between atoms: N_19  and  C_21 
REMARK    9  A    between atoms: C_21  and  C_22 
ROOT
HETATM    1  C   UNL     1      43.980 -14.405   6.997  1.00  0.00     0.034 C 
HETATM    2  C   UNL     1      43.685 -13.583   5.913  1.00  0.00     0.032 C 
HETATM    3  C   UNL     1      43.077 -14.105   4.767  1.00  0.00     0.031 C 
HETATM    4  C   UNL     1      42.699 -15.451   4.688  1.00  0.00     0.030 C 
HETATM    5  C   UNL     1      43.143 -16.282   5.733  1.00  0.00     0.031 C 
HETATM    6  C   UNL     1      43.787 -15.774   6.871  1.00  0.00     0.032 C 
ENDROOT
BRANCH   1   7
HETATM    7  N   UNL     1      44.487 -13.888   8.204  1.00  0.00    -0.333 N 
HETATM    8  H   UNL     1      44.401 -14.473   9.030  1.00  0.00     0.168 HD
BRANCH   7   9
HETATM    9  C   UNL     1      45.141 -12.705   8.383  1.00  0.00     0.179 C 
HETATM   10  S   UNL     1      46.645 -12.466   7.705  1.00  0.00    -0.040 SA
BRANCH   9  11
HETATM   11  N   UNL     1      44.582 -11.714   9.146  1.00  0.00    -0.299 N 
HETATM   12  C   UNL     1      44.229 -11.826  10.483  1.00  0.00     0.257 C 
HETATM   13  O   UNL     1      44.465 -12.763  11.237  1.00  0.00    -0.267 OA
HETATM   14  H   UNL     1      44.783 -10.776   8.823  1.00  0.00     0.171 HD
BRANCH  12  15
HETATM   15  C   UNL     1      43.538 -10.658  11.057  1.00  0.00     0.032 A 
HETATM   16  C   UNL     1      42.552  -9.997  10.322  1.00  0.00     0.020 A 
HETATM   17  C   UNL     1      41.764  -9.033  10.955  1.00  0.00     0.038 A 
HETATM   18  C   UNL     1      41.956  -8.724  12.307  1.00  0.00     0.069 A 
HETATM   19  C   UNL     1      42.986  -9.346  13.012  1.00  0.00     0.038 A 
HETATM   20  C   UNL     1      43.765 -10.329  12.395  1.00  0.00     0.020 A 
BRANCH  18  21
HETATM   21  O   UNL     1      41.049  -7.837  12.814  1.00  0.00    -0.347 OA
BRANCH  21  22
HETATM   22  C   UNL     1      40.074  -8.290  13.763  1.00  0.00     0.120 C 
HETATM   23  C   UNL     1      38.661  -7.934  13.304  1.00  0.00     0.040 C 
HETATM   24  C   UNL     1      40.376  -7.569  15.076  1.00  0.00     0.040 C 
ENDBRANCH  21  22
ENDBRANCH  18  21
ENDBRANCH  12  15
ENDBRANCH   9  11
ENDBRANCH   7   9
ENDBRANCH   1   7
BRANCH   4  25
HETATM   25  N   UNL     1      41.922 -15.973   3.640  1.00  0.00    -0.378 N 
HETATM   26  C   UNL     1      41.390 -17.349   3.742  1.00  0.00     0.150 C 
HETATM   27  C   UNL     1      42.459 -18.409   3.382  1.00  0.00     0.255 C 
HETATM   28  N   UNL     1      43.118 -18.114   2.031  1.00  0.00    -0.064 N 
HETATM   29  H   UNL     1      42.398 -18.257   1.313  1.00  0.00     0.280 HD
HETATM   30  C   UNL     1      43.590 -16.659   1.930  1.00  0.00     0.255 C 
HETATM   31  C   UNL     1      42.442 -15.687   2.280  1.00  0.00     0.150 C 
BRANCH  28  32
HETATM   32  C   UNL     1      44.254 -19.066   1.724  1.00  0.00     0.273 C 
BRANCH  32  33
HETATM   33  C   UNL     1      44.417 -20.143   2.761  1.00  0.00    -0.033 A 
HETATM   34  C   UNL     1      44.751 -19.815   4.084  1.00  0.00     0.009 A 
HETATM   35  C   UNL     1      44.935 -20.820   5.036  1.00  0.00     0.001 A 
HETATM   36  C   UNL     1      44.792 -22.158   4.676  1.00  0.00     0.000 A 
HETATM   37  C   UNL     1      44.457 -22.497   3.367  1.00  0.00     0.001 A 
HETATM   38  C   UNL     1      44.265 -21.495   2.413  1.00  0.00     0.009 A 
ENDBRANCH  32  33
ENDBRANCH  28  32
ENDBRANCH   4  25
TORSDOF 9
ENDMDL
MODEL 2
REMARK VINA RESULT:      -9.3      3.158      4.018
REMARK  9 active torsions:
REMARK  status: ('A' for Active; 'I' for Inactive)
REMARK    1  A    between atoms: C_2  and  O_3 
REMARK    2  A    between atoms: O_3  and  C_4 
REMARK    3  A    between atoms: C_7  and  C_8 
REMARK       I    between atoms: C_8  and  N_9 
REMARK    4  A    between atoms: N_9  and  C_10 
REMARK    5  A    between atoms: C_10  and  N_11 
REMARK    6  A    between atoms: N_11  and  C_12 
REMARK    7  A    between atoms: C_15  and  N_16 
REMARK    8  A    between atoms: N_19  and  C_21 
REMARK    9  A    between atoms: C_21  and  C_22 
ROOT
HETATM    1  C   UNL     1      41.037 -11.958   3.092  1.00  0.00     0.034 C 
HETATM    2  C   UNL     1      40.148 -12.881   3.636  1.00  0.00     0.032 C 
HETATM    3  C   UNL     1      39.904 -14.100   2.995  1.00  0.00     0.031 C 
HETATM    4  C   UNL     1      40.578 -14.456   1.821  1.00  0.00     0.030 C 
HETATM    5  C   UNL     1      41.353 -13.447   1.219  1.00  0.00     0.031 C 
HETATM    6  C   UNL     1      41.574 -12.206   1.836  1.00  0.00     0.032 C 
ENDROOT
BRANCH   1   7
HETATM    7  N   UNL     1      41.386 -10.775   3.770  1.00  0.00    -0.333 N 
HETATM    8  H   UNL     1      42.277 -10.352   3.531  1.00  0.00     0.168 HD
BRANCH   7   9
HETATM    9  C   UNL     1      40.631 -10.093   4.677  1.00  0.00     0.179 C 
HETATM   10  S   UNL     1      39.378  -9.119   4.165  1.00  0.00    -0.040 SA
BRANCH   9  11
HETATM   11  N   UNL     1      40.914 -10.176   6.015  1.00  0.00    -0.299 N 
HETATM   12  C   UNL     1      40.141 -10.828   6.965  1.00  0.00     0.257 C 
HETATM   13  O   UNL     1      39.161 -11.536   6.766  1.00  0.00    -0.267 OA
HETATM   14  H   UNL     1      41.897 -10.082   6.239  1.00  0.00     0.171 HD
BRANCH  12  15
HETATM   15  C   UNL     1      40.594 -10.682   8.359  1.00  0.00     0.032 A 
HETATM   16  C   UNL     1      39.745 -11.030   9.412  1.00  0.00     0.020 A 
HETATM   17  C   UNL     1      40.258 -11.088  10.709  1.00  0.00     0.038 A 
HETATM   18  C   UNL     1      41.604 -10.797  10.962  1.00  0.00     0.069 A 
HETATM   19  C   UNL     1      42.425 -10.389   9.911  1.00  0.00     0.038 A 
HETATM   20  C   UNL     1      41.928 -10.351   8.606  1.00  0.00     0.020 A 
BRANCH  18  21
HETATM   21  O   UNL     1      41.987 -10.990  12.259  1.00  0.00    -0.347 OA
BRANCH  21  22
HETATM   22  C   UNL     1      42.098  -9.861  13.136  1.00  0.00     0.120 C 
HETATM   23  C   UNL     1      43.560  -9.448  13.308  1.00  0.00     0.040 C 
HETATM   24  C   UNL     1      41.535 -10.301  14.487  1.00  0.00     0.040 C 
ENDBRANCH  21  22
ENDBRANCH  18  21
ENDBRANCH  12  15
ENDBRANCH   9  11
ENDBRANCH   7   9
ENDBRANCH   1   7
BRANCH   4  25
HETATM   25  N   UNL     1      40.507 -15.739   1.250  1.00  0.00    -0.378 N 
HETATM   26  C   UNL     1      40.142 -16.894   2.097  1.00  0.00     0.150 C 
HETATM   27  C   UNL     1      41.346 -17.407   2.924  1.00  0.00     0.255 C 
HETATM   28  N   UNL     1      42.571 -17.667   2.042  1.00  0.00    -0.064 N 
HETATM   29  H   UNL     1      42.341 -18.469   1.445  1.00  0.00     0.280 HD
HETATM   30  C   UNL     1      42.877 -16.478   1.123  1.00  0.00     0.255 C 
HETATM   31  C   UNL     1      41.620 -16.068   0.324  1.00  0.00     0.150 C 
BRANCH  28  32
HETATM   32  C   UNL     1      43.793 -18.043   2.850  1.00  0.00     0.273 C 
BRANCH  32  33
HETATM   33  C   UNL     1      44.006 -19.529   2.941  1.00  0.00    -0.033 A 
HETATM   34  C   UNL     1      44.573 -20.100   4.092  1.00  0.00     0.009 A 
HETATM   35  C   UNL     1      44.801 -21.475   4.159  1.00  0.00     0.001 A 
HETATM   36  C   UNL     1      44.471 -22.292   3.079  1.00  0.00     0.000 A 
HETATM   37  C   UNL     1      43.905 -21.739   1.933  1.00  0.00     0.001 A 
HETATM   38  C   UNL     1      43.669 -20.364   1.864  1.00  0.00     0.009 A 
ENDBRANCH  32  33
ENDBRANCH  28  32
ENDBRANCH   4  25
TORSDOF 9
ENDMDL
MODEL 3
REMARK VINA RESULT:      -9.3      2.449      2.900
REMARK  9 active torsions:
REMARK  status: ('A' for Active; 'I' for Inactive)
REMARK    1  A    between atoms: C_2  and  O_3 
REMARK    2  A    between atoms: O_3  and  C_4 
REMARK    3  A    between atoms: C_7  and  C_8 
REMARK       I    between atoms: C_8  and  N_9 
REMARK    4  A    between atoms: N_9  and  C_10 
REMARK    5  A    between atoms: C_10  and  N_11 
REMARK    6  A    between atoms: N_11  and  C_12 
REMARK    7  A    between atoms: C_15  and  N_16 
REMARK    8  A    between atoms: N_19  and  C_21 
REMARK    9  A    between atoms: C_21  and  C_22 
ROOT
HETATM    1  C   UNL     1      40.700 -12.702   5.952  1.00  0.00     0.034 C 
HETATM    2  C   UNL     1      39.699 -13.595   5.581  1.00  0.00     0.032 C 
HETATM    3  C   UNL     1      39.804 -14.334   4.398  1.00  0.00     0.031 C 
HETATM    4  C   UNL     1      40.935 -14.242   3.577  1.00  0.00     0.030 C 
HETATM    5  C   UNL     1      41.855 -13.227   3.899  1.00  0.00     0.031 C 
HETATM    6  C   UNL     1      41.739 -12.455   5.065  1.00  0.00     0.032 C 
ENDROOT
BRANCH   1   7
HETATM    7  N   UNL     1      40.675 -12.031   7.189  1.00  0.00    -0.333 N 
HETATM    8  H   UNL     1      40.889 -12.579   8.017  1.00  0.00     0.168 HD
BRANCH   7   9
HETATM    9  C   UNL     1      40.452 -10.703   7.401  1.00  0.00     0.179 C 
HETATM   10  S   UNL     1      39.622  -9.799   6.272  1.00  0.00    -0.040 SA
BRANCH   9  11
HETATM   11  N   UNL     1      40.935 -10.092   8.528  1.00  0.00    -0.299 N 
HETATM   12  C   UNL     1      42.195 -10.286   9.075  1.00  0.00     0.257 C 
HETATM   13  O   UNL     1      43.124 -10.922   8.592  1.00  0.00    -0.267 OA
HETATM   14  H   UNL     1      40.496  -9.204   8.741  1.00  0.00     0.171 HD
BRANCH  12  15
HETATM   15  C   UNL     1      42.442  -9.602  10.357  1.00  0.00     0.032 A 
HETATM   16  C   UNL     1      41.621  -8.546  10.757  1.00  0.00     0.020 A 
HETATM   17  C   UNL     1      41.733  -8.052  12.059  1.00  0.00     0.038 A 
HETATM   18  C   UNL     1      42.658  -8.600  12.957  1.00  0.00     0.069 A 
HETATM   19  C   UNL     1      43.515  -9.611  12.524  1.00  0.00     0.038 A 
HETATM   20  C   UNL     1      43.395 -10.129  11.231  1.00  0.00     0.020 A 
BRANCH  18  21
HETATM   21  O   UNL     1      42.587  -8.085  14.220  1.00  0.00    -0.347 OA
BRANCH  21  22
HETATM   22  C   UNL     1      41.426  -8.342  15.021  1.00  0.00     0.120 C 
HETATM   23  C   UNL     1      41.299  -7.308  16.141  1.00  0.00     0.040 C 
HETATM   24  C   UNL     1      41.617  -9.729  15.634  1.00  0.00     0.040 C 
ENDBRANCH  21  22
ENDBRANCH  18  21
ENDBRANCH  12  15
ENDBRANCH   9  11
ENDBRANCH   7   9
ENDBRANCH   1   7
BRANCH   4  25
HETATM   25  N   UNL     1      41.167 -15.098   2.487  1.00  0.00    -0.378 N 
HETATM   26  C   UNL     1      40.658 -16.485   2.528  1.00  0.00     0.150 C 
HETATM   27  C   UNL     1      41.576 -17.412   3.361  1.00  0.00     0.255 C 
HETATM   28  N   UNL     1      43.037 -17.318   2.911  1.00  0.00    -0.064 N 
HETATM   29  H   UNL     1      43.084 -17.728   1.971  1.00  0.00     0.280 HD
HETATM   30  C   UNL     1      43.511 -15.864   2.806  1.00  0.00     0.255 C 
HETATM   31  C   UNL     1      42.543 -15.036   1.933  1.00  0.00     0.150 C 
BRANCH  28  32
HETATM   32  C   UNL     1      43.966 -18.118   3.798  1.00  0.00     0.273 C 
BRANCH  32  33
HETATM   33  C   UNL     1      44.081 -19.559   3.384  1.00  0.00    -0.033 A 
HETATM   34  C   UNL     1      44.626 -20.511   4.260  1.00  0.00     0.009 A 
HETATM   35  C   UNL     1      44.763 -21.842   3.859  1.00  0.00     0.001 A 
HETATM   36  C   UNL     1      44.363 -22.233   2.583  1.00  0.00     0.000 A 
HETATM   37  C   UNL     1      43.817 -21.299   1.707  1.00  0.00     0.001 A 
HETATM   38  C   UNL     1      43.672 -19.968   2.104  1.00  0.00     0.009 A 
ENDBRANCH  32  33
ENDBRANCH  28  32
ENDBRANCH   4  25
TORSDOF 9
ENDMDL
MODEL 4
REMARK VINA RESULT:      -9.3      3.100      3.887
REMARK  9 active torsions:
REMARK  status: ('A' for Active; 'I' for Inactive)
REMARK    1  A    between atoms: C_2  and  O_3 
REMARK    2  A    between atoms: O_3  and  C_4 
REMARK    3  A    between atoms: C_7  and  C_8 
REMARK       I    between atoms: C_8  and  N_9 
REMARK    4  A    between atoms: N_9  and  C_10 
REMARK    5  A    between atoms: C_10  and  N_11 
REMARK    6  A    between atoms: N_11  and  C_12 
REMARK    7  A    between atoms: C_15  and  N_16 
REMARK    8  A    between atoms: N_19  and  C_21 
REMARK    9  A    between atoms: C_21  and  C_22 
ROOT
HETATM    1  C   UNL     1      40.401 -11.897   5.021  1.00  0.00     0.034 C 
HETATM    2  C   UNL     1      39.447 -12.902   5.150  1.00  0.00     0.032 C 
HETATM    3  C   UNL     1      39.821 -14.199   5.513  1.00  0.00     0.031 C 
HETATM    4  C   UNL     1      41.152 -14.521   5.807  1.00  0.00     0.030 C 
HETATM    5  C   UNL     1      42.108 -13.527   5.524  1.00  0.00     0.031 C 
HETATM    6  C   UNL     1      41.744 -12.232   5.124  1.00  0.00     0.032 C 
ENDROOT
BRANCH   1   7
HETATM    7  N   UNL     1      40.042 -10.560   4.768  1.00  0.00    -0.333 N 
HETATM    8  H   UNL     1      40.147 -10.225   3.815  1.00  0.00     0.168 HD
BRANCH   7   9
HETATM    9  C   UNL     1      39.506  -9.670   5.651  1.00  0.00     0.179 C 
HETATM   10  S   UNL     1      38.374  -8.557   5.141  1.00  0.00    -0.040 SA
BRANCH   9  11
HETATM   11  N   UNL     1      39.915  -9.662   6.959  1.00  0.00    -0.299 N 
HETATM   12  C   UNL     1      41.168  -9.274   7.411  1.00  0.00     0.257 C 
HETATM   13  O   UNL     1      42.067  -8.761   6.756  1.00  0.00    -0.267 OA
HETATM   14  H   UNL     1      39.162  -9.580   7.631  1.00  0.00     0.171 HD
BRANCH  12  15
HETATM   15  C   UNL     1      41.408  -9.463   8.853  1.00  0.00     0.032 A 
HETATM   16  C   UNL     1      40.830  -8.593   9.779  1.00  0.00     0.020 A 
HETATM   17  C   UNL     1      40.891  -8.908  11.138  1.00  0.00     0.038 A 
HETATM   18  C   UNL     1      41.527 -10.076  11.576  1.00  0.00     0.069 A 
HETATM   19  C   UNL     1      42.156 -10.903  10.646  1.00  0.00     0.038 A 
HETATM   20  C   UNL     1      42.080 -10.610   9.282  1.00  0.00     0.020 A 
BRANCH  18  21
HETATM   21  O   UNL     1      41.423 -10.302  12.919  1.00  0.00    -0.347 OA
BRANCH  21  22
HETATM   22  C   UNL     1      41.954  -9.338  13.839  1.00  0.00     0.120 C 
HETATM   23  C   UNL     1      43.477  -9.270  13.736  1.00  0.00     0.040 C 
HETATM   24  C   UNL     1      41.563  -9.811  15.239  1.00  0.00     0.040 C 
ENDBRANCH  21  22
ENDBRANCH  18  21
ENDBRANCH  12  15
ENDBRANCH   9  11
ENDBRANCH   7   9
ENDBRANCH   1   7
BRANCH   4  25
HETATM   25  N   UNL     1      41.544 -15.755   6.355  1.00  0.00    -0.378 N 
HETATM   26  C   UNL     1      42.982 -16.048   6.534  1.00  0.00     0.150 C 
HETATM   27  C   UNL     1      43.647 -16.504   5.213  1.00  0.00     0.255 C 
HETATM   28  N   UNL     1      42.873 -17.651   4.554  1.00  0.00    -0.064 N 
HETATM   29  H   UNL     1      42.982 -18.469   5.163  1.00  0.00     0.280 HD
HETATM   30  C   UNL     1      41.375 -17.345   4.452  1.00  0.00     0.255 C 
HETATM   31  C   UNL     1      40.807 -16.930   5.826  1.00  0.00     0.150 C 
BRANCH  28  32
HETATM   32  C   UNL     1      43.436 -18.020   3.199  1.00  0.00     0.273 C 
BRANCH  32  33
HETATM   33  C   UNL     1      43.766 -19.482   3.076  1.00  0.00    -0.033 A 
HETATM   34  C   UNL     1      44.465 -20.144   4.097  1.00  0.00     0.009 A 
HETATM   35  C   UNL     1      44.800 -21.493   3.964  1.00  0.00     0.001 A 
HETATM   36  C   UNL     1      44.444 -22.192   2.812  1.00  0.00     0.000 A 
HETATM   37  C   UNL     1      43.746 -21.547   1.794  1.00  0.00     0.001 A 
HETATM   38  C   UNL     1      43.404 -20.200   1.924  1.00  0.00     0.009 A 
ENDBRANCH  32  33
ENDBRANCH  28  32
ENDBRANCH   4  25
TORSDOF 9
ENDMDL
MODEL 5
REMARK VINA RESULT:      -8.9      3.669     11.321
REMARK  9 active torsions:
REMARK  status: ('A' for Active; 'I' for Inactive)
REMARK    1  A    between atoms: C_2  and  O_3 
REMARK    2  A    between atoms: O_3  and  C_4 
REMARK    3  A    between atoms: C_7  and  C_8 
REMARK       I    between atoms: C_8  and  N_9 
REMARK    4  A    between atoms: N_9  and  C_10 
REMARK    5  A    between atoms: C_10  and  N_11 
REMARK    6  A    between atoms: N_11  and  C_12 
REMARK    7  A    between atoms: C_15  and  N_16 
REMARK    8  A    between atoms: N_19  and  C_21 
REMARK    9  A    between atoms: C_21  and  C_22 
ROOT
HETATM    1  C   UNL     1      41.321 -11.156   5.593  1.00  0.00     0.034 C 
HETATM    2  C   UNL     1      40.549 -11.897   6.483  1.00  0.00     0.032 C 
HETATM    3  C   UNL     1      40.013 -11.302   7.630  1.00  0.00     0.031 C 
HETATM    4  C   UNL     1      40.190  -9.939   7.897  1.00  0.00     0.030 C 
HETATM    5  C   UNL     1      41.094  -9.255   7.063  1.00  0.00     0.031 C 
HETATM    6  C   UNL     1      41.666  -9.854   5.930  1.00  0.00     0.032 C 
ENDROOT
BRANCH   1   7
HETATM    7  N   UNL     1      41.777 -11.698   4.377  1.00  0.00    -0.333 N 
HETATM    8  H   UNL     1      42.686 -11.388   4.045  1.00  0.00     0.168 HD
BRANCH   7   9
HETATM    9  C   UNL     1      41.161 -12.645   3.615  1.00  0.00     0.179 C 
HETATM   10  S   UNL     1      39.799 -12.260   2.733  1.00  0.00    -0.040 SA
BRANCH   9  11
HETATM   11  N   UNL     1      41.636 -13.930   3.591  1.00  0.00    -0.299 N 
HETATM   12  C   UNL     1      42.956 -14.299   3.377  1.00  0.00     0.257 C 
HETATM   13  O   UNL     1      43.930 -13.560   3.301  1.00  0.00    -0.267 OA
HETATM   14  H   UNL     1      41.075 -14.591   4.114  1.00  0.00     0.171 HD
BRANCH  12  15
HETATM   15  C   UNL     1      43.202 -15.749   3.283  1.00  0.00     0.032 A 
HETATM   16  C   UNL     1      42.632 -16.618   4.216  1.00  0.00     0.020 A 
HETATM   17  C   UNL     1      42.698 -17.995   3.991  1.00  0.00     0.038 A 
HETATM   18  C   UNL     1      43.330 -18.507   2.851  1.00  0.00     0.069 A 
HETATM   19  C   UNL     1      43.950 -17.631   1.961  1.00  0.00     0.038 A 
HETATM   20  C   UNL     1      43.869 -16.250   2.163  1.00  0.00     0.020 A 
BRANCH  18  21
HETATM   21  O   UNL     1      43.231 -19.862   2.715  1.00  0.00    -0.347 OA
BRANCH  21  22
HETATM   22  C   UNL     1      44.425 -20.647   2.587  1.00  0.00     0.120 C 
HETATM   23  C   UNL     1      44.170 -21.890   1.734  1.00  0.00     0.040 C 
HETATM   24  C   UNL     1      44.818 -21.075   4.000  1.00  0.00     0.040 C 
ENDBRANCH  21  22
ENDBRANCH  18  21
ENDBRANCH  12  15
ENDBRANCH   9  11
ENDBRANCH   7   9
ENDBRANCH   1   7
BRANCH   4  25
HETATM   25  N   UNL     1      39.518  -9.263   8.929  1.00  0.00    -0.378 N 
HETATM   26  C   UNL     1      40.045  -7.970   9.417  1.00  0.00     0.150 C 
HETATM   27  C   UNL     1      41.220  -8.162  10.405  1.00  0.00     0.255 C 
HETATM   28  N   UNL     1      40.861  -9.133  11.534  1.00  0.00    -0.064 N 
HETATM   29  H   UNL     1      40.148  -8.668  12.108  1.00  0.00     0.280 HD
HETATM   30  C   UNL     1      40.249 -10.432  10.998  1.00  0.00     0.255 C 
HETATM   31  C   UNL     1      39.069 -10.128  10.048  1.00  0.00     0.150 C 
BRANCH  28  32
HETATM   32  C   UNL     1      42.040  -9.431  12.434  1.00  0.00     0.273 C 
BRANCH  32  33
HETATM   33  C   UNL     1      43.035 -10.371  11.811  1.00  0.00    -0.033 A 
HETATM   34  C   UNL     1      43.135 -11.699  12.254  1.00  0.00     0.009 A 
HETATM   35  C   UNL     1      44.083 -12.560  11.697  1.00  0.00     0.001 A 
HETATM   36  C   UNL     1      44.941 -12.103  10.698  1.00  0.00     0.000 A 
HETATM   37  C   UNL     1      44.849 -10.788  10.247  1.00  0.00     0.001 A 
HETATM   38  C   UNL     1      43.898  -9.926  10.797  1.00  0.00     0.009 A 
ENDBRANCH  32  33
ENDBRANCH  28  32
ENDBRANCH   4  25
TORSDOF 9
ENDMDL
MODEL 6
REMARK VINA RESULT:      -8.8      3.863     11.973
REMARK  9 active torsions:
REMARK  status: ('A' for Active; 'I' for Inactive)
REMARK    1  A    between atoms: C_2  and  O_3 
REMARK    2  A    between atoms: O_3  and  C_4 
REMARK    3  A    between atoms: C_7  and  C_8 
REMARK       I    between atoms: C_8  and  N_9 
REMARK    4  A    between atoms: N_9  and  C_10 
REMARK    5  A    between atoms: C_10  and  N_11 
REMARK    6  A    between atoms: N_11  and  C_12 
REMARK    7  A    between atoms: C_15  and  N_16 
REMARK    8  A    between atoms: N_19  and  C_21 
REMARK    9  A    between atoms: C_21  and  C_22 
ROOT
HETATM    1  C   UNL     1      41.253 -11.606   4.502  1.00  0.00     0.034 C 
HETATM    2  C   UNL     1      41.097 -10.230   4.642  1.00  0.00     0.032 C 
HETATM    3  C   UNL     1      40.357  -9.700   5.704  1.00  0.00     0.031 C 
HETATM    4  C   UNL     1      39.794 -10.525   6.686  1.00  0.00     0.030 C 
HETATM    5  C   UNL     1      39.843 -11.910   6.436  1.00  0.00     0.031 C 
HETATM    6  C   UNL     1      40.552 -12.449   5.352  1.00  0.00     0.032 C 
ENDROOT
BRANCH   1   7
HETATM    7  N   UNL     1      42.084 -12.161   3.510  1.00  0.00    -0.333 N 
HETATM    8  H   UNL     1      43.058 -11.874   3.510  1.00  0.00     0.168 HD
BRANCH   7   9
HETATM    9  C   UNL     1      41.742 -13.094   2.577  1.00  0.00     0.179 C 
HETATM   10  S   UNL     1      40.509 -12.790   1.497  1.00  0.00    -0.040 SA
BRANCH   9  11
HETATM   11  N   UNL     1      42.388 -14.302   2.538  1.00  0.00    -0.299 N 
HETATM   12  C   UNL     1      42.005 -15.445   3.224  1.00  0.00     0.257 C 
HETATM   13  O   UNL     1      40.977 -15.614   3.869  1.00  0.00    -0.267 OA
HETATM   14  H   UNL     1      42.932 -14.456   1.698  1.00  0.00     0.171 HD
BRANCH  12  15
HETATM   15  C   UNL     1      42.926 -16.590   3.112  1.00  0.00     0.032 A 
HETATM   16  C   UNL     1      43.199 -17.382   4.229  1.00  0.00     0.020 A 
HETATM   17  C   UNL     1      43.898 -18.578   4.061  1.00  0.00     0.038 A 
HETATM   18  C   UNL     1      44.330 -18.985   2.792  1.00  0.00     0.069 A 
HETATM   19  C   UNL     1      44.107 -18.153   1.695  1.00  0.00     0.038 A 
HETATM   20  C   UNL     1      43.387 -16.965   1.849  1.00  0.00     0.020 A 
BRANCH  18  21
HETATM   21  O   UNL     1      44.913 -20.219   2.766  1.00  0.00    -0.347 OA
BRANCH  21  22
HETATM   22  C   UNL     1      44.086 -21.390   2.807  1.00  0.00     0.120 C 
HETATM   23  C   UNL     1      44.719 -22.473   3.681  1.00  0.00     0.040 C 
HETATM   24  C   UNL     1      43.981 -21.899   1.370  1.00  0.00     0.040 C 
ENDBRANCH  21  22
ENDBRANCH  18  21
ENDBRANCH  12  15
ENDBRANCH   9  11
ENDBRANCH   7   9
ENDBRANCH   1   7
BRANCH   4  25
HETATM   25  N   UNL     1      39.208 -10.032   7.864  1.00  0.00    -0.378 N 
HETATM   26  C   UNL     1      39.502  -8.650   8.300  1.00  0.00     0.150 C 
HETATM   27  C   UNL     1      40.867  -8.550   9.022  1.00  0.00     0.255 C 
HETATM   28  N   UNL     1      40.990  -9.579  10.150  1.00  0.00    -0.064 N 
HETATM   29  H   UNL     1      40.322  -9.301  10.878  1.00  0.00     0.280 HD
HETATM   30  C   UNL     1      40.607 -10.988   9.683  1.00  0.00     0.255 C 
HETATM   31  C   UNL     1      39.219 -10.980   9.006  1.00  0.00     0.150 C 
BRANCH  28  32
HETATM   32  C   UNL     1      42.366  -9.581  10.779  1.00  0.00     0.273 C 
BRANCH  32  33
HETATM   33  C   UNL     1      42.335  -9.377  12.269  1.00  0.00    -0.033 A 
HETATM   34  C   UNL     1      42.201  -8.089  12.809  1.00  0.00     0.009 A 
HETATM   35  C   UNL     1      42.206  -7.900  14.193  1.00  0.00     0.001 A 
HETATM   36  C   UNL     1      42.349  -8.991  15.047  1.00  0.00     0.000 A 
HETATM   37  C   UNL     1      42.479 -10.275  14.523  1.00  0.00     0.001 A 
HETATM   38  C   UNL     1      42.468 -10.470  13.141  1.00  0.00     0.009 A 
ENDBRANCH  32  33
ENDBRANCH  28  32
ENDBRANCH   4  25
TORSDOF 9
ENDMDL
MODEL 7
REMARK VINA RESULT:      -8.8      3.334     10.883
REMARK  9 active torsions:
REMARK  status: ('A' for Active; 'I' for Inactive)
REMARK    1  A    between atoms: C_2  and  O_3 
REMARK    2  A    between atoms: O_3  and  C_4 
REMARK    3  A    between atoms: C_7  and  C_8 
REMARK       I    between atoms: C_8  and  N_9 
REMARK    4  A    between atoms: N_9  and  C_10 
REMARK    5  A    between atoms: C_10  and  N_11 
REMARK    6  A    between atoms: N_11  and  C_12 
REMARK    7  A    between atoms: C_15  and  N_16 
REMARK    8  A    between atoms: N_19  and  C_21 
REMARK    9  A    between atoms: C_21  and  C_22 
ROOT
HETATM    1  C   UNL     1      41.003 -10.969   6.688  1.00  0.00     0.034 C 
HETATM    2  C   UNL     1      41.450  -9.674   6.932  1.00  0.00     0.032 C 
HETATM    3  C   UNL     1      40.898  -8.912   7.967  1.00  0.00     0.031 C 
HETATM    4  C   UNL     1      39.920  -9.438   8.821  1.00  0.00     0.030 C 
HETATM    5  C   UNL     1      39.387 -10.689   8.457  1.00  0.00     0.031 C 
HETATM    6  C   UNL     1      39.909 -11.445   7.397  1.00  0.00     0.032 C 
ENDROOT
BRANCH   1   7
HETATM    7  N   UNL     1      41.617 -11.797   5.728  1.00  0.00    -0.333 N 
HETATM    8  H   UNL     1      42.592 -11.613   5.515  1.00  0.00     0.168 HD
BRANCH   7   9
HETATM    9  C   UNL     1      41.063 -12.867   5.090  1.00  0.00     0.179 C 
HETATM   10  S   UNL     1      39.856 -12.641   3.962  1.00  0.00    -0.040 SA
BRANCH   9  11
HETATM   11  N   UNL     1      41.473 -14.139   5.391  1.00  0.00    -0.299 N 
HETATM   12  C   UNL     1      42.743 -14.499   5.817  1.00  0.00     0.257 C 
HETATM   13  O   UNL     1      43.666 -13.751   6.117  1.00  0.00    -0.267 OA
HETATM   14  H   UNL     1      40.725 -14.763   5.667  1.00  0.00     0.171 HD
BRANCH  12  15
HETATM   15  C   UNL     1      42.974 -15.947   5.968  1.00  0.00     0.032 A 
HETATM   16  C   UNL     1      42.019 -16.860   5.520  1.00  0.00     0.020 A 
HETATM   17  C   UNL     1      42.342 -18.218   5.475  1.00  0.00     0.038 A 
HETATM   18  C   UNL     1      43.606 -18.667   5.879  1.00  0.00     0.069 A 
HETATM   19  C   UNL     1      44.529 -17.753   6.385  1.00  0.00     0.038 A 
HETATM   20  C   UNL     1      44.223 -16.389   6.411  1.00  0.00     0.020 A 
BRANCH  18  21
HETATM   21  O   UNL     1      43.814 -20.004   5.688  1.00  0.00    -0.347 OA
BRANCH  21  22
HETATM   22  C   UNL     1      44.893 -20.437   4.849  1.00  0.00     0.120 C 
HETATM   23  C   UNL     1      44.583 -20.158   3.378  1.00  0.00     0.040 C 
HETATM   24  C   UNL     1      45.031 -21.944   5.059  1.00  0.00     0.040 C 
ENDBRANCH  21  22
ENDBRANCH  18  21
ENDBRANCH  12  15
ENDBRANCH   9  11
ENDBRANCH   7   9
ENDBRANCH   1   7
BRANCH   4  25
HETATM   25  N   UNL     1      39.477  -8.781   9.982  1.00  0.00    -0.378 N 
HETATM   26  C   UNL     1      40.186  -7.572  10.451  1.00  0.00     0.150 C 
HETATM   27  C   UNL     1      41.476  -7.926  11.230  1.00  0.00     0.255 C 
HETATM   28  N   UNL     1      41.205  -8.940  12.346  1.00  0.00    -0.064 N 
HETATM   29  H   UNL     1      40.633  -8.460  13.050  1.00  0.00     0.280 HD
HETATM   30  C   UNL     1      40.403 -10.146  11.842  1.00  0.00     0.255 C 
HETATM   31  C   UNL     1      39.126  -9.683  11.107  1.00  0.00     0.150 C 
BRANCH  28  32
HETATM   32  C   UNL     1      42.475  -9.394  13.032  1.00  0.00     0.273 C 
BRANCH  32  33
HETATM   33  C   UNL     1      43.277 -10.364  12.208  1.00  0.00    -0.033 A 
HETATM   34  C   UNL     1      43.279 -11.733  12.520  1.00  0.00     0.009 A 
HETATM   35  C   UNL     1      44.052 -12.625  11.774  1.00  0.00     0.001 A 
HETATM   36  C   UNL     1      44.829 -12.161  10.715  1.00  0.00     0.000 A 
HETATM   37  C   UNL     1      44.832 -10.806  10.393  1.00  0.00     0.001 A 
HETATM   38  C   UNL     1      44.057  -9.910  11.132  1.00  0.00     0.009 A 
ENDBRANCH  32  33
ENDBRANCH  28  32
ENDBRANCH   4  25
TORSDOF 9
ENDMDL
MODEL 8
REMARK VINA RESULT:      -8.6      4.033     11.732
REMARK  9 active torsions:
REMARK  status: ('A' for Active; 'I' for Inactive)
REMARK    1  A    between atoms: C_2  and  O_3 
REMARK    2  A    between atoms: O_3  and  C_4 
REMARK    3  A    between atoms: C_7  and  C_8 
REMARK       I    between atoms: C_8  and  N_9 
REMARK    4  A    between atoms: N_9  and  C_10 
REMARK    5  A    between atoms: C_10  and  N_11 
REMARK    6  A    between atoms: N_11  and  C_12 
REMARK    7  A    between atoms: C_15  and  N_16 
REMARK    8  A    between atoms: N_19  and  C_21 
REMARK    9  A    between atoms: C_21  and  C_22 
ROOT
HETATM    1  C   UNL     1      40.090 -13.148   4.297  1.00  0.00     0.034 C 
HETATM    2  C   UNL     1      39.516 -13.488   5.519  1.00  0.00     0.032 C 
HETATM    3  C   UNL     1      39.375 -12.534   6.531  1.00  0.00     0.031 C 
HETATM    4  C   UNL     1      39.756 -11.200   6.338  1.00  0.00     0.030 C 
HETATM    5  C   UNL     1      40.466 -10.923   5.154  1.00  0.00     0.031 C 
HETATM    6  C   UNL     1      40.644 -11.884   4.147  1.00  0.00     0.032 C 
ENDROOT
BRANCH   1   7
HETATM    7  N   UNL     1      40.142 -14.056   3.223  1.00  0.00    -0.333 N 
HETATM    8  H   UNL     1      39.263 -14.463   2.919  1.00  0.00     0.168 HD
BRANCH   7   9
HETATM    9  C   UNL     1      41.240 -14.410   2.497  1.00  0.00     0.179 C 
HETATM   10  S   UNL     1      41.720 -13.486   1.194  1.00  0.00    -0.040 SA
BRANCH   9  11
HETATM   11  N   UNL     1      41.941 -15.545   2.811  1.00  0.00    -0.299 N 
HETATM   12  C   UNL     1      41.509 -16.846   2.599  1.00  0.00     0.257 C 
HETATM   13  O   UNL     1      40.507 -17.206   1.992  1.00  0.00    -0.267 OA
HETATM   14  H   UNL     1      42.945 -15.417   2.850  1.00  0.00     0.171 HD
BRANCH  12  15
HETATM   15  C   UNL     1      42.392 -17.901   3.127  1.00  0.00     0.032 A 
HETATM   16  C   UNL     1      42.904 -18.878   2.272  1.00  0.00     0.020 A 
HETATM   17  C   UNL     1      43.900 -19.738   2.740  1.00  0.00     0.038 A 
HETATM   18  C   UNL     1      44.381 -19.631   4.052  1.00  0.00     0.069 A 
HETATM   19  C   UNL     1      43.816 -18.693   4.914  1.00  0.00     0.038 A 
HETATM   20  C   UNL     1      42.835 -17.812   4.448  1.00  0.00     0.020 A 
BRANCH  18  21
HETATM   21  O   UNL     1      45.421 -20.470   4.338  1.00  0.00    -0.347 OA
BRANCH  21  22
HETATM   22  C   UNL     1      45.153 -21.741   4.946  1.00  0.00     0.120 C 
HETATM   23  C   UNL     1      44.558 -22.716   3.930  1.00  0.00     0.040 C 
HETATM   24  C   UNL     1      44.135 -21.487   6.057  1.00  0.00     0.040 C 
ENDBRANCH  21  22
ENDBRANCH  18  21
ENDBRANCH  12  15
ENDBRANCH   9  11
ENDBRANCH   7   9
ENDBRANCH   1   7
BRANCH   4  25
HETATM   25  N   UNL     1      39.462 -10.174   7.252  1.00  0.00    -0.378 N 
HETATM   26  C   UNL     1      40.309  -8.963   7.285  1.00  0.00     0.150 C 
HETATM   27  C   UNL     1      41.618  -9.195   8.077  1.00  0.00     0.255 C 
HETATM   28  N   UNL     1      41.345  -9.780   9.466  1.00  0.00    -0.064 N 
HETATM   29  H   UNL     1      40.872  -9.047  10.008  1.00  0.00     0.280 HD
HETATM   30  C   UNL     1      40.404 -10.988   9.403  1.00  0.00     0.255 C 
HETATM   31  C   UNL     1      39.120 -10.640   8.619  1.00  0.00     0.150 C 
BRANCH  28  32
HETATM   32  C   UNL     1      42.618 -10.134  10.202  1.00  0.00     0.273 C 
BRANCH  32  33
HETATM   33  C   UNL     1      42.690  -9.534  11.579  1.00  0.00    -0.033 A 
HETATM   34  C   UNL     1      42.964 -10.340  12.695  1.00  0.00     0.009 A 
HETATM   35  C   UNL     1      42.996  -9.786  13.976  1.00  0.00     0.001 A 
HETATM   36  C   UNL     1      42.751  -8.426  14.156  1.00  0.00     0.000 A 
HETATM   37  C   UNL     1      42.482  -7.615  13.057  1.00  0.00     0.001 A 
HETATM   38  C   UNL     1      42.455  -8.163  11.773  1.00  0.00     0.009 A 
ENDBRANCH  32  33
ENDBRANCH  28  32
ENDBRANCH   4  25
TORSDOF 9
ENDMDL
MODEL 9
REMARK VINA RESULT:      -8.4      7.194     11.443
REMARK  9 active torsions:
REMARK  status: ('A' for Active; 'I' for Inactive)
REMARK    1  A    between atoms: C_2  and  O_3 
REMARK    2  A    between atoms: O_3  and  C_4 
REMARK    3  A    between atoms: C_7  and  C_8 
REMARK       I    between atoms: C_8  and  N_9 
REMARK    4  A    between atoms: N_9  and  C_10 
REMARK    5  A    between atoms: C_10  and  N_11 
REMARK    6  A    between atoms: N_11  and  C_12 
REMARK    7  A    between atoms: C_15  and  N_16 
REMARK    8  A    between atoms: N_19  and  C_21 
REMARK    9  A    between atoms: C_21  and  C_22 
ROOT
HETATM    1  C   UNL     1      41.419 -15.674   0.441  1.00  0.00     0.034 C 
HETATM    2  C   UNL     1      40.285 -15.446   1.215  1.00  0.00     0.032 C 
HETATM    3  C   UNL     1      40.276 -15.759   2.577  1.00  0.00     0.031 C 
HETATM    4  C   UNL     1      41.415 -16.261   3.220  1.00  0.00     0.030 C 
HETATM    5  C   UNL     1      42.491 -16.618   2.385  1.00  0.00     0.031 C 
HETATM    6  C   UNL     1      42.495 -16.341   1.010  1.00  0.00     0.032 C 
ENDROOT
BRANCH   1   7
HETATM    7  N   UNL     1      41.494 -15.265  -0.904  1.00  0.00    -0.333 N 
HETATM    8  H   UNL     1      41.816 -15.952  -1.579  1.00  0.00     0.168 HD
BRANCH   7   9
HETATM    9  C   UNL     1      41.122 -14.059  -1.420  1.00  0.00     0.179 C 
HETATM   10  S   UNL     1      42.189 -12.777  -1.414  1.00  0.00    -0.040 SA
BRANCH   9  11
HETATM   11  N   UNL     1      39.859 -13.880  -1.921  1.00  0.00    -0.299 N 
HETATM   12  C   UNL     1      39.391 -14.377  -3.128  1.00  0.00     0.257 C 
HETATM   13  O   UNL     1      39.966 -15.151  -3.886  1.00  0.00    -0.267 OA
HETATM   14  H   UNL     1      39.153 -13.704  -1.216  1.00  0.00     0.171 HD
BRANCH  12  15
HETATM   15  C   UNL     1      38.030 -13.955  -3.503  1.00  0.00     0.032 A 
HETATM   16  C   UNL     1      37.621 -12.637  -3.289  1.00  0.00     0.020 A 
HETATM   17  C   UNL     1      36.414 -12.202  -3.839  1.00  0.00     0.038 A 
HETATM   18  C   UNL     1      35.614 -13.070  -4.593  1.00  0.00     0.069 A 
HETATM   19  C   UNL     1      36.003 -14.401  -4.745  1.00  0.00     0.038 A 
HETATM   20  C   UNL     1      37.221 -14.840  -4.219  1.00  0.00     0.020 A 
BRANCH  18  21
HETATM   21  O   UNL     1      34.514 -12.480  -5.149  1.00  0.00    -0.347 OA
BRANCH  21  22
HETATM   22  C   UNL     1      34.039 -11.235  -4.619  1.00  0.00     0.120 C 
HETATM   23  C   UNL     1      32.745 -11.438  -3.831  1.00  0.00     0.040 C 
HETATM   24  C   UNL     1      33.763 -10.329  -5.818  1.00  0.00     0.040 C 
ENDBRANCH  21  22
ENDBRANCH  18  21
ENDBRANCH  12  15
ENDBRANCH   9  11
ENDBRANCH   7   9
ENDBRANCH   1   7
BRANCH   4  25
HETATM   25  N   UNL     1      41.512 -16.410   4.614  1.00  0.00    -0.378 N 
HETATM   26  C   UNL     1      42.654 -15.808   5.334  1.00  0.00     0.150 C 
HETATM   27  C   UNL     1      43.929 -16.679   5.224  1.00  0.00     0.255 C 
HETATM   28  N   UNL     1      43.660 -18.133   5.625  1.00  0.00    -0.064 N 
HETATM   29  H   UNL     1      43.466 -18.131   6.632  1.00  0.00     0.280 HD
HETATM   30  C   UNL     1      42.425 -18.702   4.916  1.00  0.00     0.255 C 
HETATM   31  C   UNL     1      41.206 -17.774   5.113  1.00  0.00     0.150 C 
BRANCH  28  32
HETATM   32  C   UNL     1      44.862 -19.024   5.399  1.00  0.00     0.273 C 
BRANCH  32  33
HETATM   33  C   UNL     1      44.655 -20.027   4.298  1.00  0.00    -0.033 A 
HETATM   34  C   UNL     1      44.363 -19.602   2.992  1.00  0.00     0.009 A 
HETATM   35  C   UNL     1      44.137 -20.536   1.979  1.00  0.00     0.001 A 
HETATM   36  C   UNL     1      44.196 -21.900   2.260  1.00  0.00     0.000 A 
HETATM   37  C   UNL     1      44.489 -22.334   3.551  1.00  0.00     0.001 A 
HETATM   38  C   UNL     1      44.722 -21.403   4.565  1.00  0.00     0.009 A 
ENDBRANCH  32  33
ENDBRANCH  28  32
ENDBRANCH   4  25
TORSDOF 9
ENDMDL
MODEL 10
REMARK VINA RESULT:      -8.4      7.435     12.035
REMARK  9 active torsions:
REMARK  status: ('A' for Active; 'I' for Inactive)
REMARK    1  A    between atoms: C_2  and  O_3 
REMARK    2  A    between atoms: O_3  and  C_4 
REMARK    3  A    between atoms: C_7  and  C_8 
REMARK       I    between atoms: C_8  and  N_9 
REMARK    4  A    between atoms: N_9  and  C_10 
REMARK    5  A    between atoms: C_10  and  N_11 
REMARK    6  A    between atoms: N_11  and  C_12 
REMARK    7  A    between atoms: C_15  and  N_16 
REMARK    8  A    between atoms: N_19  and  C_21 
REMARK    9  A    between atoms: C_21  and  C_22 
ROOT
HETATM    1  C   UNL     1      39.876 -15.106   1.726  1.00  0.00     0.034 C 
HETATM    2  C   UNL     1      40.430 -16.363   1.952  1.00  0.00     0.032 C 
HETATM    3  C   UNL     1      40.966 -16.692   3.201  1.00  0.00     0.031 C 
HETATM    4  C   UNL     1      40.921 -15.795   4.276  1.00  0.00     0.030 C 
HETATM    5  C   UNL     1      40.493 -14.488   3.975  1.00  0.00     0.031 C 
HETATM    6  C   UNL     1      39.987 -14.138   2.714  1.00  0.00     0.032 C 
ENDROOT
BRANCH   1   7
HETATM    7  N   UNL     1      39.230 -14.787   0.517  1.00  0.00    -0.333 N 
HETATM    8  H   UNL     1      38.215 -14.767   0.527  1.00  0.00     0.168 HD
BRANCH   7   9
HETATM    9  C   UNL     1      39.816 -14.440  -0.664  1.00  0.00     0.179 C 
HETATM   10  S   UNL     1      41.469 -14.243  -0.756  1.00  0.00    -0.040 SA
BRANCH   9  11
HETATM   11  N   UNL     1      39.049 -14.221  -1.778  1.00  0.00    -0.299 N 
HETATM   12  C   UNL     1      38.067 -13.250  -1.904  1.00  0.00     0.257 C 
HETATM   13  O   UNL     1      37.801 -12.355  -1.110  1.00  0.00    -0.267 OA
HETATM   14  H   UNL     1      39.476 -14.528  -2.644  1.00  0.00     0.171 HD
BRANCH  12  15
HETATM   15  C   UNL     1      37.299 -13.284  -3.161  1.00  0.00     0.032 A 
HETATM   16  C   UNL     1      37.049 -14.502  -3.797  1.00  0.00     0.020 A 
HETATM   17  C   UNL     1      36.147 -14.541  -4.862  1.00  0.00     0.038 A 
HETATM   18  C   UNL     1      35.500 -13.378  -5.298  1.00  0.00     0.069 A 
HETATM   19  C   UNL     1      35.807 -12.158  -4.696  1.00  0.00     0.038 A 
HETATM   20  C   UNL     1      36.690 -12.112  -3.613  1.00  0.00     0.020 A 
BRANCH  18  21
HETATM   21  O   UNL     1      34.575 -13.584  -6.281  1.00  0.00    -0.347 OA
BRANCH  21  22
HETATM   22  C   UNL     1      34.877 -13.192  -7.627  1.00  0.00     0.120 C 
HETATM   23  C   UNL     1      33.736 -12.365  -8.221  1.00  0.00     0.040 C 
HETATM   24  C   UNL     1      35.039 -14.481  -8.431  1.00  0.00     0.040 C 
ENDBRANCH  21  22
ENDBRANCH  18  21
ENDBRANCH  12  15
ENDBRANCH   9  11
ENDBRANCH   7   9
ENDBRANCH   1   7
BRANCH   4  25
HETATM   25  N   UNL     1      41.273 -16.148   5.590  1.00  0.00    -0.378 N 
HETATM   26  C   UNL     1      42.497 -15.579   6.193  1.00  0.00     0.150 C 
HETATM   27  C   UNL     1      43.771 -16.324   5.728  1.00  0.00     0.255 C 
HETATM   28  N   UNL     1      43.647 -17.838   5.925  1.00  0.00    -0.064 N 
HETATM   29  H   UNL     1      43.638 -18.005   6.938  1.00  0.00     0.280 HD
HETATM   30  C   UNL     1      42.333 -18.384   5.354  1.00  0.00     0.255 C 
HETATM   31  C   UNL     1      41.128 -17.591   5.904  1.00  0.00     0.150 C 
BRANCH  28  32
HETATM   32  C   UNL     1      44.830 -18.592   5.356  1.00  0.00     0.273 C 
BRANCH  32  33
HETATM   33  C   UNL     1      44.470 -19.445   4.171  1.00  0.00    -0.033 A 
HETATM   34  C   UNL     1      44.676 -20.833   4.203  1.00  0.00     0.009 A 
HETATM   35  C   UNL     1      44.374 -21.618   3.089  1.00  0.00     0.001 A 
HETATM   36  C   UNL     1      43.868 -21.026   1.933  1.00  0.00     0.000 A 
HETATM   37  C   UNL     1      43.656 -19.650   1.890  1.00  0.00     0.001 A 
HETATM   38  C   UNL     1      43.951 -18.862   3.004  1.00  0.00     0.009 A 
ENDBRANCH  32  33
ENDBRANCH  28  32
ENDBRANCH   4  25
TORSDOF 9
ENDMDL
