MODEL 1
REMARK VINA RESULT:      -8.5      0.000      0.000
REMARK  7 active torsions:
REMARK  status: ('A' for Active; 'I' for Inactive)
REMARK    1  A    between atoms: C_2  and  O_3 
REMARK    2  A    between atoms: O_3  and  C_4 
REMARK    3  A    between atoms: C_4  and  C_5 
REMARK    4  A    between atoms: C_8  and  N_9 
REMARK    5  A    between atoms: C_12  and  N_13 
REMARK    6  A    between atoms: C_17  and  O_18 
REMARK    7  A    between atoms: C_17  and  C_19 
ROOT
HETATM    1  N   UNL     1      42.068 -16.230   2.070  1.00  0.00    -0.251 N 
HETATM    2  C   UNL     1      41.445 -16.563   0.889  1.00  0.00     0.262 C 
HETATM    3  O   UNL     1      40.878 -17.586   0.537  1.00  0.00    -0.270 OA
HETATM    4  C   UNL     1      41.538 -15.365  -0.026  1.00  0.00     0.289 C 
HETATM    5  C   UNL     1      41.702 -14.207   0.925  1.00  0.00     0.146 C 
HETATM    6  C   UNL     1      42.326 -14.873   2.115  1.00  0.00     0.233 C 
HETATM    7  O   UNL     1      42.944 -14.221   2.943  1.00  0.00    -0.273 OA
ENDROOT
BRANCH   4   8
HETATM    8  N   UNL     1      40.382 -15.207  -1.033  1.00  0.00    -0.058 N 
HETATM    9  H   UNL     1      39.781 -16.030  -0.848  1.00  0.00     0.281 HD
HETATM   10  C   UNL     1      39.475 -14.018  -0.797  1.00  0.00     0.239 C 
HETATM   11  C   UNL     1      38.386 -13.953  -1.857  1.00  0.00     0.071 C 
HETATM   12  C   UNL     1      38.968 -13.916  -3.285  1.00  0.00     0.088 C 
HETATM   13  C   UNL     1      39.743 -15.238  -3.444  1.00  0.00     0.071 C 
HETATM   14  C   UNL     1      40.886 -15.338  -2.452  1.00  0.00     0.239 C 
BRANCH  12  15
HETATM   15  O   UNL     1      37.862 -13.980  -4.184  1.00  0.00    -0.385 OA
HETATM   16  H   UNL     1      37.635 -14.911  -4.363  1.00  0.00     0.211 HD
ENDBRANCH  12  15
BRANCH  12  17
HETATM   17  C   UNL     1      39.784 -12.659  -3.619  1.00  0.00    -0.024 A 
HETATM   18  C   UNL     1      41.167 -12.730  -3.879  1.00  0.00     0.011 A 
HETATM   19  C   UNL     1      41.924 -11.580  -4.131  1.00  0.00     0.020 A 
HETATM   20  C   UNL     1      41.304 -10.338  -4.162  1.00  0.00     0.011 A 
HETATM   21 BR   UNL     1      42.327  -8.782  -4.478  1.00  0.00    -0.051 Br
HETATM   22  C   UNL     1      39.932 -10.240  -3.974  1.00  0.00     0.020 A 
HETATM   23  C   UNL     1      39.178 -11.393  -3.721  1.00  0.00     0.011 A 
ENDBRANCH  12  17
ENDBRANCH   4   8
BRANCH   1  24
HETATM   24  C   UNL     1      42.464 -17.161   3.077  1.00  0.00     0.045 A 
HETATM   25  C   UNL     1      43.691 -17.839   3.004  1.00  0.00     0.031 A 
HETATM   26  C   UNL     1      44.139 -18.651   4.058  1.00  0.00     0.020 A 
HETATM   27  C   UNL     1      43.362 -18.819   5.208  1.00  0.00     0.039 A 
HETATM   28  C   UNL     1      42.111 -18.206   5.266  1.00  0.00     0.020 A 
HETATM   29  C   UNL     1      41.672 -17.389   4.214  1.00  0.00     0.031 A 
BRANCH  27  30
HETATM   30  C   UNL     1      43.927 -19.596   6.344  1.00  0.00     0.293 C 
HETATM   31  O   UNL     1      43.750 -20.794   6.486  1.00  0.00    -0.259 OA
BRANCH  30  32
HETATM   32  O   UNL     1      44.698 -18.795   7.120  1.00  0.00    -0.318 OA
BRANCH  32  33
HETATM   33  C   UNL     1      44.199 -18.517   8.437  1.00  0.00     0.174 C 
HETATM   34  C   UNL     1      43.425 -17.212   8.412  1.00  0.00     0.034 C 
ENDBRANCH  32  33
ENDBRANCH  30  32
ENDBRANCH  27  30
ENDBRANCH   1  24
TORSDOF 7
ENDMDL
MODEL 2
REMARK VINA RESULT:      -8.4      1.037      1.923
REMARK  7 active torsions:
REMARK  status: ('A' for Active; 'I' for Inactive)
REMARK    1  A    between atoms: C_2  and  O_3 
REMARK    2  A    between atoms: O_3  and  C_4 
REMARK    3  A    between atoms: C_4  and  C_5 
REMARK    4  A    between atoms: C_8  and  N_9 
REMARK    5  A    between atoms: C_12  and  N_13 
REMARK    6  A    between atoms: C_17  and  O_18 
REMARK    7  A    between atoms: C_17  and  C_19 
ROOT
HETATM    1  N   UNL     1      42.257 -16.170   2.310  1.00  0.00    -0.251 N 
HETATM    2  C   UNL     1      41.728 -16.494   1.081  1.00  0.00     0.262 C 
HETATM    3  O   UNL     1      41.363 -17.563   0.616  1.00  0.00    -0.270 OA
HETATM    4  C   UNL     1      41.622 -15.216   0.283  1.00  0.00     0.289 C 
HETATM    5  C   UNL     1      41.555 -14.144   1.340  1.00  0.00     0.146 C 
HETATM    6  C   UNL     1      42.265 -14.800   2.488  1.00  0.00     0.233 C 
HETATM    7  O   UNL     1      42.738 -14.131   3.393  1.00  0.00    -0.273 OA
ENDROOT
BRANCH   4   8
HETATM    8  N   UNL     1      40.478 -15.170  -0.748  1.00  0.00    -0.058 N 
HETATM    9  H   UNL     1      39.890 -15.986  -0.500  1.00  0.00     0.281 HD
HETATM   10  C   UNL     1      39.545 -13.983  -0.629  1.00  0.00     0.239 C 
HETATM   11  C   UNL     1      38.470 -14.033  -1.703  1.00  0.00     0.071 C 
HETATM   12  C   UNL     1      39.071 -14.109  -3.121  1.00  0.00     0.088 C 
HETATM   13  C   UNL     1      39.873 -15.424  -3.155  1.00  0.00     0.071 C 
HETATM   14  C   UNL     1      41.004 -15.414  -2.144  1.00  0.00     0.239 C 
BRANCH  12  15
HETATM   15  O   UNL     1      37.979 -14.274  -4.025  1.00  0.00    -0.385 OA
HETATM   16  H   UNL     1      37.686 -13.403  -4.352  1.00  0.00     0.211 HD
ENDBRANCH  12  15
BRANCH  12  17
HETATM   17  C   UNL     1      39.868 -12.870  -3.554  1.00  0.00    -0.024 A 
HETATM   18  C   UNL     1      41.269 -12.910  -3.692  1.00  0.00     0.011 A 
HETATM   19  C   UNL     1      42.004 -11.768  -4.034  1.00  0.00     0.020 A 
HETATM   20  C   UNL     1      41.346 -10.571  -4.279  1.00  0.00     0.011 A 
HETATM   21 BR   UNL     1      42.335  -9.024  -4.717  1.00  0.00    -0.051 Br
HETATM   22  C   UNL     1      39.960 -10.514  -4.216  1.00  0.00     0.020 A 
HETATM   23  C   UNL     1      39.228 -11.657  -3.872  1.00  0.00     0.011 A 
ENDBRANCH  12  17
ENDBRANCH   4   8
BRANCH   1  24
HETATM   24  C   UNL     1      42.793 -17.109   3.242  1.00  0.00     0.045 A 
HETATM   25  C   UNL     1      42.166 -17.356   4.475  1.00  0.00     0.031 A 
HETATM   26  C   UNL     1      42.617 -18.373   5.331  1.00  0.00     0.020 A 
HETATM   27  C   UNL     1      43.718 -19.161   4.983  1.00  0.00     0.039 A 
HETATM   28  C   UNL     1      44.392 -18.883   3.794  1.00  0.00     0.020 A 
HETATM   29  C   UNL     1      43.933 -17.871   2.939  1.00  0.00     0.031 A 
BRANCH  27  30
HETATM   30  C   UNL     1      44.089 -20.299   5.867  1.00  0.00     0.293 C 
HETATM   31  O   UNL     1      43.551 -20.512   6.941  1.00  0.00    -0.259 OA
BRANCH  30  32
HETATM   32  O   UNL     1      45.034 -21.064   5.270  1.00  0.00    -0.318 OA
BRANCH  32  33
HETATM   33  C   UNL     1      44.657 -22.417   4.969  1.00  0.00     0.174 C 
HETATM   34  C   UNL     1      44.580 -22.588   3.463  1.00  0.00     0.034 C 
ENDBRANCH  32  33
ENDBRANCH  30  32
ENDBRANCH  27  30
ENDBRANCH   1  24
TORSDOF 7
ENDMDL
MODEL 3
REMARK VINA RESULT:      -8.3      3.406      9.827
REMARK  7 active torsions:
REMARK  status: ('A' for Active; 'I' for Inactive)
REMARK    1  A    between atoms: C_2  and  O_3 
REMARK    2  A    between atoms: O_3  and  C_4 
REMARK    3  A    between atoms: C_4  and  C_5 
REMARK    4  A    between atoms: C_8  and  N_9 
REMARK    5  A    between atoms: C_12  and  N_13 
REMARK    6  A    between atoms: C_17  and  O_18 
REMARK    7  A    between atoms: C_17  and  C_19 
ROOT
HETATM    1  N   UNL     1      41.399 -14.237   1.889  1.00  0.00    -0.251 N 
HETATM    2  C   UNL     1      41.148 -14.980   3.019  1.00  0.00     0.262 C 
HETATM    3  O   UNL     1      40.656 -16.090   3.163  1.00  0.00    -0.270 OA
HETATM    4  C   UNL     1      41.626 -14.177   4.206  1.00  0.00     0.289 C 
HETATM    5  C   UNL     1      42.666 -13.260   3.615  1.00  0.00     0.146 C 
HETATM    6  C   UNL     1      42.213 -13.161   2.188  1.00  0.00     0.233 C 
HETATM    7  O   UNL     1      42.572 -12.231   1.482  1.00  0.00    -0.273 OA
ENDROOT
BRANCH   4   8
HETATM    8  N   UNL     1      42.111 -15.001   5.414  1.00  0.00    -0.058 N 
HETATM    9  H   UNL     1      41.921 -14.385   6.224  1.00  0.00     0.281 HD
HETATM   10  C   UNL     1      41.316 -16.258   5.702  1.00  0.00     0.239 C 
HETATM   11  C   UNL     1      41.892 -16.997   6.899  1.00  0.00     0.071 C 
HETATM   12  C   UNL     1      43.385 -17.332   6.709  1.00  0.00     0.088 C 
HETATM   13  C   UNL     1      44.095 -15.972   6.572  1.00  0.00     0.071 C 
HETATM   14  C   UNL     1      43.607 -15.207   5.357  1.00  0.00     0.239 C 
BRANCH  12  15
HETATM   15  O   UNL     1      43.838 -17.908   7.934  1.00  0.00    -0.385 OA
HETATM   16  H   UNL     1      43.526 -17.372   8.687  1.00  0.00     0.211 HD
ENDBRANCH  12  15
BRANCH  12  17
HETATM   17  C   UNL     1      43.688 -18.321   5.575  1.00  0.00    -0.024 A 
HETATM   18  C   UNL     1      43.059 -18.212   4.319  1.00  0.00     0.011 A 
HETATM   19  C   UNL     1      43.292 -19.143   3.300  1.00  0.00     0.020 A 
HETATM   20  C   UNL     1      44.187 -20.184   3.507  1.00  0.00     0.011 A 
HETATM   21 BR   UNL     1      44.486 -21.456   2.143  1.00  0.00    -0.051 Br
HETATM   22  C   UNL     1      44.873 -20.283   4.710  1.00  0.00     0.020 A 
HETATM   23  C   UNL     1      44.636 -19.350   5.727  1.00  0.00     0.011 A 
ENDBRANCH  12  17
ENDBRANCH   4   8
BRANCH   1  24
HETATM   24  C   UNL     1      40.837 -14.492   0.601  1.00  0.00     0.045 A 
HETATM   25  C   UNL     1      39.711 -13.789   0.142  1.00  0.00     0.031 A 
HETATM   26  C   UNL     1      39.242 -13.943  -1.172  1.00  0.00     0.020 A 
HETATM   27  C   UNL     1      39.878 -14.817  -2.058  1.00  0.00     0.039 A 
HETATM   28  C   UNL     1      40.956 -15.572  -1.595  1.00  0.00     0.020 A 
HETATM   29  C   UNL     1      41.426 -15.409  -0.285  1.00  0.00     0.031 A 
BRANCH  27  30
HETATM   30  C   UNL     1      39.416 -14.863  -3.471  1.00  0.00     0.293 C 
HETATM   31  O   UNL     1      39.990 -15.498  -4.340  1.00  0.00    -0.259 OA
BRANCH  30  32
HETATM   32  O   UNL     1      38.259 -14.171  -3.606  1.00  0.00    -0.318 OA
BRANCH  32  33
HETATM   33  C   UNL     1      37.090 -14.944  -3.921  1.00  0.00     0.174 C 
HETATM   34  C   UNL     1      36.122 -14.083  -4.712  1.00  0.00     0.034 C 
ENDBRANCH  32  33
ENDBRANCH  30  32
ENDBRANCH  27  30
ENDBRANCH   1  24
TORSDOF 7
ENDMDL
MODEL 4
REMARK VINA RESULT:      -8.3      3.501      9.854
REMARK  7 active torsions:
REMARK  status: ('A' for Active; 'I' for Inactive)
REMARK    1  A    between atoms: C_2  and  O_3 
REMARK    2  A    between atoms: O_3  and  C_4 
REMARK    3  A    between atoms: C_4  and  C_5 
REMARK    4  A    between atoms: C_8  and  N_9 
REMARK    5  A    between atoms: C_12  and  N_13 
REMARK    6  A    between atoms: C_17  and  O_18 
REMARK    7  A    between atoms: C_17  and  C_19 
ROOT
HETATM    1  N   UNL     1      40.020 -14.217   3.212  1.00  0.00    -0.251 N 
HETATM    2  C   UNL     1      40.630 -15.269   3.856  1.00  0.00     0.262 C 
HETATM    3  O   UNL     1      41.176 -16.273   3.424  1.00  0.00    -0.270 OA
HETATM    4  C   UNL     1      40.554 -14.996   5.340  1.00  0.00     0.289 C 
HETATM    5  C   UNL     1      40.416 -13.497   5.417  1.00  0.00     0.146 C 
HETATM    6  C   UNL     1      39.788 -13.179   4.093  1.00  0.00     0.233 C 
HETATM    7  O   UNL     1      39.186 -12.129   3.924  1.00  0.00    -0.273 OA
ENDROOT
BRANCH   4   8
HETATM    8  N   UNL     1      41.706 -15.578   6.182  1.00  0.00    -0.058 N 
HETATM    9  H   UNL     1      41.709 -14.990   7.035  1.00  0.00     0.281 HD
HETATM   10  C   UNL     1      41.486 -16.986   6.696  1.00  0.00     0.239 C 
HETATM   11  C   UNL     1      42.689 -17.461   7.496  1.00  0.00     0.071 C 
HETATM   12  C   UNL     1      43.996 -17.380   6.680  1.00  0.00     0.088 C 
HETATM   13  C   UNL     1      44.176 -15.887   6.345  1.00  0.00     0.071 C 
HETATM   14  C   UNL     1      43.034 -15.364   5.494  1.00  0.00     0.239 C 
BRANCH  12  15
HETATM   15  O   UNL     1      45.058 -17.731   7.565  1.00  0.00    -0.385 OA
HETATM   16  H   UNL     1      44.697 -17.953   8.443  1.00  0.00     0.211 HD
ENDBRANCH  12  15
BRANCH  12  17
HETATM   17  C   UNL     1      44.058 -18.314   5.463  1.00  0.00    -0.024 A 
HETATM   18  C   UNL     1      43.847 -17.833   4.156  1.00  0.00     0.011 A 
HETATM   19  C   UNL     1      43.849 -18.691   3.050  1.00  0.00     0.020 A 
HETATM   20  C   UNL     1      44.099 -20.045   3.227  1.00  0.00     0.011 A 
HETATM   21 BR   UNL     1      44.080 -21.209   1.741  1.00  0.00    -0.051 Br
HETATM   22  C   UNL     1      44.376 -20.542   4.494  1.00  0.00     0.020 A 
HETATM   23  C   UNL     1      44.371 -19.680   5.598  1.00  0.00     0.011 A 
ENDBRANCH  12  17
ENDBRANCH   4   8
BRANCH   1  24
HETATM   24  C   UNL     1      39.614 -14.222   1.843  1.00  0.00     0.045 A 
HETATM   25  C   UNL     1      38.256 -14.195   1.483  1.00  0.00     0.031 A 
HETATM   26  C   UNL     1      37.860 -14.065   0.143  1.00  0.00     0.020 A 
HETATM   27  C   UNL     1      38.812 -13.973  -0.876  1.00  0.00     0.039 A 
HETATM   28  C   UNL     1      40.163 -14.065  -0.540  1.00  0.00     0.020 A 
HETATM   29  C   UNL     1      40.554 -14.188   0.801  1.00  0.00     0.031 A 
BRANCH  27  30
HETATM   30  C   UNL     1      38.348 -13.722  -2.267  1.00  0.00     0.293 C 
HETATM   31  O   UNL     1      38.658 -12.729  -2.904  1.00  0.00    -0.259 OA
BRANCH  30  32
HETATM   32  O   UNL     1      37.616 -14.772  -2.711  1.00  0.00    -0.318 OA
BRANCH  32  33
HETATM   33  C   UNL     1      37.940 -15.263  -4.021  1.00  0.00     0.174 C 
HETATM   34  C   UNL     1      39.216 -16.081  -3.944  1.00  0.00     0.034 C 
ENDBRANCH  32  33
ENDBRANCH  30  32
ENDBRANCH  27  30
ENDBRANCH   1  24
TORSDOF 7
ENDMDL
MODEL 5
REMARK VINA RESULT:      -8.0      6.433      8.923
REMARK  7 active torsions:
REMARK  status: ('A' for Active; 'I' for Inactive)
REMARK    1  A    between atoms: C_2  and  O_3 
REMARK    2  A    between atoms: O_3  and  C_4 
REMARK    3  A    between atoms: C_4  and  C_5 
REMARK    4  A    between atoms: C_8  and  N_9 
REMARK    5  A    between atoms: C_12  and  N_13 
REMARK    6  A    between atoms: C_17  and  O_18 
REMARK    7  A    between atoms: C_17  and  C_19 
ROOT
HETATM    1  N   UNL     1      42.918 -15.242   4.996  1.00  0.00    -0.251 N 
HETATM    2  C   UNL     1      41.961 -14.308   4.670  1.00  0.00     0.262 C 
HETATM    3  O   UNL     1      40.928 -14.402   4.025  1.00  0.00    -0.270 OA
HETATM    4  C   UNL     1      42.377 -12.997   5.294  1.00  0.00     0.289 C 
HETATM    5  C   UNL     1      43.261 -13.416   6.441  1.00  0.00     0.146 C 
HETATM    6  C   UNL     1      43.766 -14.747   5.967  1.00  0.00     0.233 C 
HETATM    7  O   UNL     1      44.783 -15.232   6.440  1.00  0.00    -0.273 OA
ENDROOT
BRANCH   4   8
HETATM    8  N   UNL     1      41.224 -12.053   5.686  1.00  0.00    -0.058 N 
HETATM    9  H   UNL     1      40.683 -11.948   4.810  1.00  0.00     0.281 HD
HETATM   10  C   UNL     1      40.229 -12.622   6.676  1.00  0.00     0.239 C 
HETATM   11  C   UNL     1      39.149 -11.602   7.002  1.00  0.00     0.071 C 
HETATM   12  C   UNL     1      39.742 -10.280   7.530  1.00  0.00     0.088 C 
HETATM   13  C   UNL     1      40.614  -9.736   6.381  1.00  0.00     0.071 C 
HETATM   14  C   UNL     1      41.751 -10.683   6.047  1.00  0.00     0.239 C 
BRANCH  12  15
HETATM   15  O   UNL     1      38.653  -9.370   7.681  1.00  0.00    -0.385 OA
HETATM   16  H   UNL     1      38.873  -8.517   7.263  1.00  0.00     0.211 HD
ENDBRANCH  12  15
BRANCH  12  17
HETATM   17  C   UNL     1      40.467 -10.388   8.878  1.00  0.00    -0.024 A 
HETATM   18  C   UNL     1      39.885 -11.056   9.973  1.00  0.00     0.011 A 
HETATM   19  C   UNL     1      40.519 -11.110  11.220  1.00  0.00     0.020 A 
HETATM   20  C   UNL     1      41.767 -10.524  11.386  1.00  0.00     0.011 A 
HETATM   21 BR   UNL     1      42.615 -10.574  13.072  1.00  0.00    -0.051 Br
HETATM   22  C   UNL     1      42.398  -9.914  10.309  1.00  0.00     0.020 A 
HETATM   23  C   UNL     1      41.759  -9.861   9.064  1.00  0.00     0.011 A 
ENDBRANCH  12  17
ENDBRANCH   4   8
BRANCH   1  24
HETATM   24  C   UNL     1      43.065 -16.515   4.367  1.00  0.00     0.045 A 
HETATM   25  C   UNL     1      43.518 -16.629   3.043  1.00  0.00     0.031 A 
HETATM   26  C   UNL     1      43.790 -17.882   2.471  1.00  0.00     0.020 A 
HETATM   27  C   UNL     1      43.601 -19.056   3.205  1.00  0.00     0.039 A 
HETATM   28  C   UNL     1      43.088 -18.963   4.498  1.00  0.00     0.020 A 
HETATM   29  C   UNL     1      42.825 -17.709   5.068  1.00  0.00     0.031 A 
BRANCH  27  30
HETATM   30  C   UNL     1      44.010 -20.352   2.597  1.00  0.00     0.293 C 
HETATM   31  O   UNL     1      43.557 -20.766   1.543  1.00  0.00    -0.259 OA
BRANCH  30  32
HETATM   32  O   UNL     1      44.980 -20.932   3.344  1.00  0.00    -0.318 OA
BRANCH  32  33
HETATM   33  C   UNL     1      44.715 -22.266   3.802  1.00  0.00     0.174 C 
HETATM   34  C   UNL     1      44.912 -22.324   5.306  1.00  0.00     0.034 C 
ENDBRANCH  32  33
ENDBRANCH  30  32
ENDBRANCH  27  30
ENDBRANCH   1  24
TORSDOF 7
ENDMDL
MODEL 6
REMARK VINA RESULT:      -7.9      3.692     10.368
REMARK  7 active torsions:
REMARK  status: ('A' for Active; 'I' for Inactive)
REMARK    1  A    between atoms: C_2  and  O_3 
REMARK    2  A    between atoms: O_3  and  C_4 
REMARK    3  A    between atoms: C_4  and  C_5 
REMARK    4  A    between atoms: C_8  and  N_9 
REMARK    5  A    between atoms: C_12  and  N_13 
REMARK    6  A    between atoms: C_17  and  O_18 
REMARK    7  A    between atoms: C_17  and  C_19 
ROOT
HETATM    1  N   UNL     1      39.464 -14.459  -1.917  1.00  0.00    -0.251 N 
HETATM    2  C   UNL     1      39.531 -13.958  -0.637  1.00  0.00     0.262 C 
HETATM    3  O   UNL     1      38.701 -13.378   0.047  1.00  0.00    -0.270 OA
HETATM    4  C   UNL     1      40.912 -14.259  -0.104  1.00  0.00     0.289 C 
HETATM    5  C   UNL     1      41.354 -15.446  -0.921  1.00  0.00     0.146 C 
HETATM    6  C   UNL     1      40.551 -15.271  -2.177  1.00  0.00     0.233 C 
HETATM    7  O   UNL     1      40.894 -15.812  -3.216  1.00  0.00    -0.273 OA
ENDROOT
BRANCH   4   8
HETATM    8  N   UNL     1      41.006 -14.460   1.421  1.00  0.00    -0.058 N 
HETATM    9  H   UNL     1      40.581 -13.599   1.809  1.00  0.00     0.281 HD
HETATM   10  C   UNL     1      40.156 -15.583   1.979  1.00  0.00     0.239 C 
HETATM   11  C   UNL     1      40.340 -15.699   3.485  1.00  0.00     0.071 C 
HETATM   12  C   UNL     1      41.820 -15.894   3.874  1.00  0.00     0.088 C 
HETATM   13  C   UNL     1      42.543 -14.626   3.378  1.00  0.00     0.071 C 
HETATM   14  C   UNL     1      42.448 -14.483   1.871  1.00  0.00     0.239 C 
BRANCH  12  15
HETATM   15  O   UNL     1      41.879 -15.866   5.299  1.00  0.00    -0.385 OA
HETATM   16  H   UNL     1      42.526 -15.198   5.591  1.00  0.00     0.211 HD
ENDBRANCH  12  15
BRANCH  12  17
HETATM   17  C   UNL     1      42.448 -17.209   3.394  1.00  0.00    -0.024 A 
HETATM   18  C   UNL     1      42.099 -17.780   2.154  1.00  0.00     0.011 A 
HETATM   19  C   UNL     1      42.630 -19.007   1.737  1.00  0.00     0.020 A 
HETATM   20  C   UNL     1      43.548 -19.670   2.539  1.00  0.00     0.011 A 
HETATM   21 BR   UNL     1      44.248 -21.336   1.991  1.00  0.00    -0.051 Br
HETATM   22  C   UNL     1      43.964 -19.103   3.737  1.00  0.00     0.020 A 
HETATM   23  C   UNL     1      43.429 -17.877   4.151  1.00  0.00     0.011 A 
ENDBRANCH  12  17
ENDBRANCH   4   8
BRANCH   1  24
HETATM   24  C   UNL     1      38.456 -14.130  -2.873  1.00  0.00     0.045 A 
HETATM   25  C   UNL     1      37.624 -15.116  -3.427  1.00  0.00     0.031 A 
HETATM   26  C   UNL     1      36.548 -14.776  -4.262  1.00  0.00     0.020 A 
HETATM   27  C   UNL     1      36.284 -13.441  -4.577  1.00  0.00     0.039 A 
HETATM   28  C   UNL     1      37.142 -12.455  -4.089  1.00  0.00     0.020 A 
HETATM   29  C   UNL     1      38.211 -12.799  -3.249  1.00  0.00     0.031 A 
BRANCH  27  30
HETATM   30  C   UNL     1      35.068 -13.120  -5.372  1.00  0.00     0.293 C 
HETATM   31  O   UNL     1      35.107 -12.768  -6.539  1.00  0.00    -0.259 OA
BRANCH  30  32
HETATM   32  O   UNL     1      33.955 -13.348  -4.634  1.00  0.00    -0.318 OA
BRANCH  32  33
HETATM   33  C   UNL     1      33.373 -12.201  -3.993  1.00  0.00     0.174 C 
HETATM   34  C   UNL     1      31.942 -12.522  -3.603  1.00  0.00     0.034 C 
ENDBRANCH  32  33
ENDBRANCH  30  32
ENDBRANCH  27  30
ENDBRANCH   1  24
TORSDOF 7
ENDMDL
MODEL 7
REMARK VINA RESULT:      -7.8      3.813     10.561
REMARK  7 active torsions:
REMARK  status: ('A' for Active; 'I' for Inactive)
REMARK    1  A    between atoms: C_2  and  O_3 
REMARK    2  A    between atoms: O_3  and  C_4 
REMARK    3  A    between atoms: C_4  and  C_5 
REMARK    4  A    between atoms: C_8  and  N_9 
REMARK    5  A    between atoms: C_12  and  N_13 
REMARK    6  A    between atoms: C_17  and  O_18 
REMARK    7  A    between atoms: C_17  and  C_19 
ROOT
HETATM    1  N   UNL     1      40.735 -14.811   1.834  1.00  0.00    -0.251 N 
HETATM    2  C   UNL     1      41.069 -14.464   3.124  1.00  0.00     0.262 C 
HETATM    3  O   UNL     1      40.556 -13.679   3.907  1.00  0.00    -0.270 OA
HETATM    4  C   UNL     1      42.279 -15.280   3.513  1.00  0.00     0.289 C 
HETATM    5  C   UNL     1      42.200 -16.482   2.607  1.00  0.00     0.146 C 
HETATM    6  C   UNL     1      41.431 -15.936   1.440  1.00  0.00     0.233 C 
HETATM    7  O   UNL     1      41.480 -16.485   0.350  1.00  0.00    -0.273 OA
ENDROOT
BRANCH   4   8
HETATM    8  N   UNL     1      42.399 -15.615   5.012  1.00  0.00    -0.058 N 
HETATM    9  H   UNL     1      42.067 -14.755   5.484  1.00  0.00     0.281 HD
HETATM   10  C   UNL     1      41.467 -16.701   5.510  1.00  0.00     0.239 C 
HETATM   11  C   UNL     1      41.685 -16.958   6.993  1.00  0.00     0.071 C 
HETATM   12  C   UNL     1      43.151 -17.315   7.310  1.00  0.00     0.088 C 
HETATM   13  C   UNL     1      43.972 -16.080   6.891  1.00  0.00     0.071 C 
HETATM   14  C   UNL     1      43.846 -15.804   5.405  1.00  0.00     0.239 C 
BRANCH  12  15
HETATM   15  O   UNL     1      43.255 -17.412   8.730  1.00  0.00    -0.385 OA
HETATM   16  H   UNL     1      43.860 -16.725   9.065  1.00  0.00     0.211 HD
ENDBRANCH  12  15
BRANCH  12  17
HETATM   17  C   UNL     1      43.642 -18.637   6.703  1.00  0.00    -0.024 A 
HETATM   18  C   UNL     1      44.300 -18.673   5.458  1.00  0.00     0.011 A 
HETATM   19  C   UNL     1      44.701 -19.882   4.876  1.00  0.00     0.020 A 
HETATM   20  C   UNL     1      44.481 -21.077   5.546  1.00  0.00     0.011 A 
HETATM   21 BR   UNL     1      44.999 -22.711   4.754  1.00  0.00    -0.051 Br
HETATM   22  C   UNL     1      43.894 -21.072   6.805  1.00  0.00     0.020 A 
HETATM   23  C   UNL     1      43.493 -19.861   7.383  1.00  0.00     0.011 A 
ENDBRANCH  12  17
ENDBRANCH   4   8
BRANCH   1  24
HETATM   24  C   UNL     1      39.851 -14.070   0.991  1.00  0.00     0.045 A 
HETATM   25  C   UNL     1      40.339 -13.153   0.047  1.00  0.00     0.031 A 
HETATM   26  C   UNL     1      39.482 -12.526  -0.871  1.00  0.00     0.020 A 
HETATM   27  C   UNL     1      38.110 -12.790  -0.859  1.00  0.00     0.039 A 
HETATM   28  C   UNL     1      37.601 -13.648   0.117  1.00  0.00     0.020 A 
HETATM   29  C   UNL     1      38.463 -14.277   1.026  1.00  0.00     0.031 A 
BRANCH  27  30
HETATM   30  C   UNL     1      37.257 -12.191  -1.922  1.00  0.00     0.293 C 
HETATM   31  O   UNL     1      36.338 -11.425  -1.686  1.00  0.00    -0.259 OA
BRANCH  30  32
HETATM   32  O   UNL     1      37.703 -12.569  -3.144  1.00  0.00    -0.318 OA
BRANCH  32  33
HETATM   33  C   UNL     1      36.836 -13.430  -3.898  1.00  0.00     0.174 C 
HETATM   34  C   UNL     1      37.383 -14.845  -3.860  1.00  0.00     0.034 C 
ENDBRANCH  32  33
ENDBRANCH  30  32
ENDBRANCH  27  30
ENDBRANCH   1  24
TORSDOF 7
ENDMDL
MODEL 8
REMARK VINA RESULT:      -7.8      5.745      8.310
REMARK  7 active torsions:
REMARK  status: ('A' for Active; 'I' for Inactive)
REMARK    1  A    between atoms: C_2  and  O_3 
REMARK    2  A    between atoms: O_3  and  C_4 
REMARK    3  A    between atoms: C_4  and  C_5 
REMARK    4  A    between atoms: C_8  and  N_9 
REMARK    5  A    between atoms: C_12  and  N_13 
REMARK    6  A    between atoms: C_17  and  O_18 
REMARK    7  A    between atoms: C_17  and  C_19 
ROOT
HETATM    1  N   UNL     1      40.122 -11.690   5.520  1.00  0.00    -0.251 N 
HETATM    2  C   UNL     1      40.786 -12.613   4.744  1.00  0.00     0.262 C 
HETATM    3  O   UNL     1      41.517 -13.544   5.046  1.00  0.00    -0.270 OA
HETATM    4  C   UNL     1      40.451 -12.316   3.301  1.00  0.00     0.289 C 
HETATM    5  C   UNL     1      39.132 -11.592   3.387  1.00  0.00     0.146 C 
HETATM    6  C   UNL     1      39.198 -10.996   4.763  1.00  0.00     0.233 C 
HETATM    7  O   UNL     1      38.495 -10.045   5.065  1.00  0.00    -0.273 OA
ENDROOT
BRANCH   4   8
HETATM    8  N   UNL     1      40.452 -13.533   2.356  1.00  0.00    -0.058 N 
HETATM    9  H   UNL     1      39.953 -13.192   1.515  1.00  0.00     0.281 HD
HETATM   10  C   UNL     1      41.814 -13.951   1.841  1.00  0.00     0.239 C 
HETATM   11  C   UNL     1      41.697 -15.167   0.935  1.00  0.00     0.071 C 
HETATM   12  C   UNL     1      40.998 -16.348   1.638  1.00  0.00     0.088 C 
HETATM   13  C   UNL     1      39.584 -15.841   1.980  1.00  0.00     0.071 C 
HETATM   14  C   UNL     1      39.629 -14.661   2.932  1.00  0.00     0.239 C 
BRANCH  12  15
HETATM   15  O   UNL     1      40.838 -17.375   0.660  1.00  0.00    -0.385 OA
HETATM   16  H   UNL     1      40.574 -18.207   1.094  1.00  0.00     0.211 HD
ENDBRANCH  12  15
BRANCH  12  17
HETATM   17  C   UNL     1      41.764 -16.937   2.830  1.00  0.00    -0.024 A 
HETATM   18  C   UNL     1      41.138 -17.146   4.075  1.00  0.00     0.011 A 
HETATM   19  C   UNL     1      41.848 -17.632   5.179  1.00  0.00     0.020 A 
HETATM   20  C   UNL     1      43.192 -17.954   5.050  1.00  0.00     0.011 A 
HETATM   21 BR   UNL     1      44.158 -18.588   6.544  1.00  0.00    -0.051 Br
HETATM   22  C   UNL     1      43.823 -17.822   3.820  1.00  0.00     0.020 A 
HETATM   23  C   UNL     1      43.111 -17.334   2.718  1.00  0.00     0.011 A 
ENDBRANCH  12  17
ENDBRANCH   4   8
BRANCH   1  24
HETATM   24  C   UNL     1      40.397 -11.430   6.897  1.00  0.00     0.045 A 
HETATM   25  C   UNL     1      41.624 -10.882   7.306  1.00  0.00     0.031 A 
HETATM   26  C   UNL     1      41.844 -10.502   8.639  1.00  0.00     0.020 A 
HETATM   27  C   UNL     1      40.847 -10.674   9.603  1.00  0.00     0.039 A 
HETATM   28  C   UNL     1      39.648 -11.279   9.225  1.00  0.00     0.020 A 
HETATM   29  C   UNL     1      39.430 -11.650   7.891  1.00  0.00     0.031 A 
BRANCH  27  30
HETATM   30  C   UNL     1      41.083 -10.154  10.976  1.00  0.00     0.293 C 
HETATM   31  O   UNL     1      40.544  -9.149  11.411  1.00  0.00    -0.259 OA
BRANCH  30  32
HETATM   32  O   UNL     1      41.906 -10.989  11.657  1.00  0.00    -0.318 OA
BRANCH  32  33
HETATM   33  C   UNL     1      43.055 -10.386  12.270  1.00  0.00     0.174 C 
HETATM   34  C   UNL     1      44.264 -10.597  11.377  1.00  0.00     0.034 C 
ENDBRANCH  32  33
ENDBRANCH  30  32
ENDBRANCH  27  30
ENDBRANCH   1  24
TORSDOF 7
ENDMDL
MODEL 9
REMARK VINA RESULT:      -7.7      2.608      3.774
REMARK  7 active torsions:
REMARK  status: ('A' for Active; 'I' for Inactive)
REMARK    1  A    between atoms: C_2  and  O_3 
REMARK    2  A    between atoms: O_3  and  C_4 
REMARK    3  A    between atoms: C_4  and  C_5 
REMARK    4  A    between atoms: C_8  and  N_9 
REMARK    5  A    between atoms: C_12  and  N_13 
REMARK    6  A    between atoms: C_17  and  O_18 
REMARK    7  A    between atoms: C_17  and  C_19 
ROOT
HETATM    1  N   UNL     1      42.049 -15.016   0.819  1.00  0.00    -0.251 N 
HETATM    2  C   UNL     1      42.193 -13.708   1.224  1.00  0.00     0.262 C 
HETATM    3  O   UNL     1      42.833 -13.213   2.140  1.00  0.00    -0.270 OA
HETATM    4  C   UNL     1      41.384 -12.850   0.280  1.00  0.00     0.289 C 
HETATM    5  C   UNL     1      41.300 -13.685  -0.972  1.00  0.00     0.146 C 
HETATM    6  C   UNL     1      41.450 -15.074  -0.424  1.00  0.00     0.233 C 
HETATM    7  O   UNL     1      41.071 -16.041  -1.066  1.00  0.00    -0.273 OA
ENDROOT
BRANCH   4   8
HETATM    8  N   UNL     1      41.916 -11.420   0.062  1.00  0.00    -0.058 N 
HETATM    9  H   UNL     1      42.319 -11.165   0.981  1.00  0.00     0.281 HD
HETATM   10  C   UNL     1      43.077 -11.302  -0.904  1.00  0.00     0.239 C 
HETATM   11  C   UNL     1      43.507  -9.851  -1.054  1.00  0.00     0.071 C 
HETATM   12  C   UNL     1      42.340  -8.944  -1.496  1.00  0.00     0.088 C 
HETATM   13  C   UNL     1      41.296  -9.043  -0.367  1.00  0.00     0.071 C 
HETATM   14  C   UNL     1      40.781 -10.460  -0.205  1.00  0.00     0.239 C 
BRANCH  12  15
HETATM   15  O   UNL     1      42.831  -7.604  -1.483  1.00  0.00    -0.385 OA
HETATM   16  H   UNL     1      42.762  -7.219  -2.376  1.00  0.00     0.211 HD
ENDBRANCH  12  15
BRANCH  12  17
HETATM   17  C   UNL     1      41.787  -9.238  -2.897  1.00  0.00    -0.024 A 
HETATM   18  C   UNL     1      42.533  -9.969  -3.843  1.00  0.00     0.011 A 
HETATM   19  C   UNL     1      42.053 -10.192  -5.139  1.00  0.00     0.020 A 
HETATM   20  C   UNL     1      40.800  -9.718  -5.504  1.00  0.00     0.011 A 
HETATM   21 BR   UNL     1      40.161  -9.997  -7.258  1.00  0.00    -0.051 Br
HETATM   22  C   UNL     1      40.012  -9.051  -4.575  1.00  0.00     0.020 A 
HETATM   23  C   UNL     1      40.495  -8.828  -3.280  1.00  0.00     0.011 A 
ENDBRANCH  12  17
ENDBRANCH   4   8
BRANCH   1  24
HETATM   24  C   UNL     1      42.397 -16.158   1.603  1.00  0.00     0.045 A 
HETATM   25  C   UNL     1      43.511 -16.951   1.284  1.00  0.00     0.031 A 
HETATM   26  C   UNL     1      43.931 -17.991   2.129  1.00  0.00     0.020 A 
HETATM   27  C   UNL     1      43.236 -18.275   3.308  1.00  0.00     0.039 A 
HETATM   28  C   UNL     1      42.088 -17.539   3.603  1.00  0.00     0.020 A 
HETATM   29  C   UNL     1      41.678 -16.497   2.761  1.00  0.00     0.031 A 
BRANCH  27  30
HETATM   30  C   UNL     1      43.783 -19.309   4.227  1.00  0.00     0.293 C 
HETATM   31  O   UNL     1      44.594 -20.151   3.878  1.00  0.00    -0.259 OA
BRANCH  30  32
HETATM   32  O   UNL     1      43.303 -19.121   5.480  1.00  0.00    -0.318 OA
BRANCH  32  33
HETATM   33  C   UNL     1      44.260 -19.212   6.547  1.00  0.00     0.174 C 
HETATM   34  C   UNL     1      45.135 -17.972   6.538  1.00  0.00     0.034 C 
ENDBRANCH  32  33
ENDBRANCH  30  32
ENDBRANCH  27  30
ENDBRANCH   1  24
TORSDOF 7
ENDMDL
MODEL 10
REMARK VINA RESULT:      -7.6      4.394     10.309
REMARK  7 active torsions:
REMARK  status: ('A' for Active; 'I' for Inactive)
REMARK    1  A    between atoms: C_2  and  O_3 
REMARK    2  A    between atoms: O_3  and  C_4 
REMARK    3  A    between atoms: C_4  and  C_5 
REMARK    4  A    between atoms: C_8  and  N_9 
REMARK    5  A    between atoms: C_12  and  N_13 
REMARK    6  A    between atoms: C_17  and  O_18 
REMARK    7  A    between atoms: C_17  and  C_19 
ROOT
HETATM    1  N   UNL     1      40.285 -13.638   2.897  1.00  0.00    -0.251 N 
HETATM    2  C   UNL     1      40.397 -13.892   4.245  1.00  0.00     0.262 C 
HETATM    3  O   UNL     1      39.550 -13.989   5.121  1.00  0.00    -0.270 OA
HETATM    4  C   UNL     1      41.864 -14.079   4.551  1.00  0.00     0.289 C 
HETATM    5  C   UNL     1      42.449 -14.502   3.228  1.00  0.00     0.146 C 
HETATM    6  C   UNL     1      41.482 -13.892   2.256  1.00  0.00     0.233 C 
HETATM    7  O   UNL     1      41.805 -13.697   1.095  1.00  0.00    -0.273 OA
ENDROOT
BRANCH   4   8
HETATM    8  N   UNL     1      42.183 -15.027   5.724  1.00  0.00    -0.058 N 
HETATM    9  H   UNL     1      41.944 -14.469   6.563  1.00  0.00     0.281 HD
HETATM   10  C   UNL     1      41.299 -16.253   5.824  1.00  0.00     0.239 C 
HETATM   11  C   UNL     1      41.713 -17.121   7.002  1.00  0.00     0.071 C 
HETATM   12  C   UNL     1      43.199 -17.528   6.927  1.00  0.00     0.088 C 
HETATM   13  C   UNL     1      43.988 -16.206   6.978  1.00  0.00     0.071 C 
HETATM   14  C   UNL     1      43.664 -15.317   5.792  1.00  0.00     0.239 C 
BRANCH  12  15
HETATM   15  O   UNL     1      43.496 -18.228   8.135  1.00  0.00    -0.385 OA
HETATM   16  H   UNL     1      42.949 -19.032   8.195  1.00  0.00     0.211 HD
ENDBRANCH  12  15
BRANCH  12  17
HETATM   17  C   UNL     1      43.562 -18.438   5.745  1.00  0.00    -0.024 A 
HETATM   18  C   UNL     1      42.971 -18.265   4.478  1.00  0.00     0.011 A 
HETATM   19  C   UNL     1      43.260 -19.126   3.412  1.00  0.00     0.020 A 
HETATM   20  C   UNL     1      44.173 -20.157   3.585  1.00  0.00     0.011 A 
HETATM   21 BR   UNL     1      44.547 -21.334   2.157  1.00  0.00    -0.051 Br
HETATM   22  C   UNL     1      44.823 -20.314   4.803  1.00  0.00     0.020 A 
HETATM   23  C   UNL     1      44.530 -19.452   5.867  1.00  0.00     0.011 A 
ENDBRANCH  12  17
ENDBRANCH   4   8
BRANCH   1  24
HETATM   24  C   UNL     1      39.121 -13.113   2.258  1.00  0.00     0.045 A 
HETATM   25  C   UNL     1      38.707 -11.787   2.468  1.00  0.00     0.031 A 
HETATM   26  C   UNL     1      37.645 -11.232   1.738  1.00  0.00     0.020 A 
HETATM   27  C   UNL     1      36.957 -11.993   0.789  1.00  0.00     0.039 A 
HETATM   28  C   UNL     1      37.314 -13.331   0.618  1.00  0.00     0.020 A 
HETATM   29  C   UNL     1      38.381 -13.879   1.343  1.00  0.00     0.031 A 
BRANCH  27  30
HETATM   30  C   UNL     1      35.914 -11.330  -0.039  1.00  0.00     0.293 C 
HETATM   31  O   UNL     1      36.109 -10.958  -1.184  1.00  0.00    -0.259 OA
BRANCH  30  32
HETATM   32  O   UNL     1      34.743 -11.278   0.640  1.00  0.00    -0.318 OA
BRANCH  32  33
HETATM   33  C   UNL     1      33.870 -10.185   0.316  1.00  0.00     0.174 C 
HETATM   34  C   UNL     1      32.573 -10.338   1.090  1.00  0.00     0.034 C 
ENDBRANCH  32  33
ENDBRANCH  30  32
ENDBRANCH  27  30
ENDBRANCH   1  24
TORSDOF 7
ENDMDL
