MODEL 1
REMARK VINA RESULT:      -8.9      0.000      0.000
REMARK  3 active torsions:
REMARK  status: ('A' for Active; 'I' for Inactive)
REMARK    1  A    between atoms: C_3  and  C_4 
REMARK       I    between atoms: C_4  and  N_5 
REMARK    2  A    between atoms: N_5  and  C_6 
REMARK    3  A    between atoms: C_13  and  C_14 
REMARK       I    between atoms: C_14  and  N_15 
ROOT
HETATM    1  C   UNL     1      41.465 -16.438   0.943  1.00  0.00     0.035 A 
HETATM    2  C   UNL     1      41.346 -15.908  -0.349  1.00  0.00     0.046 A 
HETATM    3  C   UNL     1      40.263 -15.055  -0.653  1.00  0.00     0.030 A 
HETATM    4  C   UNL     1      39.328 -14.778   0.335  1.00  0.00     0.063 A 
HETATM    5  N   UNL     1      38.417 -13.944  -0.252  1.00  0.00    -0.277 N 
HETATM    6  H   UNL     1      37.592 -13.541   0.176  1.00  0.00     0.189 HD
HETATM    7  N   UNL     1      38.687 -13.637  -1.531  1.00  0.00    -0.168 NA
HETATM    8  C   UNL     1      39.828 -14.315  -1.794  1.00  0.00     0.156 A 
HETATM    9  C   UNL     1      39.409 -15.299   1.628  1.00  0.00     0.034 A 
HETATM   10  C   UNL     1      40.503 -16.126   1.913  1.00  0.00     0.032 A 
ENDROOT
BRANCH   1  11
HETATM   11  N   UNL     1      42.543 -17.243   1.352  1.00  0.00    -0.325 N 
HETATM   12  C   UNL     1      43.529 -16.939   2.274  1.00  0.00     0.252 C 
HETATM   13  O   UNL     1      43.735 -15.845   2.791  1.00  0.00    -0.270 OA
HETATM   14  H   UNL     1      42.627 -18.164   0.928  1.00  0.00     0.169 HD
BRANCH  12  15
HETATM   15  C   UNL     1      44.355 -18.163   2.678  1.00  0.00     0.229 C 
HETATM   16  C   UNL     1      44.188 -18.514   4.174  1.00  0.00     0.056 C 
HETATM   17  C   UNL     1      42.820 -18.209   4.781  1.00  0.00     0.018 C 
HETATM   18  C   UNL     1      44.396 -19.985   4.067  1.00  0.00    -0.018 A 
HETATM   19  C   UNL     1      44.266 -20.375   2.743  1.00  0.00     0.076 A 
HETATM   20  C   UNL     1      44.624 -20.919   5.063  1.00  0.00     0.010 A 
HETATM   21  O   UNL     1      44.025 -19.334   1.884  1.00  0.00    -0.335 OA
HETATM   22  C   UNL     1      44.345 -21.698   2.359  1.00  0.00     0.037 A 
HETATM   23  C   UNL     1      44.581 -22.651   3.352  1.00  0.00     0.003 A 
HETATM   24  C   UNL     1      44.721 -22.263   4.696  1.00  0.00     0.001 A 
ENDBRANCH  12  15
ENDBRANCH   1  11
BRANCH   8  25
HETATM   25  C   UNL     1      40.480 -14.230  -3.109  1.00  0.00     0.270 C 
HETATM   26  N   UNL     1      40.048 -13.184  -3.879  1.00  0.00    -0.365 N 
HETATM   27  H   UNL     1      39.347 -12.558  -3.499  1.00  0.00     0.159 HD
HETATM   28  H   UNL     1      40.453 -13.034  -4.789  1.00  0.00     0.159 HD
HETATM   29  O   UNL     1      41.344 -14.999  -3.514  1.00  0.00    -0.266 OA
ENDBRANCH   8  25
TORSDOF 3
ENDMDL
MODEL 2
REMARK VINA RESULT:      -8.8      3.761      5.358
REMARK  3 active torsions:
REMARK  status: ('A' for Active; 'I' for Inactive)
REMARK    1  A    between atoms: C_3  and  C_4 
REMARK       I    between atoms: C_4  and  N_5 
REMARK    2  A    between atoms: N_5  and  C_6 
REMARK    3  A    between atoms: C_13  and  C_14 
REMARK       I    between atoms: C_14  and  N_15 
ROOT
HETATM    1  C   UNL     1      40.224 -14.590   3.376  1.00  0.00     0.035 A 
HETATM    2  C   UNL     1      40.222 -13.882   4.585  1.00  0.00     0.046 A 
HETATM    3  C   UNL     1      39.591 -12.621   4.652  1.00  0.00     0.030 A 
HETATM    4  C   UNL     1      39.003 -12.103   3.506  1.00  0.00     0.063 A 
HETATM    5  N   UNL     1      38.488 -10.893   3.879  1.00  0.00    -0.277 N 
HETATM    6  H   UNL     1      37.988 -10.233   3.294  1.00  0.00     0.189 HD
HETATM    7  N   UNL     1      38.673 -10.584   5.172  1.00  0.00    -0.168 NA
HETATM    8  C   UNL     1      39.352 -11.646   5.666  1.00  0.00     0.156 A 
HETATM    9  C   UNL     1      38.996 -12.776   2.282  1.00  0.00     0.034 A 
HETATM   10  C   UNL     1      39.610 -14.034   2.245  1.00  0.00     0.032 A 
ENDROOT
BRANCH   1  11
HETATM   11  N   UNL     1      40.771 -15.878   3.234  1.00  0.00    -0.325 N 
HETATM   12  C   UNL     1      42.082 -16.272   3.442  1.00  0.00     0.252 C 
HETATM   13  O   UNL     1      43.045 -15.537   3.639  1.00  0.00    -0.270 OA
HETATM   14  H   UNL     1      40.145 -16.623   2.942  1.00  0.00     0.169 HD
BRANCH  12  15
HETATM   15  C   UNL     1      42.239 -17.794   3.481  1.00  0.00     0.229 C 
HETATM   16  C   UNL     1      42.456 -18.397   2.075  1.00  0.00     0.056 C 
HETATM   17  C   UNL     1      43.216 -17.518   1.084  1.00  0.00     0.018 C 
HETATM   18  C   UNL     1      43.284 -19.569   2.476  1.00  0.00    -0.018 A 
HETATM   19  C   UNL     1      43.762 -19.377   3.764  1.00  0.00     0.076 A 
HETATM   20  C   UNL     1      43.640 -20.689   1.746  1.00  0.00     0.010 A 
HETATM   21  O   UNL     1      43.333 -18.211   4.342  1.00  0.00    -0.335 OA
HETATM   22  C   UNL     1      44.614 -20.278   4.368  1.00  0.00     0.037 A 
HETATM   23  C   UNL     1      44.976 -21.417   3.647  1.00  0.00     0.003 A 
HETATM   24  C   UNL     1      44.491 -21.622   2.344  1.00  0.00     0.001 A 
ENDBRANCH  12  15
ENDBRANCH   1  11
BRANCH   8  25
HETATM   25  C   UNL     1      39.740 -11.711   7.082  1.00  0.00     0.270 C 
HETATM   26  N   UNL     1      39.159 -12.740   7.773  1.00  0.00    -0.365 N 
HETATM   27  H   UNL     1      38.538 -13.369   7.276  1.00  0.00     0.159 HD
HETATM   28  H   UNL     1      39.382 -12.876   8.746  1.00  0.00     0.159 HD
HETATM   29  O   UNL     1      40.518 -10.939   7.632  1.00  0.00    -0.266 OA
ENDBRANCH   8  25
TORSDOF 3
ENDMDL
MODEL 3
REMARK VINA RESULT:      -8.8      1.596      1.952
REMARK  3 active torsions:
REMARK  status: ('A' for Active; 'I' for Inactive)
REMARK    1  A    between atoms: C_3  and  C_4 
REMARK       I    between atoms: C_4  and  N_5 
REMARK    2  A    between atoms: N_5  and  C_6 
REMARK    3  A    between atoms: C_13  and  C_14 
REMARK       I    between atoms: C_14  and  N_15 
ROOT
HETATM    1  C   UNL     1      41.755 -15.102   0.162  1.00  0.00     0.035 A 
HETATM    2  C   UNL     1      40.906 -15.395  -0.913  1.00  0.00     0.046 A 
HETATM    3  C   UNL     1      40.252 -14.344  -1.590  1.00  0.00     0.030 A 
HETATM    4  C   UNL     1      40.451 -13.040  -1.158  1.00  0.00     0.063 A 
HETATM    5  N   UNL     1      39.698 -12.262  -1.991  1.00  0.00    -0.277 N 
HETATM    6  H   UNL     1      39.601 -11.253  -1.967  1.00  0.00     0.189 HD
HETATM    7  N   UNL     1      39.038 -12.942  -2.942  1.00  0.00    -0.168 NA
HETATM    8  C   UNL     1      39.373 -14.233  -2.710  1.00  0.00     0.156 A 
HETATM    9  C   UNL     1      41.281 -12.712  -0.083  1.00  0.00     0.034 A 
HETATM   10  C   UNL     1      41.935 -13.770   0.560  1.00  0.00     0.032 A 
ENDROOT
BRANCH   1  11
HETATM   11  N   UNL     1      42.495 -16.078   0.852  1.00  0.00    -0.325 N 
HETATM   12  C   UNL     1      42.085 -17.344   1.234  1.00  0.00     0.252 C 
HETATM   13  O   UNL     1      40.944 -17.791   1.179  1.00  0.00    -0.270 OA
HETATM   14  H   UNL     1      43.450 -15.845   1.113  1.00  0.00     0.169 HD
BRANCH  12  15
HETATM   15  C   UNL     1      43.248 -18.225   1.696  1.00  0.00     0.229 C 
HETATM   16  C   UNL     1      43.508 -18.105   3.215  1.00  0.00     0.056 C 
HETATM   17  C   UNL     1      42.278 -17.847   4.082  1.00  0.00     0.018 C 
HETATM   18  C   UNL     1      44.033 -19.479   3.447  1.00  0.00    -0.018 A 
HETATM   19  C   UNL     1      43.708 -20.286   2.366  1.00  0.00     0.076 A 
HETATM   20  C   UNL     1      44.694 -19.997   4.547  1.00  0.00     0.010 A 
HETATM   21  O   UNL     1      43.040 -19.625   1.368  1.00  0.00    -0.335 OA
HETATM   22  C   UNL     1      44.014 -21.631   2.341  1.00  0.00     0.037 A 
HETATM   23  C   UNL     1      44.687 -22.167   3.441  1.00  0.00     0.003 A 
HETATM   24  C   UNL     1      45.025 -21.355   4.537  1.00  0.00     0.001 A 
ENDBRANCH  12  15
ENDBRANCH   1  11
BRANCH   8  25
HETATM   25  C   UNL     1      38.864 -15.318  -3.561  1.00  0.00     0.270 C 
HETATM   26  N   UNL     1      37.562 -15.659  -3.311  1.00  0.00    -0.365 N 
HETATM   27  H   UNL     1      37.056 -15.151  -2.596  1.00  0.00     0.159 HD
HETATM   28  H   UNL     1      37.121 -16.380  -3.860  1.00  0.00     0.159 HD
HETATM   29  O   UNL     1      39.511 -15.886  -4.434  1.00  0.00    -0.266 OA
ENDBRANCH   8  25
TORSDOF 3
ENDMDL
MODEL 4
REMARK VINA RESULT:      -8.4      6.131      8.678
REMARK  3 active torsions:
REMARK  status: ('A' for Active; 'I' for Inactive)
REMARK    1  A    between atoms: C_3  and  C_4 
REMARK       I    between atoms: C_4  and  N_5 
REMARK    2  A    between atoms: N_5  and  C_6 
REMARK    3  A    between atoms: C_13  and  C_14 
REMARK       I    between atoms: C_14  and  N_15 
ROOT
HETATM    1  C   UNL     1      44.738 -14.327   7.156  1.00  0.00     0.035 A 
HETATM    2  C   UNL     1      44.250 -13.648   8.280  1.00  0.00     0.046 A 
HETATM    3  C   UNL     1      44.945 -12.519   8.767  1.00  0.00     0.030 A 
HETATM    4  C   UNL     1      46.111 -12.121   8.127  1.00  0.00     0.063 A 
HETATM    5  N   UNL     1      46.546 -11.024   8.816  1.00  0.00    -0.277 N 
HETATM    6  H   UNL     1      47.375 -10.472   8.630  1.00  0.00     0.189 HD
HETATM    7  N   UNL     1      45.756 -10.660   9.839  1.00  0.00    -0.168 NA
HETATM    8  C   UNL     1      44.758 -11.574   9.820  1.00  0.00     0.156 A 
HETATM    9  C   UNL     1      46.632 -12.781   7.012  1.00  0.00     0.034 A 
HETATM   10  C   UNL     1      45.915 -13.886   6.535  1.00  0.00     0.032 A 
ENDROOT
BRANCH   1  11
HETATM   11  N   UNL     1      44.078 -15.420   6.566  1.00  0.00    -0.325 N 
HETATM   12  C   UNL     1      42.926 -15.404   5.800  1.00  0.00     0.252 C 
HETATM   13  O   UNL     1      42.177 -14.448   5.624  1.00  0.00    -0.270 OA
HETATM   14  H   UNL     1      44.480 -16.343   6.710  1.00  0.00     0.169 HD
BRANCH  12  15
HETATM   15  C   UNL     1      42.675 -16.734   5.086  1.00  0.00     0.229 C 
HETATM   16  C   UNL     1      42.614 -16.575   3.551  1.00  0.00     0.056 C 
HETATM   17  C   UNL     1      43.502 -15.480   2.960  1.00  0.00     0.018 C 
HETATM   18  C   UNL     1      43.129 -17.922   3.180  1.00  0.00    -0.018 A 
HETATM   19  C   UNL     1      43.739 -18.503   4.282  1.00  0.00     0.076 A 
HETATM   20  C   UNL     1      43.116 -18.565   1.954  1.00  0.00     0.010 A 
HETATM   21  O   UNL     1      43.682 -17.730   5.412  1.00  0.00    -0.335 OA
HETATM   22  C   UNL     1      44.364 -19.731   4.208  1.00  0.00     0.037 A 
HETATM   23  C   UNL     1      44.353 -20.395   2.980  1.00  0.00     0.003 A 
HETATM   24  C   UNL     1      43.732 -19.816   1.860  1.00  0.00     0.001 A 
ENDBRANCH  12  15
ENDBRANCH   1  11
BRANCH   8  25
HETATM   25  C   UNL     1      43.653 -11.517  10.788  1.00  0.00     0.270 C 
HETATM   26  N   UNL     1      43.667 -12.527  11.710  1.00  0.00    -0.365 N 
HETATM   27  H   UNL     1      44.415 -13.209  11.673  1.00  0.00     0.159 HD
HETATM   28  H   UNL     1      42.958 -12.558  12.427  1.00  0.00     0.159 HD
HETATM   29  O   UNL     1      42.783 -10.653  10.807  1.00  0.00    -0.266 OA
ENDBRANCH   8  25
TORSDOF 3
ENDMDL
MODEL 5
REMARK VINA RESULT:      -8.3      2.255      3.175
REMARK  3 active torsions:
REMARK  status: ('A' for Active; 'I' for Inactive)
REMARK    1  A    between atoms: C_3  and  C_4 
REMARK       I    between atoms: C_4  and  N_5 
REMARK    2  A    between atoms: N_5  and  C_6 
REMARK    3  A    between atoms: C_13  and  C_14 
REMARK       I    between atoms: C_14  and  N_15 
ROOT
HETATM    1  C   UNL     1      39.967 -15.322   1.405  1.00  0.00     0.035 A 
HETATM    2  C   UNL     1      40.587 -15.213   0.153  1.00  0.00     0.046 A 
HETATM    3  C   UNL     1      40.024 -14.372  -0.831  1.00  0.00     0.030 A 
HETATM    4  C   UNL     1      38.853 -13.687  -0.538  1.00  0.00     0.063 A 
HETATM    5  N   UNL     1      38.559 -12.974  -1.666  1.00  0.00    -0.277 N 
HETATM    6  H   UNL     1      37.767 -12.358  -1.814  1.00  0.00     0.189 HD
HETATM    7  N   UNL     1      39.446 -13.119  -2.664  1.00  0.00    -0.168 NA
HETATM    8  C   UNL     1      40.362 -13.980  -2.161  1.00  0.00     0.156 A 
HETATM    9  C   UNL     1      38.202 -13.781   0.694  1.00  0.00     0.034 A 
HETATM   10  C   UNL     1      38.790 -14.605   1.662  1.00  0.00     0.032 A 
ENDROOT
BRANCH   1  11
HETATM   11  N   UNL     1      40.491 -16.084   2.464  1.00  0.00    -0.325 N 
HETATM   12  C   UNL     1      41.417 -15.693   3.416  1.00  0.00     0.252 C 
HETATM   13  O   UNL     1      42.070 -14.654   3.419  1.00  0.00    -0.270 OA
HETATM   14  H   UNL     1      40.166 -17.043   2.558  1.00  0.00     0.169 HD
BRANCH  12  15
HETATM   15  C   UNL     1      41.521 -16.685   4.577  1.00  0.00     0.229 C 
HETATM   16  C   UNL     1      42.391 -17.912   4.224  1.00  0.00     0.056 C 
HETATM   17  C   UNL     1      43.546 -17.653   3.258  1.00  0.00     0.018 C 
HETATM   18  C   UNL     1      42.908 -18.203   5.591  1.00  0.00    -0.018 A 
HETATM   19  C   UNL     1      42.699 -17.101   6.407  1.00  0.00     0.076 A 
HETATM   20  C   UNL     1      43.564 -19.324   6.066  1.00  0.00     0.010 A 
HETATM   21  O   UNL     1      42.053 -16.067   5.781  1.00  0.00    -0.335 OA
HETATM   22  C   UNL     1      43.139 -17.066   7.714  1.00  0.00     0.037 A 
HETATM   23  C   UNL     1      43.797 -18.194   8.210  1.00  0.00     0.003 A 
HETATM   24  C   UNL     1      44.007 -19.316   7.391  1.00  0.00     0.001 A 
ENDBRANCH  12  15
ENDBRANCH   1  11
BRANCH   8  25
HETATM   25  C   UNL     1      41.533 -14.392  -2.948  1.00  0.00     0.270 C 
HETATM   26  N   UNL     1      42.544 -13.470  -2.968  1.00  0.00    -0.365 N 
HETATM   27  H   UNL     1      42.425 -12.607  -2.449  1.00  0.00     0.159 HD
HETATM   28  H   UNL     1      43.396 -13.674  -3.466  1.00  0.00     0.159 HD
HETATM   29  O   UNL     1      41.639 -15.462  -3.538  1.00  0.00    -0.266 OA
ENDBRANCH   8  25
TORSDOF 3
ENDMDL
MODEL 6
REMARK VINA RESULT:      -8.1      4.552      5.844
REMARK  3 active torsions:
REMARK  status: ('A' for Active; 'I' for Inactive)
REMARK    1  A    between atoms: C_3  and  C_4 
REMARK       I    between atoms: C_4  and  N_5 
REMARK    2  A    between atoms: N_5  and  C_6 
REMARK    3  A    between atoms: C_13  and  C_14 
REMARK       I    between atoms: C_14  and  N_15 
ROOT
HETATM    1  C   UNL     1      42.434 -13.718   4.077  1.00  0.00     0.035 A 
HETATM    2  C   UNL     1      42.369 -13.025   5.293  1.00  0.00     0.046 A 
HETATM    3  C   UNL     1      41.711 -11.778   5.350  1.00  0.00     0.030 A 
HETATM    4  C   UNL     1      41.159 -11.257   4.187  1.00  0.00     0.063 A 
HETATM    5  N   UNL     1      40.606 -10.062   4.553  1.00  0.00    -0.277 N 
HETATM    6  H   UNL     1      40.117  -9.404   3.956  1.00  0.00     0.189 HD
HETATM    7  N   UNL     1      40.732  -9.765   5.856  1.00  0.00    -0.168 NA
HETATM    8  C   UNL     1      41.411 -10.820   6.365  1.00  0.00     0.156 A 
HETATM    9  C   UNL     1      41.215 -11.914   2.956  1.00  0.00     0.034 A 
HETATM   10  C   UNL     1      41.855 -13.159   2.929  1.00  0.00     0.032 A 
ENDROOT
BRANCH   1  11
HETATM   11  N   UNL     1      43.012 -14.992   3.943  1.00  0.00    -0.325 N 
HETATM   12  C   UNL     1      42.386 -16.178   3.598  1.00  0.00     0.252 C 
HETATM   13  O   UNL     1      41.177 -16.365   3.499  1.00  0.00    -0.270 OA
HETATM   14  H   UNL     1      44.010 -15.074   4.118  1.00  0.00     0.169 HD
BRANCH  12  15
HETATM   15  C   UNL     1      43.380 -17.292   3.262  1.00  0.00     0.229 C 
HETATM   16  C   UNL     1      43.840 -18.067   4.517  1.00  0.00     0.056 C 
HETATM   17  C   UNL     1      42.805 -18.198   5.633  1.00  0.00     0.018 C 
HETATM   18  C   UNL     1      44.082 -19.387   3.871  1.00  0.00    -0.018 A 
HETATM   19  C   UNL     1      43.465 -19.413   2.629  1.00  0.00     0.076 A 
HETATM   20  C   UNL     1      44.742 -20.501   4.359  1.00  0.00     0.010 A 
HETATM   21  O   UNL     1      42.839 -18.239   2.301  1.00  0.00    -0.335 OA
HETATM   22  C   UNL     1      43.470 -20.541   1.834  1.00  0.00     0.037 A 
HETATM   23  C   UNL     1      44.139 -21.670   2.310  1.00  0.00     0.003 A 
HETATM   24  C   UNL     1      44.772 -21.650   3.565  1.00  0.00     0.001 A 
ENDBRANCH  12  15
ENDBRANCH   1  11
BRANCH   8  25
HETATM   25  C   UNL     1      41.743 -10.895   7.795  1.00  0.00     0.270 C 
HETATM   26  N   UNL     1      40.673 -11.172   8.601  1.00  0.00    -0.365 N 
HETATM   27  H   UNL     1      39.766 -11.313   8.173  1.00  0.00     0.159 HD
HETATM   28  H   UNL     1      40.808 -11.262   9.596  1.00  0.00     0.159 HD
HETATM   29  O   UNL     1      42.866 -10.741   8.263  1.00  0.00    -0.266 OA
ENDBRANCH   8  25
TORSDOF 3
ENDMDL
MODEL 7
REMARK VINA RESULT:      -7.9      2.614      8.224
REMARK  3 active torsions:
REMARK  status: ('A' for Active; 'I' for Inactive)
REMARK    1  A    between atoms: C_3  and  C_4 
REMARK       I    between atoms: C_4  and  N_5 
REMARK    2  A    between atoms: N_5  and  C_6 
REMARK    3  A    between atoms: C_13  and  C_14 
REMARK       I    between atoms: C_14  and  N_15 
ROOT
HETATM    1  C   UNL     1      42.882 -17.310   2.300  1.00  0.00     0.035 A 
HETATM    2  C   UNL     1      43.276 -18.651   2.189  1.00  0.00     0.046 A 
HETATM    3  C   UNL     1      43.949 -19.269   3.265  1.00  0.00     0.030 A 
HETATM    4  C   UNL     1      44.222 -18.522   4.404  1.00  0.00     0.063 A 
HETATM    5  N   UNL     1      44.871 -19.377   5.250  1.00  0.00    -0.277 N 
HETATM    6  H   UNL     1      45.224 -19.171   6.178  1.00  0.00     0.189 HD
HETATM    7  N   UNL     1      45.029 -20.622   4.771  1.00  0.00    -0.168 NA
HETATM    8  C   UNL     1      44.461 -20.572   3.544  1.00  0.00     0.156 A 
HETATM    9  C   UNL     1      43.854 -17.183   4.543  1.00  0.00     0.034 A 
HETATM   10  C   UNL     1      43.169 -16.597   3.471  1.00  0.00     0.032 A 
ENDROOT
BRANCH   1  11
HETATM   11  N   UNL     1      42.152 -16.635   1.305  1.00  0.00    -0.325 N 
HETATM   12  C   UNL     1      40.844 -16.187   1.367  1.00  0.00     0.252 C 
HETATM   13  O   UNL     1      40.025 -16.437   2.247  1.00  0.00    -0.270 OA
HETATM   14  H   UNL     1      42.625 -16.444   0.426  1.00  0.00     0.169 HD
BRANCH  12  15
HETATM   15  C   UNL     1      40.491 -15.240   0.218  1.00  0.00     0.229 C 
HETATM   16  C   UNL     1      40.744 -13.759   0.579  1.00  0.00     0.056 C 
HETATM   17  C   UNL     1      41.909 -13.497   1.531  1.00  0.00     0.018 C 
HETATM   18  C   UNL     1      41.064 -13.262  -0.789  1.00  0.00    -0.018 A 
HETATM   19  C   UNL     1      41.345 -14.339  -1.617  1.00  0.00     0.076 A 
HETATM   20  C   UNL     1      41.160 -11.963  -1.255  1.00  0.00     0.010 A 
HETATM   21  O   UNL     1      41.222 -15.556  -0.998  1.00  0.00    -0.335 OA
HETATM   22  C   UNL     1      41.739 -14.169  -2.928  1.00  0.00     0.037 A 
HETATM   23  C   UNL     1      41.834 -12.864  -3.415  1.00  0.00     0.003 A 
HETATM   24  C   UNL     1      41.545 -11.768  -2.584  1.00  0.00     0.001 A 
ENDBRANCH  12  15
ENDBRANCH   1  11
BRANCH   8  25
HETATM   25  C   UNL     1      44.406 -21.760   2.680  1.00  0.00     0.270 C 
HETATM   26  N   UNL     1      44.721 -22.928   3.318  1.00  0.00    -0.365 N 
HETATM   27  H   UNL     1      44.948 -22.897   4.305  1.00  0.00     0.159 HD
HETATM   28  H   UNL     1      44.691 -23.798   2.810  1.00  0.00     0.159 HD
HETATM   29  O   UNL     1      44.100 -21.749   1.492  1.00  0.00    -0.266 OA
ENDBRANCH   8  25
TORSDOF 3
ENDMDL
MODEL 8
REMARK VINA RESULT:      -7.9      2.827      8.345
REMARK  3 active torsions:
REMARK  status: ('A' for Active; 'I' for Inactive)
REMARK    1  A    between atoms: C_3  and  C_4 
REMARK       I    between atoms: C_4  and  N_5 
REMARK    2  A    between atoms: N_5  and  C_6 
REMARK    3  A    between atoms: C_13  and  C_14 
REMARK       I    between atoms: C_14  and  N_15 
ROOT
HETATM    1  C   UNL     1      41.759 -16.887   4.295  1.00  0.00     0.035 A 
HETATM    2  C   UNL     1      42.627 -17.984   4.378  1.00  0.00     0.046 A 
HETATM    3  C   UNL     1      43.082 -18.418   5.641  1.00  0.00     0.030 A 
HETATM    4  C   UNL     1      42.671 -17.730   6.775  1.00  0.00     0.063 A 
HETATM    5  N   UNL     1      43.267 -18.371   7.824  1.00  0.00    -0.277 N 
HETATM    6  H   UNL     1      43.192 -18.138   8.808  1.00  0.00     0.189 HD
HETATM    7  N   UNL     1      44.016 -19.430   7.477  1.00  0.00    -0.168 NA
HETATM    8  C   UNL     1      43.910 -19.474   6.128  1.00  0.00     0.156 A 
HETATM    9  C   UNL     1      41.817 -16.626   6.729  1.00  0.00     0.034 A 
HETATM   10  C   UNL     1      41.363 -16.226   5.465  1.00  0.00     0.032 A 
ENDROOT
BRANCH   1  11
HETATM   11  N   UNL     1      41.207 -16.427   3.086  1.00  0.00    -0.325 N 
HETATM   12  C   UNL     1      41.874 -16.093   1.920  1.00  0.00     0.252 C 
HETATM   13  O   UNL     1      43.088 -15.988   1.775  1.00  0.00    -0.270 OA
HETATM   14  H   UNL     1      40.198 -16.317   3.044  1.00  0.00     0.169 HD
BRANCH  12  15
HETATM   15  C   UNL     1      40.927 -15.922   0.729  1.00  0.00     0.229 C 
HETATM   16  C   UNL     1      40.305 -14.508   0.673  1.00  0.00     0.056 C 
HETATM   17  C   UNL     1      41.186 -13.373   1.193  1.00  0.00     0.018 C 
HETATM   18  C   UNL     1      40.143 -14.410  -0.804  1.00  0.00    -0.018 A 
HETATM   19  C   UNL     1      40.916 -15.383  -1.419  1.00  0.00     0.076 A 
HETATM   20  C   UNL     1      39.420 -13.498  -1.554  1.00  0.00     0.010 A 
HETATM   21  O   UNL     1      41.584 -16.193  -0.538  1.00  0.00    -0.335 OA
HETATM   22  C   UNL     1      41.008 -15.483  -2.792  1.00  0.00     0.037 A 
HETATM   23  C   UNL     1      40.279 -14.575  -3.562  1.00  0.00     0.003 A 
HETATM   24  C   UNL     1      39.488 -13.589  -2.946  1.00  0.00     0.001 A 
ENDBRANCH  12  15
ENDBRANCH   1  11
BRANCH   8  25
HETATM   25  C   UNL     1      44.580 -20.521   5.344  1.00  0.00     0.270 C 
HETATM   26  N   UNL     1      44.435 -21.781   5.857  1.00  0.00    -0.365 N 
HETATM   27  H   UNL     1      43.886 -21.902   6.700  1.00  0.00     0.159 HD
HETATM   28  H   UNL     1      44.845 -22.566   5.375  1.00  0.00     0.159 HD
HETATM   29  O   UNL     1      45.214 -20.326   4.312  1.00  0.00    -0.266 OA
ENDBRANCH   8  25
TORSDOF 3
ENDMDL
MODEL 9
REMARK VINA RESULT:      -7.7      2.756      8.488
REMARK  3 active torsions:
REMARK  status: ('A' for Active; 'I' for Inactive)
REMARK    1  A    between atoms: C_3  and  C_4 
REMARK       I    between atoms: C_4  and  N_5 
REMARK    2  A    between atoms: N_5  and  C_6 
REMARK    3  A    between atoms: C_13  and  C_14 
REMARK       I    between atoms: C_14  and  N_15 
ROOT
HETATM    1  C   UNL     1      42.944 -16.916   3.331  1.00  0.00     0.035 A 
HETATM    2  C   UNL     1      43.294 -18.214   2.935  1.00  0.00     0.046 A 
HETATM    3  C   UNL     1      43.891 -19.089   3.868  1.00  0.00     0.030 A 
HETATM    4  C   UNL     1      44.137 -18.631   5.156  1.00  0.00     0.063 A 
HETATM    5  N   UNL     1      44.713 -19.683   5.811  1.00  0.00    -0.277 N 
HETATM    6  H   UNL     1      45.028 -19.708   6.774  1.00  0.00     0.189 HD
HETATM    7  N   UNL     1      44.848 -20.794   5.069  1.00  0.00    -0.168 NA
HETATM    8  C   UNL     1      44.341 -20.444   3.863  1.00  0.00     0.156 A 
HETATM    9  C   UNL     1      43.812 -17.341   5.581  1.00  0.00     0.034 A 
HETATM   10  C   UNL     1      43.202 -16.498   4.644  1.00  0.00     0.032 A 
ENDROOT
BRANCH   1  11
HETATM   11  N   UNL     1      42.289 -16.001   2.489  1.00  0.00    -0.325 N 
HETATM   12  C   UNL     1      40.984 -16.052   2.029  1.00  0.00     0.252 C 
HETATM   13  O   UNL     1      40.203 -16.992   2.146  1.00  0.00    -0.270 OA
HETATM   14  H   UNL     1      42.822 -15.198   2.165  1.00  0.00     0.169 HD
BRANCH  12  15
HETATM   15  C   UNL     1      40.536 -14.739   1.382  1.00  0.00     0.229 C 
HETATM   16  C   UNL     1      41.102 -14.564  -0.045  1.00  0.00     0.056 C 
HETATM   17  C   UNL     1      41.296 -15.851  -0.845  1.00  0.00     0.018 C 
HETATM   18  C   UNL     1      39.989 -13.756  -0.614  1.00  0.00    -0.018 A 
HETATM   19  C   UNL     1      38.877 -13.857   0.209  1.00  0.00     0.076 A 
HETATM   20  C   UNL     1      39.935 -13.036  -1.794  1.00  0.00     0.010 A 
HETATM   21  O   UNL     1      39.089 -14.621   1.327  1.00  0.00    -0.335 OA
HETATM   22  C   UNL     1      37.675 -13.260  -0.110  1.00  0.00     0.037 A 
HETATM   23  C   UNL     1      37.608 -12.524  -1.294  1.00  0.00     0.003 A 
HETATM   24  C   UNL     1      38.731 -12.411  -2.131  1.00  0.00     0.001 A 
ENDBRANCH  12  15
ENDBRANCH   1  11
BRANCH   8  25
HETATM   25  C   UNL     1      44.284 -21.403   2.752  1.00  0.00     0.270 C 
HETATM   26  N   UNL     1      44.653 -22.676   3.094  1.00  0.00    -0.365 N 
HETATM   27  H   UNL     1      44.916 -22.864   4.054  1.00  0.00     0.159 HD
HETATM   28  H   UNL     1      44.626 -23.406   2.400  1.00  0.00     0.159 HD
HETATM   29  O   UNL     1      43.933 -21.131   1.609  1.00  0.00    -0.266 OA
ENDBRANCH   8  25
TORSDOF 3
ENDMDL
MODEL 10
REMARK VINA RESULT:      -7.6      2.410      2.877
REMARK  3 active torsions:
REMARK  status: ('A' for Active; 'I' for Inactive)
REMARK    1  A    between atoms: C_3  and  C_4 
REMARK       I    between atoms: C_4  and  N_5 
REMARK    2  A    between atoms: N_5  and  C_6 
REMARK    3  A    between atoms: C_13  and  C_14 
REMARK       I    between atoms: C_14  and  N_15 
ROOT
HETATM    1  C   UNL     1      40.616 -14.481   2.290  1.00  0.00     0.035 A 
HETATM    2  C   UNL     1      40.612 -13.767   1.084  1.00  0.00     0.046 A 
HETATM    3  C   UNL     1      40.146 -12.434   1.067  1.00  0.00     0.030 A 
HETATM    4  C   UNL     1      39.683 -11.869   2.247  1.00  0.00     0.063 A 
HETATM    5  N   UNL     1      39.305 -10.598   1.917  1.00  0.00    -0.277 N 
HETATM    6  H   UNL     1      38.916  -9.894   2.533  1.00  0.00     0.189 HD
HETATM    7  N   UNL     1      39.499 -10.277   0.627  1.00  0.00    -0.168 NA
HETATM    8  C   UNL     1      40.022 -11.403   0.088  1.00  0.00     0.156 A 
HETATM    9  C   UNL     1      39.662 -12.555   3.464  1.00  0.00     0.034 A 
HETATM   10  C   UNL     1      40.148 -13.869   3.461  1.00  0.00     0.032 A 
ENDROOT
BRANCH   1  11
HETATM   11  N   UNL     1      41.120 -15.788   2.413  1.00  0.00    -0.325 N 
HETATM   12  C   UNL     1      42.306 -16.190   3.002  1.00  0.00     0.252 C 
HETATM   13  O   UNL     1      43.214 -15.461   3.390  1.00  0.00    -0.270 OA
HETATM   14  H   UNL     1      40.561 -16.544   2.026  1.00  0.00     0.169 HD
BRANCH  12  15
HETATM   15  C   UNL     1      42.375 -17.704   3.212  1.00  0.00     0.229 C 
HETATM   16  C   UNL     1      42.715 -18.462   1.909  1.00  0.00     0.056 C 
HETATM   17  C   UNL     1      43.628 -17.725   0.930  1.00  0.00     0.018 C 
HETATM   18  C   UNL     1      43.429 -19.619   2.519  1.00  0.00    -0.018 A 
HETATM   19  C   UNL     1      43.769 -19.312   3.828  1.00  0.00     0.076 A 
HETATM   20  C   UNL     1      43.802 -20.824   1.952  1.00  0.00     0.010 A 
HETATM   21  O   UNL     1      43.342 -18.074   4.232  1.00  0.00    -0.335 OA
HETATM   22  C   UNL     1      44.498 -20.179   4.616  1.00  0.00     0.037 A 
HETATM   23  C   UNL     1      44.876 -21.403   4.059  1.00  0.00     0.003 A 
HETATM   24  C   UNL     1      44.529 -21.724   2.736  1.00  0.00     0.001 A 
ENDBRANCH  12  15
ENDBRANCH   1  11
BRANCH   8  25
HETATM   25  C   UNL     1      40.401 -11.464  -1.331  1.00  0.00     0.270 C 
HETATM   26  N   UNL     1      39.400 -11.896  -2.158  1.00  0.00    -0.365 N 
HETATM   27  H   UNL     1      38.499 -12.122  -1.753  1.00  0.00     0.159 HD
HETATM   28  H   UNL     1      39.562 -11.951  -3.151  1.00  0.00     0.159 HD
HETATM   29  O   UNL     1      41.500 -11.154  -1.777  1.00  0.00    -0.266 OA
ENDBRANCH   8  25
TORSDOF 3
ENDMDL
