MODEL 1
REMARK VINA RESULT:     -10.0      0.000      0.000
REMARK  6 active torsions:
REMARK  status: ('A' for Active; 'I' for Inactive)
REMARK    1  A    between atoms: C_11  and  N_12 
REMARK       I    between atoms: N_12  and  C_13 
REMARK    2  A    between atoms: C_13  and  C_14 
REMARK    3  A    between atoms: N_15  and  C_17 
REMARK    4  A    between atoms: C_17  and  C_18 
REMARK    5  A    between atoms: C_26  and  S_27 
REMARK    6  A    between atoms: S_27  and  C_28 
ROOT
HETATM    1  C   UNL     1      42.939 -13.681   3.947  1.00  0.00     0.281 C 
HETATM    2  N   UNL     1      42.604 -15.179   3.651  1.00  0.00    -0.053 N 
HETATM    3  H   UNL     1      43.475 -15.600   3.296  1.00  0.00     0.281 HD
HETATM    4  C   UNL     1      41.599 -15.193   2.516  1.00  0.00     0.252 C 
HETATM    5  C   UNL     1      41.876 -13.897   1.773  1.00  0.00     0.083 C 
HETATM    6  C   UNL     1      42.097 -12.918   2.917  1.00  0.00     0.060 C 
ENDROOT
BRANCH   1   7
HETATM    7  C   UNL     1      42.719 -13.178   5.399  1.00  0.00     0.253 C 
HETATM    8  N   UNL     1      41.789 -12.158   5.530  1.00  0.00    -0.325 N 
HETATM    9  H   UNL     1      41.374 -11.752   4.700  1.00  0.00     0.169 HD
HETATM   10  O   UNL     1      43.377 -13.651   6.322  1.00  0.00    -0.271 OA
BRANCH   8  11
HETATM   11  C   UNL     1      41.280 -11.628   6.743  1.00  0.00     0.036 A 
HETATM   12  C   UNL     1      42.072 -11.113   7.771  1.00  0.00     0.059 A 
HETATM   13  C   UNL     1      41.526 -10.663   8.993  1.00  0.00     0.041 A 
HETATM   14  N   UNL     1      42.433 -10.223   9.973  1.00  0.00    -0.355 N 
HETATM   15  C   UNL     1      40.145 -10.759   9.179  1.00  0.00    -0.031 A 
HETATM   16  C   UNL     1      42.399 -10.107  11.374  1.00  0.00     0.039 A 
HETATM   17  H   UNL     1      43.318  -9.921   9.579  1.00  0.00     0.166 HD
HETATM   18  C   UNL     1      41.334 -10.509  12.194  1.00  0.00    -0.031 A 
HETATM   19  C   UNL     1      43.551  -9.576  11.995  1.00  0.00     0.030 A 
HETATM   20  C   UNL     1      41.470 -10.420  13.597  1.00  0.00     0.009 A 
HETATM   21  C   UNL     1      40.048 -11.087  11.661  1.00  0.00     0.045 C 
HETATM   22  C   UNL     1      42.622  -9.906  14.186  1.00  0.00     0.001 A 
HETATM   23  C   UNL     1      43.663  -9.474  13.382  1.00  0.00     0.002 A 
HETATM   24  C   UNL     1      39.489 -10.328  10.463  1.00  0.00     0.045 C 
HETATM   25  C   UNL     1      39.338 -11.239   8.132  1.00  0.00     0.012 A 
HETATM   26  C   UNL     1      39.899 -11.668   6.928  1.00  0.00     0.030 A 
ENDBRANCH   8  11
ENDBRANCH   1   7
BRANCH   2  27
HETATM   27  C   UNL     1      42.213 -16.081   4.803  1.00  0.00     0.277 C 
BRANCH  27  28
HETATM   28  C   UNL     1      43.192 -17.199   5.035  1.00  0.00     0.006 A 
HETATM   29  C   UNL     1      43.164 -18.323   4.206  1.00  0.00     0.124 A 
HETATM   30  F   UNL     1      42.233 -18.396   3.244  1.00  0.00    -0.206 F 
HETATM   31  C   UNL     1      44.046 -19.383   4.385  1.00  0.00     0.043 A 
HETATM   32  C   UNL     1      44.979 -19.327   5.417  1.00  0.00     0.003 A 
HETATM   33  C   UNL     1      45.022 -18.214   6.260  1.00  0.00     0.001 A 
HETATM   34  C   UNL     1      44.135 -17.151   6.071  1.00  0.00     0.012 A 
ENDBRANCH  27  28
ENDBRANCH   2  27
BRANCH   5  35
HETATM   35  S   UNL     1      40.500 -13.337   0.729  1.00  0.00    -0.084 SA
BRANCH  35  36
HETATM   36  C   UNL     1      41.361 -13.011  -0.790  1.00  0.00     0.188 A 
HETATM   37  N   UNL     1      41.012 -13.713  -1.882  1.00  0.00    -0.235 NA
HETATM   38  C   UNL     1      41.688 -13.415  -3.012  1.00  0.00     0.121 A 
HETATM   39  C   UNL     1      42.649 -12.436  -3.089  1.00  0.00     0.038 A 
HETATM   40  C   UNL     1      42.900 -11.760  -1.920  1.00  0.00     0.121 A 
HETATM   41  N   UNL     1      42.263 -12.023  -0.764  1.00  0.00    -0.235 NA
ENDBRANCH  35  36
ENDBRANCH   5  35
TORSDOF 6
ENDMDL
MODEL 2
REMARK VINA RESULT:      -9.9      3.173      9.808
REMARK  6 active torsions:
REMARK  status: ('A' for Active; 'I' for Inactive)
REMARK    1  A    between atoms: C_11  and  N_12 
REMARK       I    between atoms: N_12  and  C_13 
REMARK    2  A    between atoms: C_13  and  C_14 
REMARK    3  A    between atoms: N_15  and  C_17 
REMARK    4  A    between atoms: C_17  and  C_18 
REMARK    5  A    between atoms: C_26  and  S_27 
REMARK    6  A    between atoms: S_27  and  C_28 
ROOT
HETATM    1  C   UNL     1      42.364 -15.175   5.795  1.00  0.00     0.281 C 
HETATM    2  N   UNL     1      43.295 -16.411   6.014  1.00  0.00    -0.053 N 
HETATM    3  H   UNL     1      42.915 -16.911   6.831  1.00  0.00     0.281 HD
HETATM    4  C   UNL     1      44.659 -15.876   6.405  1.00  0.00     0.252 C 
HETATM    5  C   UNL     1      44.350 -14.529   7.037  1.00  0.00     0.083 C 
HETATM    6  C   UNL     1      43.277 -13.982   6.106  1.00  0.00     0.060 C 
ENDROOT
BRANCH   1   7
HETATM    7  C   UNL     1      41.659 -15.052   4.418  1.00  0.00     0.253 C 
HETATM    8  N   UNL     1      42.504 -14.802   3.348  1.00  0.00    -0.325 N 
HETATM    9  H   UNL     1      43.489 -14.638   3.519  1.00  0.00     0.169 HD
HETATM   10  O   UNL     1      40.436 -15.134   4.341  1.00  0.00    -0.271 OA
BRANCH   8  11
HETATM   11  C   UNL     1      42.154 -14.804   1.974  1.00  0.00     0.036 A 
HETATM   12  C   UNL     1      41.924 -13.652   1.218  1.00  0.00     0.059 A 
HETATM   13  C   UNL     1      41.505 -13.703  -0.130  1.00  0.00     0.041 A 
HETATM   14  N   UNL     1      41.249 -12.476  -0.764  1.00  0.00    -0.355 N 
HETATM   15  C   UNL     1      41.295 -14.956  -0.713  1.00  0.00    -0.031 A 
HETATM   16  C   UNL     1      40.463 -12.071  -1.860  1.00  0.00     0.039 A 
HETATM   17  H   UNL     1      41.742 -11.702  -0.333  1.00  0.00     0.166 HD
HETATM   18  C   UNL     1      39.623 -12.910  -2.606  1.00  0.00    -0.031 A 
HETATM   19  C   UNL     1      40.506 -10.701  -2.197  1.00  0.00     0.030 A 
HETATM   20  C   UNL     1      38.817 -12.352  -3.624  1.00  0.00     0.009 A 
HETATM   21  C   UNL     1      39.487 -14.389  -2.352  1.00  0.00     0.045 C 
HETATM   22  C   UNL     1      38.867 -10.995  -3.930  1.00  0.00     0.001 A 
HETATM   23  C   UNL     1      39.721 -10.167  -3.220  1.00  0.00     0.002 A 
HETATM   24  C   UNL     1      40.820 -15.095  -2.134  1.00  0.00     0.045 C 
HETATM   25  C   UNL     1      41.563 -16.119   0.031  1.00  0.00     0.012 A 
HETATM   26  C   UNL     1      41.989 -16.044   1.358  1.00  0.00     0.030 A 
ENDBRANCH   8  11
ENDBRANCH   1   7
BRANCH   2  27
HETATM   27  C   UNL     1      43.360 -17.476   4.939  1.00  0.00     0.277 C 
BRANCH  27  28
HETATM   28  C   UNL     1      43.684 -18.841   5.481  1.00  0.00     0.006 A 
HETATM   29  C   UNL     1      44.339 -19.769   4.666  1.00  0.00     0.124 A 
HETATM   30  F   UNL     1      44.629 -19.429   3.401  1.00  0.00    -0.206 F 
HETATM   31  C   UNL     1      44.655 -21.044   5.120  1.00  0.00     0.043 A 
HETATM   32  C   UNL     1      44.308 -21.410   6.418  1.00  0.00     0.003 A 
HETATM   33  C   UNL     1      43.648 -20.500   7.248  1.00  0.00     0.001 A 
HETATM   34  C   UNL     1      43.338 -19.219   6.785  1.00  0.00     0.012 A 
ENDBRANCH  27  28
ENDBRANCH   2  27
BRANCH   5  35
HETATM   35  S   UNL     1      45.769 -13.396   7.087  1.00  0.00    -0.084 SA
BRANCH  35  36
HETATM   36  C   UNL     1      45.432 -12.528   8.600  1.00  0.00     0.188 A 
HETATM   37  N   UNL     1      45.988 -11.317   8.775  1.00  0.00    -0.235 NA
HETATM   38  C   UNL     1      45.687 -10.695   9.935  1.00  0.00     0.121 A 
HETATM   39  C   UNL     1      44.838 -11.218  10.882  1.00  0.00     0.038 A 
HETATM   40  C   UNL     1      44.303 -12.447  10.582  1.00  0.00     0.121 A 
HETATM   41  N   UNL     1      44.576 -13.114   9.446  1.00  0.00    -0.235 NA
ENDBRANCH  35  36
ENDBRANCH   5  35
TORSDOF 6
ENDMDL
MODEL 3
REMARK VINA RESULT:      -9.8      3.747      9.388
REMARK  6 active torsions:
REMARK  status: ('A' for Active; 'I' for Inactive)
REMARK    1  A    between atoms: C_11  and  N_12 
REMARK       I    between atoms: N_12  and  C_13 
REMARK    2  A    between atoms: C_13  and  C_14 
REMARK    3  A    between atoms: N_15  and  C_17 
REMARK    4  A    between atoms: C_17  and  C_18 
REMARK    5  A    between atoms: C_26  and  S_27 
REMARK    6  A    between atoms: S_27  and  C_28 
ROOT
HETATM    1  C   UNL     1      40.102 -12.297   5.551  1.00  0.00     0.281 C 
HETATM    2  N   UNL     1      40.277 -10.993   6.395  1.00  0.00    -0.053 N 
HETATM    3  H   UNL     1      39.660 -11.100   7.214  1.00  0.00     0.281 HD
HETATM    4  C   UNL     1      39.732  -9.849   5.563  1.00  0.00     0.252 C 
HETATM    5  C   UNL     1      38.712 -10.516   4.657  1.00  0.00     0.083 C 
HETATM    6  C   UNL     1      39.428 -11.800   4.265  1.00  0.00     0.060 C 
ENDROOT
BRANCH   1   7
HETATM    7  C   UNL     1      41.374 -13.143   5.277  1.00  0.00     0.253 C 
HETATM    8  N   UNL     1      41.498 -14.282   6.057  1.00  0.00    -0.325 N 
HETATM    9  H   UNL     1      40.824 -14.459   6.793  1.00  0.00     0.169 HD
HETATM   10  O   UNL     1      42.200 -12.765   4.451  1.00  0.00    -0.271 OA
BRANCH   8  11
HETATM   11  C   UNL     1      42.465 -15.309   5.908  1.00  0.00     0.036 A 
HETATM   12  C   UNL     1      42.531 -16.176   4.815  1.00  0.00     0.059 A 
HETATM   13  C   UNL     1      43.466 -17.232   4.743  1.00  0.00     0.041 A 
HETATM   14  N   UNL     1      43.392 -18.072   3.620  1.00  0.00    -0.355 N 
HETATM   15  C   UNL     1      44.338 -17.421   5.819  1.00  0.00    -0.031 A 
HETATM   16  C   UNL     1      43.786 -19.395   3.343  1.00  0.00     0.039 A 
HETATM   17  H   UNL     1      42.953 -17.623   2.823  1.00  0.00     0.166 HD
HETATM   18  C   UNL     1      44.357 -20.279   4.270  1.00  0.00    -0.031 A 
HETATM   19  C   UNL     1      43.545 -19.867   2.034  1.00  0.00     0.030 A 
HETATM   20  C   UNL     1      44.620 -21.612   3.882  1.00  0.00     0.009 A 
HETATM   21  C   UNL     1      44.670 -19.902   5.696  1.00  0.00     0.045 C 
HETATM   22  C   UNL     1      44.360 -22.059   2.589  1.00  0.00     0.001 A 
HETATM   23  C   UNL     1      43.829 -21.181   1.659  1.00  0.00     0.002 A 
HETATM   24  C   UNL     1      45.343 -18.541   5.832  1.00  0.00     0.045 C 
HETATM   25  C   UNL     1      44.303 -16.527   6.904  1.00  0.00     0.012 A 
HETATM   26  C   UNL     1      43.378 -15.483   6.947  1.00  0.00     0.030 A 
ENDBRANCH   8  11
ENDBRANCH   1   7
BRANCH   2  27
HETATM   27  C   UNL     1      41.632 -10.695   7.003  1.00  0.00     0.277 C 
BRANCH  27  28
HETATM   28  C   UNL     1      41.604 -10.643   8.507  1.00  0.00     0.006 A 
HETATM   29  C   UNL     1      42.756 -10.967   9.229  1.00  0.00     0.124 A 
HETATM   30  F   UNL     1      43.852 -11.357   8.560  1.00  0.00    -0.206 F 
HETATM   31  C   UNL     1      42.778 -10.939  10.618  1.00  0.00     0.043 A 
HETATM   32  C   UNL     1      41.623 -10.583  11.311  1.00  0.00     0.003 A 
HETATM   33  C   UNL     1      40.459 -10.260  10.609  1.00  0.00     0.001 A 
HETATM   34  C   UNL     1      40.448 -10.286   9.212  1.00  0.00     0.012 A 
ENDBRANCH  27  28
ENDBRANCH   2  27
BRANCH   5  35
HETATM   35  S   UNL     1      38.302  -9.552   3.173  1.00  0.00    -0.084 SA
BRANCH  35  36
HETATM   36  C   UNL     1      36.612  -9.131   3.520  1.00  0.00     0.188 A 
HETATM   37  N   UNL     1      36.320  -8.615   4.726  1.00  0.00    -0.235 NA
HETATM   38  C   UNL     1      35.023  -8.299   4.932  1.00  0.00     0.121 A 
HETATM   39  C   UNL     1      34.044  -8.444   3.978  1.00  0.00     0.038 A 
HETATM   40  C   UNL     1      34.463  -8.950   2.772  1.00  0.00     0.121 A 
HETATM   41  N   UNL     1      35.740  -9.290   2.517  1.00  0.00    -0.235 NA
ENDBRANCH  35  36
ENDBRANCH   5  35
TORSDOF 6
ENDMDL
MODEL 4
REMARK VINA RESULT:      -9.8      2.950      8.516
REMARK  6 active torsions:
REMARK  status: ('A' for Active; 'I' for Inactive)
REMARK    1  A    between atoms: C_11  and  N_12 
REMARK       I    between atoms: N_12  and  C_13 
REMARK    2  A    between atoms: C_13  and  C_14 
REMARK    3  A    between atoms: N_15  and  C_17 
REMARK    4  A    between atoms: C_17  and  C_18 
REMARK    5  A    between atoms: C_26  and  S_27 
REMARK    6  A    between atoms: S_27  and  C_28 
ROOT
HETATM    1  C   UNL     1      39.691 -12.762   4.174  1.00  0.00     0.281 C 
HETATM    2  N   UNL     1      40.165 -11.410   4.799  1.00  0.00    -0.053 N 
HETATM    3  H   UNL     1      39.323 -10.973   5.201  1.00  0.00     0.281 HD
HETATM    4  C   UNL     1      40.629 -10.531   3.655  1.00  0.00     0.252 C 
HETATM    5  C   UNL     1      39.841 -11.044   2.462  1.00  0.00     0.083 C 
HETATM    6  C   UNL     1      39.900 -12.551   2.669  1.00  0.00     0.060 C 
ENDROOT
BRANCH   1   7
HETATM    7  C   UNL     1      40.358 -14.060   4.699  1.00  0.00     0.253 C 
HETATM    8  N   UNL     1      41.610 -14.332   4.168  1.00  0.00    -0.325 N 
HETATM    9  H   UNL     1      41.979 -13.739   3.434  1.00  0.00     0.169 HD
HETATM   10  O   UNL     1      39.762 -14.783   5.494  1.00  0.00    -0.271 OA
BRANCH   8  11
HETATM   11  C   UNL     1      42.504 -15.351   4.585  1.00  0.00     0.036 A 
HETATM   12  C   UNL     1      42.820 -16.480   3.826  1.00  0.00     0.059 A 
HETATM   13  C   UNL     1      43.659 -17.506   4.312  1.00  0.00     0.041 A 
HETATM   14  N   UNL     1      43.853 -18.620   3.477  1.00  0.00    -0.355 N 
HETATM   15  C   UNL     1      44.169 -17.390   5.608  1.00  0.00    -0.031 A 
HETATM   16  C   UNL     1      44.215 -19.963   3.684  1.00  0.00     0.039 A 
HETATM   17  H   UNL     1      43.694 -18.407   2.498  1.00  0.00     0.166 HD
HETATM   18  C   UNL     1      44.431 -20.560   4.935  1.00  0.00    -0.031 A 
HETATM   19  C   UNL     1      44.328 -20.774   2.533  1.00  0.00     0.030 A 
HETATM   20  C   UNL     1      44.700 -21.945   5.004  1.00  0.00     0.009 A 
HETATM   21  C   UNL     1      44.346 -19.808   6.239  1.00  0.00     0.045 C 
HETATM   22  C   UNL     1      44.792 -22.726   3.855  1.00  0.00     0.001 A 
HETATM   23  C   UNL     1      44.615 -22.137   2.614  1.00  0.00     0.002 A 
HETATM   24  C   UNL     1      45.047 -18.455   6.209  1.00  0.00     0.045 C 
HETATM   25  C   UNL     1      43.887 -16.237   6.362  1.00  0.00     0.012 A 
HETATM   26  C   UNL     1      43.064 -15.228   5.856  1.00  0.00     0.030 A 
ENDBRANCH   8  11
ENDBRANCH   1   7
BRANCH   2  27
HETATM   27  C   UNL     1      41.140 -11.444   5.957  1.00  0.00     0.277 C 
BRANCH  27  28
HETATM   28  C   UNL     1      40.621 -10.746   7.185  1.00  0.00     0.006 A 
HETATM   29  C   UNL     1      39.610 -11.344   7.943  1.00  0.00     0.124 A 
HETATM   30  F   UNL     1      39.097 -12.513   7.531  1.00  0.00    -0.206 F 
HETATM   31  C   UNL     1      39.096 -10.735   9.082  1.00  0.00     0.043 A 
HETATM   32  C   UNL     1      39.596  -9.497   9.478  1.00  0.00     0.003 A 
HETATM   33  C   UNL     1      40.604  -8.880   8.732  1.00  0.00     0.001 A 
HETATM   34  C   UNL     1      41.118  -9.501   7.592  1.00  0.00     0.012 A 
ENDBRANCH  27  28
ENDBRANCH   2  27
BRANCH   5  35
HETATM   35  S   UNL     1      40.566 -10.605   0.856  1.00  0.00    -0.084 SA
BRANCH  35  36
HETATM   36  C   UNL     1      40.565 -12.193   0.060  1.00  0.00     0.188 A 
HETATM   37  N   UNL     1      39.453 -12.577  -0.591  1.00  0.00    -0.235 NA
HETATM   38  C   UNL     1      39.512 -13.786  -1.191  1.00  0.00     0.121 A 
HETATM   39  C   UNL     1      40.633 -14.582  -1.192  1.00  0.00     0.038 A 
HETATM   40  C   UNL     1      41.721 -14.073  -0.525  1.00  0.00     0.121 A 
HETATM   41  N   UNL     1      41.713 -12.880   0.098  1.00  0.00    -0.235 NA
ENDBRANCH  35  36
ENDBRANCH   5  35
TORSDOF 6
ENDMDL
MODEL 5
REMARK VINA RESULT:      -9.6      2.907      8.779
REMARK  6 active torsions:
REMARK  status: ('A' for Active; 'I' for Inactive)
REMARK    1  A    between atoms: C_11  and  N_12 
REMARK       I    between atoms: N_12  and  C_13 
REMARK    2  A    between atoms: C_13  and  C_14 
REMARK    3  A    between atoms: N_15  and  C_17 
REMARK    4  A    between atoms: C_17  and  C_18 
REMARK    5  A    between atoms: C_26  and  S_27 
REMARK    6  A    between atoms: S_27  and  C_28 
ROOT
HETATM    1  C   UNL     1      40.124 -12.259   5.241  1.00  0.00     0.281 C 
HETATM    2  N   UNL     1      40.179 -10.987   6.148  1.00  0.00    -0.053 N 
HETATM    3  H   UNL     1      39.456 -11.121   6.869  1.00  0.00     0.281 HD
HETATM    4  C   UNL     1      39.753  -9.811   5.291  1.00  0.00     0.252 C 
HETATM    5  C   UNL     1      38.867 -10.441   4.229  1.00  0.00     0.083 C 
HETATM    6  C   UNL     1      39.632 -11.713   3.893  1.00  0.00     0.060 C 
ENDROOT
BRANCH   1   7
HETATM    7  C   UNL     1      41.422 -13.099   5.114  1.00  0.00     0.253 C 
HETATM    8  N   UNL     1      41.406 -14.308   5.791  1.00  0.00    -0.325 N 
HETATM    9  H   UNL     1      40.613 -14.540   6.377  1.00  0.00     0.169 HD
HETATM   10  O   UNL     1      42.382 -12.660   4.485  1.00  0.00    -0.271 OA
BRANCH   8  11
HETATM   11  C   UNL     1      42.382 -15.334   5.716  1.00  0.00     0.036 A 
HETATM   12  C   UNL     1      42.495 -16.237   4.657  1.00  0.00     0.059 A 
HETATM   13  C   UNL     1      43.436 -17.290   4.659  1.00  0.00     0.041 A 
HETATM   14  N   UNL     1      43.410 -18.169   3.562  1.00  0.00    -0.355 N 
HETATM   15  C   UNL     1      44.265 -17.438   5.773  1.00  0.00    -0.031 A 
HETATM   16  C   UNL     1      43.820 -19.498   3.347  1.00  0.00     0.039 A 
HETATM   17  H   UNL     1      43.001 -17.750   2.734  1.00  0.00     0.166 HD
HETATM   18  C   UNL     1      44.357 -20.348   4.325  1.00  0.00    -0.031 A 
HETATM   19  C   UNL     1      43.633 -20.016   2.047  1.00  0.00     0.030 A 
HETATM   20  C   UNL     1      44.640 -21.692   3.995  1.00  0.00     0.009 A 
HETATM   21  C   UNL     1      44.611 -19.920   5.749  1.00  0.00     0.045 C 
HETATM   22  C   UNL     1      44.434 -22.183   2.708  1.00  0.00     0.001 A 
HETATM   23  C   UNL     1      43.937 -21.340   1.728  1.00  0.00     0.002 A 
HETATM   24  C   UNL     1      45.274 -18.552   5.865  1.00  0.00     0.045 C 
HETATM   25  C   UNL     1      44.183 -16.508   6.825  1.00  0.00     0.012 A 
HETATM   26  C   UNL     1      43.253 -15.468   6.796  1.00  0.00     0.030 A 
ENDBRANCH   8  11
ENDBRANCH   1   7
BRANCH   2  27
HETATM   27  C   UNL     1      41.437 -10.715   6.946  1.00  0.00     0.277 C 
BRANCH  27  28
HETATM   28  C   UNL     1      41.206 -10.733   8.433  1.00  0.00     0.006 A 
HETATM   29  C   UNL     1      42.297 -10.847   9.299  1.00  0.00     0.124 A 
HETATM   30  F   UNL     1      43.527 -10.978   8.778  1.00  0.00    -0.206 F 
HETATM   31  C   UNL     1      42.134 -10.873  10.679  1.00  0.00     0.043 A 
HETATM   32  C   UNL     1      40.851 -10.787  11.215  1.00  0.00     0.003 A 
HETATM   33  C   UNL     1      39.746 -10.677  10.367  1.00  0.00     0.001 A 
HETATM   34  C   UNL     1      39.920 -10.647   8.981  1.00  0.00     0.012 A 
ENDBRANCH  27  28
ENDBRANCH   2  27
BRANCH   5  35
HETATM   35  S   UNL     1      38.664  -9.424   2.739  1.00  0.00    -0.084 SA
BRANCH  35  36
HETATM   36  C   UNL     1      38.304 -10.682   1.538  1.00  0.00     0.188 A 
HETATM   37  N   UNL     1      37.112 -11.298   1.601  1.00  0.00    -0.235 NA
HETATM   38  C   UNL     1      36.884 -12.235   0.655  1.00  0.00     0.121 A 
HETATM   39  C   UNL     1      37.775 -12.537  -0.347  1.00  0.00     0.038 A 
HETATM   40  C   UNL     1      38.948 -11.821  -0.333  1.00  0.00     0.121 A 
HETATM   41  N   UNL     1      39.229 -10.884   0.592  1.00  0.00    -0.235 NA
ENDBRANCH  35  36
ENDBRANCH   5  35
TORSDOF 6
ENDMDL
MODEL 6
REMARK VINA RESULT:      -9.6      1.234      1.700
REMARK  6 active torsions:
REMARK  status: ('A' for Active; 'I' for Inactive)
REMARK    1  A    between atoms: C_11  and  N_12 
REMARK       I    between atoms: N_12  and  C_13 
REMARK    2  A    between atoms: C_13  and  C_14 
REMARK    3  A    between atoms: N_15  and  C_17 
REMARK    4  A    between atoms: C_17  and  C_18 
REMARK    5  A    between atoms: C_26  and  S_27 
REMARK    6  A    between atoms: S_27  and  C_28 
ROOT
HETATM    1  C   UNL     1      42.863 -14.190   2.775  1.00  0.00     0.281 C 
HETATM    2  N   UNL     1      42.579 -15.719   2.612  1.00  0.00    -0.053 N 
HETATM    3  H   UNL     1      43.439 -16.127   2.219  1.00  0.00     0.281 HD
HETATM    4  C   UNL     1      41.492 -15.858   1.564  1.00  0.00     0.252 C 
HETATM    5  C   UNL     1      41.648 -14.610   0.713  1.00  0.00     0.083 C 
HETATM    6  C   UNL     1      41.909 -13.541   1.764  1.00  0.00     0.060 C 
ENDROOT
BRANCH   1   7
HETATM    7  C   UNL     1      42.731 -13.591   4.200  1.00  0.00     0.253 C 
HETATM    8  N   UNL     1      41.785 -12.585   4.327  1.00  0.00    -0.325 N 
HETATM    9  H   UNL     1      41.303 -12.248   3.503  1.00  0.00     0.169 HD
HETATM   10  O   UNL     1      43.464 -13.983   5.104  1.00  0.00    -0.271 OA
BRANCH   8  11
HETATM   11  C   UNL     1      41.348 -11.982   5.534  1.00  0.00     0.036 A 
HETATM   12  C   UNL     1      42.195 -11.608   6.579  1.00  0.00     0.059 A 
HETATM   13  C   UNL     1      41.708 -11.078   7.794  1.00  0.00     0.041 A 
HETATM   14  N   UNL     1      42.656 -10.797   8.792  1.00  0.00    -0.355 N 
HETATM   15  C   UNL     1      40.326 -10.947   7.955  1.00  0.00    -0.031 A 
HETATM   16  C   UNL     1      42.615 -10.681  10.194  1.00  0.00     0.039 A 
HETATM   17  H   UNL     1      43.586 -10.643   8.417  1.00  0.00     0.166 HD
HETATM   18  C   UNL     1      41.484 -10.906  10.992  1.00  0.00    -0.031 A 
HETATM   19  C   UNL     1      43.828 -10.349  10.838  1.00  0.00     0.030 A 
HETATM   20  C   UNL     1      41.606 -10.845  12.398  1.00  0.00     0.009 A 
HETATM   21  C   UNL     1      40.130 -11.262  10.433  1.00  0.00     0.045 C 
HETATM   22  C   UNL     1      42.816 -10.529  13.010  1.00  0.00     0.001 A 
HETATM   23  C   UNL     1      43.929 -10.271  12.228  1.00  0.00     0.002 A 
HETATM   24  C   UNL     1      39.726 -10.417   9.230  1.00  0.00     0.045 C 
HETATM   25  C   UNL     1      39.470 -11.284   6.891  1.00  0.00     0.012 A 
HETATM   26  C   UNL     1      39.976 -11.795   5.694  1.00  0.00     0.030 A 
ENDBRANCH   8  11
ENDBRANCH   1   7
BRANCH   2  27
HETATM   27  C   UNL     1      42.321 -16.549   3.852  1.00  0.00     0.277 C 
BRANCH  27  28
HETATM   28  C   UNL     1      43.178 -17.783   3.924  1.00  0.00     0.006 A 
HETATM   29  C   UNL     1      43.984 -17.999   5.045  1.00  0.00     0.124 A 
HETATM   30  F   UNL     1      44.002 -17.074   6.017  1.00  0.00    -0.206 F 
HETATM   31  C   UNL     1      44.796 -19.121   5.155  1.00  0.00     0.043 A 
HETATM   32  C   UNL     1      44.812 -20.054   4.121  1.00  0.00     0.003 A 
HETATM   33  C   UNL     1      44.018 -19.856   2.989  1.00  0.00     0.001 A 
HETATM   34  C   UNL     1      43.201 -18.727   2.889  1.00  0.00     0.012 A 
ENDBRANCH  27  28
ENDBRANCH   2  27
BRANCH   5  35
HETATM   35  S   UNL     1      40.171 -14.187  -0.254  1.00  0.00    -0.084 SA
BRANCH  35  36
HETATM   36  C   UNL     1      40.917 -13.345  -1.628  1.00  0.00     0.188 A 
HETATM   37  N   UNL     1      42.257 -13.358  -1.730  1.00  0.00    -0.235 NA
HETATM   38  C   UNL     1      42.771 -12.716  -2.801  1.00  0.00     0.121 A 
HETATM   39  C   UNL     1      42.003 -12.110  -3.767  1.00  0.00     0.038 A 
HETATM   40  C   UNL     1      40.644 -12.188  -3.577  1.00  0.00     0.121 A 
HETATM   41  N   UNL     1      40.080 -12.807  -2.524  1.00  0.00    -0.235 NA
ENDBRANCH  35  36
ENDBRANCH   5  35
TORSDOF 6
ENDMDL
MODEL 7
REMARK VINA RESULT:      -9.5      3.712      8.432
REMARK  6 active torsions:
REMARK  status: ('A' for Active; 'I' for Inactive)
REMARK    1  A    between atoms: C_11  and  N_12 
REMARK       I    between atoms: N_12  and  C_13 
REMARK    2  A    between atoms: C_13  and  C_14 
REMARK    3  A    between atoms: N_15  and  C_17 
REMARK    4  A    between atoms: C_17  and  C_18 
REMARK    5  A    between atoms: C_26  and  S_27 
REMARK    6  A    between atoms: S_27  and  C_28 
ROOT
HETATM    1  C   UNL     1      39.238 -13.649   1.838  1.00  0.00     0.281 C 
HETATM    2  N   UNL     1      39.192 -12.095   2.005  1.00  0.00    -0.053 N 
HETATM    3  H   UNL     1      38.458 -11.907   2.702  1.00  0.00     0.281 HD
HETATM    4  C   UNL     1      38.721 -11.521   0.683  1.00  0.00     0.252 C 
HETATM    5  C   UNL     1      37.905 -12.646   0.071  1.00  0.00     0.083 C 
HETATM    6  C   UNL     1      38.754 -13.866   0.398  1.00  0.00     0.060 C 
ENDROOT
BRANCH   1   7
HETATM    7  C   UNL     1      40.588 -14.356   2.133  1.00  0.00     0.253 C 
HETATM    8  N   UNL     1      40.680 -14.940   3.387  1.00  0.00    -0.325 N 
HETATM    9  H   UNL     1      39.926 -14.814   4.052  1.00  0.00     0.169 HD
HETATM   10  O   UNL     1      41.491 -14.334   1.301  1.00  0.00    -0.271 OA
BRANCH   8  11
HETATM   11  C   UNL     1      41.723 -15.779   3.856  1.00  0.00     0.036 A 
HETATM   12  C   UNL     1      42.155 -16.936   3.204  1.00  0.00     0.059 A 
HETATM   13  C   UNL     1      43.148 -17.782   3.745  1.00  0.00     0.041 A 
HETATM   14  N   UNL     1      43.453 -18.949   3.023  1.00  0.00    -0.355 N 
HETATM   15  C   UNL     1      43.697 -17.453   4.987  1.00  0.00    -0.031 A 
HETATM   16  C   UNL     1      44.005 -20.201   3.350  1.00  0.00     0.039 A 
HETATM   17  H   UNL     1      43.222 -18.872   2.038  1.00  0.00     0.166 HD
HETATM   18  C   UNL     1      44.358 -20.617   4.642  1.00  0.00    -0.031 A 
HETATM   19  C   UNL     1      44.173 -21.117   2.288  1.00  0.00     0.030 A 
HETATM   20  C   UNL     1      44.815 -21.939   4.842  1.00  0.00     0.009 A 
HETATM   21  C   UNL     1      44.231 -19.740   5.862  1.00  0.00     0.045 C 
HETATM   22  C   UNL     1      44.961 -22.827   3.780  1.00  0.00     0.001 A 
HETATM   23  C   UNL     1      44.647 -22.412   2.497  1.00  0.00     0.002 A 
HETATM   24  C   UNL     1      44.738 -18.319   5.644  1.00  0.00     0.045 C 
HETATM   25  C   UNL     1      43.295 -16.268   5.629  1.00  0.00     0.012 A 
HETATM   26  C   UNL     1      42.320 -15.440   5.069  1.00  0.00     0.030 A 
ENDBRANCH   8  11
ENDBRANCH   1   7
BRANCH   2  27
HETATM   27  C   UNL     1      40.408 -11.385   2.562  1.00  0.00     0.277 C 
BRANCH  27  28
HETATM   28  C   UNL     1      40.431 -11.351   4.066  1.00  0.00     0.006 A 
HETATM   29  C   UNL     1      41.550 -11.836   4.750  1.00  0.00     0.124 A 
HETATM   30  F   UNL     1      42.563 -12.360   4.045  1.00  0.00    -0.206 F 
HETATM   31  C   UNL     1      41.615 -11.829   6.139  1.00  0.00     0.043 A 
HETATM   32  C   UNL     1      40.540 -11.330   6.869  1.00  0.00     0.003 A 
HETATM   33  C   UNL     1      39.410 -10.844   6.206  1.00  0.00     0.001 A 
HETATM   34  C   UNL     1      39.354 -10.850   4.810  1.00  0.00     0.012 A 
ENDBRANCH  27  28
ENDBRANCH   2  27
BRANCH   5  35
HETATM   35  S   UNL     1      37.684 -12.503  -1.726  1.00  0.00    -0.084 SA
BRANCH  35  36
HETATM   36  C   UNL     1      39.113 -13.390  -2.296  1.00  0.00     0.188 A 
HETATM   37  N   UNL     1      38.933 -14.609  -2.833  1.00  0.00    -0.235 NA
HETATM   38  C   UNL     1      40.051 -15.233  -3.264  1.00  0.00     0.121 A 
HETATM   39  C   UNL     1      41.305 -14.672  -3.210  1.00  0.00     0.038 A 
HETATM   40  C   UNL     1      41.365 -13.409  -2.672  1.00  0.00     0.121 A 
HETATM   41  N   UNL     1      40.285 -12.747  -2.219  1.00  0.00    -0.235 NA
ENDBRANCH  35  36
ENDBRANCH   5  35
TORSDOF 6
ENDMDL
MODEL 8
REMARK VINA RESULT:      -9.5      4.605      9.884
REMARK  6 active torsions:
REMARK  status: ('A' for Active; 'I' for Inactive)
REMARK    1  A    between atoms: C_11  and  N_12 
REMARK       I    between atoms: N_12  and  C_13 
REMARK    2  A    between atoms: C_13  and  C_14 
REMARK    3  A    between atoms: N_15  and  C_17 
REMARK    4  A    between atoms: C_17  and  C_18 
REMARK    5  A    between atoms: C_26  and  S_27 
REMARK    6  A    between atoms: S_27  and  C_28 
ROOT
HETATM    1  C   UNL     1      41.269 -16.126   4.051  1.00  0.00     0.281 C 
HETATM    2  N   UNL     1      42.804 -16.350   4.247  1.00  0.00    -0.053 N 
HETATM    3  H   UNL     1      42.894 -17.133   4.911  1.00  0.00     0.281 HD
HETATM    4  C   UNL     1      43.350 -15.112   4.930  1.00  0.00     0.252 C 
HETATM    5  C   UNL     1      42.153 -14.558   5.684  1.00  0.00     0.083 C 
HETATM    6  C   UNL     1      41.029 -14.745   4.674  1.00  0.00     0.060 C 
ENDROOT
BRANCH   1   7
HETATM    7  C   UNL     1      40.713 -16.242   2.607  1.00  0.00     0.253 C 
HETATM    8  N   UNL     1      40.800 -15.083   1.852  1.00  0.00    -0.325 N 
HETATM    9  H   UNL     1      41.133 -14.230   2.285  1.00  0.00     0.169 HD
HETATM   10  O   UNL     1      40.205 -17.292   2.224  1.00  0.00    -0.271 OA
BRANCH   8  11
HETATM   11  C   UNL     1      40.520 -14.951   0.468  1.00  0.00     0.036 A 
HETATM   12  C   UNL     1      39.556 -14.091  -0.063  1.00  0.00     0.059 A 
HETATM   13  C   UNL     1      39.260 -14.046  -1.443  1.00  0.00     0.041 A 
HETATM   14  N   UNL     1      38.227 -13.183  -1.845  1.00  0.00    -0.355 N 
HETATM   15  C   UNL     1      39.947 -14.912  -2.297  1.00  0.00    -0.031 A 
HETATM   16  C   UNL     1      37.357 -13.125  -2.949  1.00  0.00     0.039 A 
HETATM   17  H   UNL     1      38.070 -12.427  -1.187  1.00  0.00     0.166 HD
HETATM   18  C   UNL     1      37.297 -14.072  -3.982  1.00  0.00    -0.031 A 
HETATM   19  C   UNL     1      36.450 -12.043  -2.986  1.00  0.00     0.030 A 
HETATM   20  C   UNL     1      36.309 -13.940  -4.984  1.00  0.00     0.009 A 
HETATM   21  C   UNL     1      38.207 -15.271  -4.065  1.00  0.00     0.045 C 
HETATM   22  C   UNL     1      35.418 -12.871  -4.992  1.00  0.00     0.001 A 
HETATM   23  C   UNL     1      35.494 -11.913  -3.994  1.00  0.00     0.002 A 
HETATM   24  C   UNL     1      39.668 -14.947  -3.776  1.00  0.00     0.045 C 
HETATM   25  C   UNL     1      40.947 -15.752  -1.775  1.00  0.00     0.012 A 
HETATM   26  C   UNL     1      41.231 -15.770  -0.408  1.00  0.00     0.030 A 
ENDBRANCH   8  11
ENDBRANCH   1   7
BRANCH   2  27
HETATM   27  C   UNL     1      43.634 -16.790   3.059  1.00  0.00     0.277 C 
BRANCH  27  28
HETATM   28  C   UNL     1      43.872 -18.275   3.024  1.00  0.00     0.006 A 
HETATM   29  C   UNL     1      43.542 -18.998   1.875  1.00  0.00     0.124 A 
HETATM   30  F   UNL     1      42.981 -18.353   0.841  1.00  0.00    -0.206 F 
HETATM   31  C   UNL     1      43.738 -20.372   1.796  1.00  0.00     0.043 A 
HETATM   32  C   UNL     1      44.274 -21.047   2.890  1.00  0.00     0.003 A 
HETATM   33  C   UNL     1      44.607 -20.344   4.050  1.00  0.00     0.001 A 
HETATM   34  C   UNL     1      44.411 -18.963   4.119  1.00  0.00     0.012 A 
ENDBRANCH  27  28
ENDBRANCH   2  27
BRANCH   5  35
HETATM   35  S   UNL     1      42.307 -12.804   6.128  1.00  0.00    -0.084 SA
BRANCH  35  36
HETATM   36  C   UNL     1      41.310 -12.063   4.859  1.00  0.00     0.188 A 
HETATM   37  N   UNL     1      41.742 -12.136   3.588  1.00  0.00    -0.235 NA
HETATM   38  C   UNL     1      40.939 -11.569   2.662  1.00  0.00     0.121 A 
HETATM   39  C   UNL     1      39.731 -10.983   2.957  1.00  0.00     0.038 A 
HETATM   40  C   UNL     1      39.376 -10.996   4.285  1.00  0.00     0.121 A 
HETATM   41  N   UNL     1      40.143 -11.538   5.249  1.00  0.00    -0.235 NA
ENDBRANCH  35  36
ENDBRANCH   5  35
TORSDOF 6
ENDMDL
MODEL 9
REMARK VINA RESULT:      -9.2      5.580      8.071
REMARK  6 active torsions:
REMARK  status: ('A' for Active; 'I' for Inactive)
REMARK    1  A    between atoms: C_11  and  N_12 
REMARK       I    between atoms: N_12  and  C_13 
REMARK    2  A    between atoms: C_13  and  C_14 
REMARK    3  A    between atoms: N_15  and  C_17 
REMARK    4  A    between atoms: C_17  and  C_18 
REMARK    5  A    between atoms: C_26  and  S_27 
REMARK    6  A    between atoms: S_27  and  C_28 
ROOT
HETATM    1  C   UNL     1      38.420 -12.275   0.555  1.00  0.00     0.281 C 
HETATM    2  N   UNL     1      39.265 -10.976   0.347  1.00  0.00    -0.053 N 
HETATM    3  H   UNL     1      38.681 -10.200   0.689  1.00  0.00     0.281 HD
HETATM    4  C   UNL     1      39.434 -10.793  -1.148  1.00  0.00     0.252 C 
HETATM    5  C   UNL     1      38.224 -11.495  -1.738  1.00  0.00     0.083 C 
HETATM    6  C   UNL     1      38.134 -12.747  -0.877  1.00  0.00     0.060 C 
ENDROOT
BRANCH   1   7
HETATM    7  C   UNL     1      39.034 -13.387   1.446  1.00  0.00     0.253 C 
HETATM    8  N   UNL     1      39.601 -14.446   0.753  1.00  0.00    -0.325 N 
HETATM    9  H   UNL     1      39.520 -14.482  -0.256  1.00  0.00     0.169 HD
HETATM   10  O   UNL     1      38.959 -13.309   2.670  1.00  0.00    -0.271 OA
BRANCH   8  11
HETATM   11  C   UNL     1      40.366 -15.505   1.304  1.00  0.00     0.036 A 
HETATM   12  C   UNL     1      40.538 -15.723   2.673  1.00  0.00     0.059 A 
HETATM   13  C   UNL     1      41.369 -16.748   3.177  1.00  0.00     0.041 A 
HETATM   14  N   UNL     1      41.508 -16.826   4.573  1.00  0.00    -0.355 N 
HETATM   15  C   UNL     1      42.057 -17.553   2.266  1.00  0.00    -0.031 A 
HETATM   16  C   UNL     1      42.481 -17.351   5.444  1.00  0.00     0.039 A 
HETATM   17  H   UNL     1      40.728 -16.408   5.068  1.00  0.00     0.166 HD
HETATM   18  C   UNL     1      43.696 -17.927   5.048  1.00  0.00    -0.031 A 
HETATM   19  C   UNL     1      42.215 -17.245   6.828  1.00  0.00     0.030 A 
HETATM   20  C   UNL     1      44.625 -18.330   6.033  1.00  0.00     0.009 A 
HETATM   21  C   UNL     1      44.101 -18.104   3.606  1.00  0.00     0.045 C 
HETATM   22  C   UNL     1      44.346 -18.203   7.392  1.00  0.00     0.001 A 
HETATM   23  C   UNL     1      43.133 -17.667   7.791  1.00  0.00     0.002 A 
HETATM   24  C   UNL     1      42.984 -18.647   2.722  1.00  0.00     0.045 C 
HETATM   25  C   UNL     1      41.856 -17.365   0.886  1.00  0.00     0.012 A 
HETATM   26  C   UNL     1      41.020 -16.353   0.412  1.00  0.00     0.030 A 
ENDBRANCH   8  11
ENDBRANCH   1   7
BRANCH   2  27
HETATM   27  C   UNL     1      40.560 -10.818   1.116  1.00  0.00     0.277 C 
BRANCH  27  28
HETATM   28  C   UNL     1      41.710 -10.382   0.250  1.00  0.00     0.006 A 
HETATM   29  C   UNL     1      42.437 -11.338  -0.465  1.00  0.00     0.124 A 
HETATM   30  F   UNL     1      42.113 -12.633  -0.329  1.00  0.00    -0.206 F 
HETATM   31  C   UNL     1      43.510 -10.984  -1.274  1.00  0.00     0.043 A 
HETATM   32  C   UNL     1      43.875  -9.644  -1.373  1.00  0.00     0.003 A 
HETATM   33  C   UNL     1      43.166  -8.672  -0.663  1.00  0.00     0.001 A 
HETATM   34  C   UNL     1      42.085  -9.036   0.144  1.00  0.00     0.012 A 
ENDBRANCH  27  28
ENDBRANCH   2  27
BRANCH   5  35
HETATM   35  S   UNL     1      38.415 -11.953  -3.485  1.00  0.00    -0.084 SA
BRANCH  35  36
HETATM   36  C   UNL     1      39.491 -13.358  -3.333  1.00  0.00     0.188 A 
HETATM   37  N   UNL     1      38.946 -14.585  -3.384  1.00  0.00    -0.235 NA
HETATM   38  C   UNL     1      39.810 -15.617  -3.278  1.00  0.00     0.121 A 
HETATM   39  C   UNL     1      41.172 -15.462  -3.165  1.00  0.00     0.038 A 
HETATM   40  C   UNL     1      41.620 -14.163  -3.157  1.00  0.00     0.121 A 
HETATM   41  N   UNL     1      40.802 -13.099  -3.250  1.00  0.00    -0.235 NA
ENDBRANCH  35  36
ENDBRANCH   5  35
TORSDOF 6
ENDMDL
MODEL 10
REMARK VINA RESULT:      -9.2      1.862      2.488
REMARK  6 active torsions:
REMARK  status: ('A' for Active; 'I' for Inactive)
REMARK    1  A    between atoms: C_11  and  N_12 
REMARK       I    between atoms: N_12  and  C_13 
REMARK    2  A    between atoms: C_13  and  C_14 
REMARK    3  A    between atoms: N_15  and  C_17 
REMARK    4  A    between atoms: C_17  and  C_18 
REMARK    5  A    between atoms: C_26  and  S_27 
REMARK    6  A    between atoms: S_27  and  C_28 
ROOT
HETATM    1  C   UNL     1      42.749 -14.754   2.850  1.00  0.00     0.281 C 
HETATM    2  N   UNL     1      42.027 -16.141   2.818  1.00  0.00    -0.053 N 
HETATM    3  H   UNL     1      42.751 -16.832   2.574  1.00  0.00     0.281 HD
HETATM    4  C   UNL     1      41.036 -16.098   1.672  1.00  0.00     0.252 C 
HETATM    5  C   UNL     1      41.631 -15.078   0.718  1.00  0.00     0.083 C 
HETATM    6  C   UNL     1      42.120 -13.999   1.673  1.00  0.00     0.060 C 
ENDROOT
BRANCH   1   7
HETATM    7  C   UNL     1      42.693 -13.955   4.179  1.00  0.00     0.253 C 
HETATM    8  N   UNL     1      41.652 -13.043   4.271  1.00  0.00    -0.325 N 
HETATM    9  H   UNL     1      41.052 -12.891   3.469  1.00  0.00     0.169 HD
HETATM   10  O   UNL     1      43.555 -14.123   5.038  1.00  0.00    -0.271 OA
BRANCH   8  11
HETATM   11  C   UNL     1      41.272 -12.306   5.420  1.00  0.00     0.036 A 
HETATM   12  C   UNL     1      42.149 -11.926   6.439  1.00  0.00     0.059 A 
HETATM   13  C   UNL     1      41.712 -11.255   7.602  1.00  0.00     0.041 A 
HETATM   14  N   UNL     1      42.682 -10.981   8.581  1.00  0.00    -0.355 N 
HETATM   15  C   UNL     1      40.349 -10.985   7.740  1.00  0.00    -0.031 A 
HETATM   16  C   UNL     1      42.652 -10.747   9.968  1.00  0.00     0.039 A 
HETATM   17  H   UNL     1      43.622 -10.944   8.202  1.00  0.00     0.166 HD
HETATM   18  C   UNL     1      41.504 -10.800  10.773  1.00  0.00    -0.031 A 
HETATM   19  C   UNL     1      43.889 -10.475  10.593  1.00  0.00     0.030 A 
HETATM   20  C   UNL     1      41.631 -10.635  12.170  1.00  0.00     0.009 A 
HETATM   21  C   UNL     1      40.124 -11.077  10.234  1.00  0.00     0.045 C 
HETATM   22  C   UNL     1      42.865 -10.382  12.764  1.00  0.00     0.001 A 
HETATM   23  C   UNL     1      43.997 -10.293  11.972  1.00  0.00     0.002 A 
HETATM   24  C   UNL     1      39.800 -10.300   8.963  1.00  0.00     0.045 C 
HETATM   25  C   UNL     1      39.466 -11.329   6.701  1.00  0.00     0.012 A 
HETATM   26  C   UNL     1      39.923 -11.981   5.554  1.00  0.00     0.030 A 
ENDBRANCH   8  11
ENDBRANCH   1   7
BRANCH   2  27
HETATM   27  C   UNL     1      41.432 -16.683   4.101  1.00  0.00     0.277 C 
BRANCH  27  28
HETATM   28  C   UNL     1      42.371 -17.588   4.850  1.00  0.00     0.006 A 
HETATM   29  C   UNL     1      42.495 -17.459   6.236  1.00  0.00     0.124 A 
HETATM   30  F   UNL     1      41.799 -16.499   6.862  1.00  0.00    -0.206 F 
HETATM   31  C   UNL     1      43.354 -18.270   6.970  1.00  0.00     0.043 A 
HETATM   32  C   UNL     1      44.113 -19.232   6.310  1.00  0.00     0.003 A 
HETATM   33  C   UNL     1      44.008 -19.375   4.924  1.00  0.00     0.001 A 
HETATM   34  C   UNL     1      43.139 -18.560   4.194  1.00  0.00     0.012 A 
ENDBRANCH  27  28
ENDBRANCH   2  27
BRANCH   5  35
HETATM   35  S   UNL     1      40.433 -14.378  -0.454  1.00  0.00    -0.084 SA
BRANCH  35  36
HETATM   36  C   UNL     1      39.824 -13.004   0.493  1.00  0.00     0.188 A 
HETATM   37  N   UNL     1      40.251 -11.771   0.171  1.00  0.00    -0.235 NA
HETATM   38  C   UNL     1      39.745 -10.762   0.913  1.00  0.00     0.121 A 
HETATM   39  C   UNL     1      38.819 -10.942   1.913  1.00  0.00     0.038 A 
HETATM   40  C   UNL     1      38.430 -12.242   2.131  1.00  0.00     0.121 A 
HETATM   41  N   UNL     1      38.909 -13.284   1.429  1.00  0.00    -0.235 NA
ENDBRANCH  35  36
ENDBRANCH   5  35
TORSDOF 6
ENDMDL
