MODEL 1
REMARK VINA RESULT:      -8.6      0.000      0.000
REMARK  6 active torsions:
REMARK  status: ('A' for Active; 'I' for Inactive)
REMARK    1  A    between atoms: O_2  and  C_3 
REMARK    2  A    between atoms: N_7  and  C_9 
REMARK    3  A    between atoms: C_9  and  C_10 
REMARK    4  A    between atoms: C_11  and  O_12 
REMARK    5  A    between atoms: C_22  and  N_23 
REMARK       I    between atoms: N_23  and  C_24 
REMARK    6  A    between atoms: C_24  and  C_25 
ROOT
HETATM    1  C   UNL     1      41.878 -16.292   4.906  1.00  0.00     0.161 C 
HETATM    2  C   UNL     1      42.473 -16.713   3.511  1.00  0.00     0.019 C 
HETATM    3  C   UNL     1      43.324 -15.584   2.877  1.00  0.00     0.045 C 
HETATM    4  C   UNL     1      42.478 -14.422   2.369  1.00  0.00     0.236 C 
HETATM    5  N   UNL     1      41.415 -14.915   1.423  1.00  0.00    -0.067 N 
HETATM    6  H   UNL     1      40.804 -14.100   1.241  1.00  0.00     0.280 HD
HETATM    7  C   UNL     1      40.541 -15.972   2.045  1.00  0.00     0.236 C 
HETATM    8  C   UNL     1      41.396 -17.151   2.497  1.00  0.00     0.045 C 
HETATM    9  C   UNL     1      43.401 -17.830   3.947  1.00  0.00    -0.038 A 
HETATM   10  C   UNL     1      43.671 -17.764   5.326  1.00  0.00    -0.026 A 
HETATM   11  C   UNL     1      42.965 -16.601   5.988  1.00  0.00     0.148 C 
HETATM   12  C   UNL     1      43.985 -18.817   3.163  1.00  0.00     0.009 A 
HETATM   13  C   UNL     1      44.833 -19.744   3.772  1.00  0.00     0.001 A 
HETATM   14  C   UNL     1      45.095 -19.679   5.147  1.00  0.00     0.001 A 
HETATM   15  C   UNL     1      44.514 -18.685   5.934  1.00  0.00     0.010 A 
ENDROOT
BRANCH   1  16
HETATM   16  O   UNL     1      40.578 -16.878   5.151  1.00  0.00    -0.387 OA
HETATM   17  C   UNL     1      40.196 -17.149   6.494  1.00  0.00     0.202 C 
ENDBRANCH   1  16
BRANCH  11  18
HETATM   18  N   UNL     1      43.965 -15.595   6.336  1.00  0.00    -0.346 N 
HETATM   19  C   UNL     1      43.796 -14.233   6.381  1.00  0.00     0.252 C 
HETATM   20  O   UNL     1      42.865 -13.655   5.830  1.00  0.00    -0.268 OA
HETATM   21  H   UNL     1      44.791 -15.967   6.780  1.00  0.00     0.163 HD
BRANCH  19  22
HETATM   22  C   UNL     1      44.848 -13.492   7.089  1.00  0.00     0.039 A 
HETATM   23  C   UNL     1      44.601 -12.890   8.313  1.00  0.00     0.066 A 
HETATM   24  S   UNL     1      45.962 -12.089   8.964  1.00  0.00    -0.113 SA
HETATM   25  C   UNL     1      46.928 -12.544   7.634  1.00  0.00     0.050 A 
HETATM   26  C   UNL     1      46.221 -13.285   6.711  1.00  0.00     0.024 A 
ENDBRANCH  19  22
ENDBRANCH  11  18
BRANCH   5  27
HETATM   27  C   UNL     1      41.900 -15.266   0.033  1.00  0.00     0.276 C 
BRANCH  27  28
HETATM   28  C   UNL     1      41.034 -14.732  -1.075  1.00  0.00     0.002 A 
HETATM   29  C   UNL     1      40.653 -13.384  -1.116  1.00  0.00     0.073 A 
HETATM   30  C   UNL     1      39.827 -12.895  -2.126  1.00  0.00     0.039 A 
HETATM   31  C   UNL     1      39.370 -13.761  -3.120  1.00  0.00     0.026 A 
HETATM   32  C   UNL     1      39.737 -15.104  -3.093  1.00  0.00     0.034 A 
HETATM   33 CL   UNL     1      39.179 -16.172  -4.318  1.00  0.00    -0.084 Cl
HETATM   34  C   UNL     1      40.561 -15.593  -2.077  1.00  0.00     0.035 A 
BRANCH  29  35
HETATM   35  O   UNL     1      41.134 -12.549  -0.144  1.00  0.00    -0.360 OA
HETATM   36  H   UNL     1      41.966 -12.152  -0.474  1.00  0.00     0.217 HD
ENDBRANCH  29  35
ENDBRANCH  27  28
ENDBRANCH   5  27
TORSDOF 6
ENDMDL
MODEL 2
REMARK VINA RESULT:      -8.5      3.782      7.124
REMARK  6 active torsions:
REMARK  status: ('A' for Active; 'I' for Inactive)
REMARK    1  A    between atoms: O_2  and  C_3 
REMARK    2  A    between atoms: N_7  and  C_9 
REMARK    3  A    between atoms: C_9  and  C_10 
REMARK    4  A    between atoms: C_11  and  O_12 
REMARK    5  A    between atoms: C_22  and  N_23 
REMARK       I    between atoms: N_23  and  C_24 
REMARK    6  A    between atoms: C_24  and  C_25 
ROOT
HETATM    1  C   UNL     1      41.557 -12.789   2.621  1.00  0.00     0.161 C 
HETATM    2  C   UNL     1      40.866 -14.197   2.494  1.00  0.00     0.019 C 
HETATM    3  C   UNL     1      40.589 -14.836   3.878  1.00  0.00     0.045 C 
HETATM    4  C   UNL     1      41.858 -15.318   4.571  1.00  0.00     0.236 C 
HETATM    5  N   UNL     1      42.629 -16.250   3.673  1.00  0.00    -0.067 N 
HETATM    6  H   UNL     1      43.532 -16.414   4.150  1.00  0.00     0.280 HD
HETATM    7  C   UNL     1      42.958 -15.622   2.344  1.00  0.00     0.236 C 
HETATM    8  C   UNL     1      41.675 -15.196   1.640  1.00  0.00     0.045 C 
HETATM    9  C   UNL     1      39.543 -13.788   1.877  1.00  0.00    -0.038 A 
HETATM   10  C   UNL     1      39.300 -12.413   2.051  1.00  0.00    -0.026 A 
HETATM   11  C   UNL     1      40.421 -11.729   2.803  1.00  0.00     0.148 C 
HETATM   12  C   UNL     1      38.610 -14.590   1.232  1.00  0.00     0.009 A 
HETATM   13  C   UNL     1      37.437 -14.005   0.754  1.00  0.00     0.001 A 
HETATM   14  C   UNL     1      37.201 -12.634   0.923  1.00  0.00     0.001 A 
HETATM   15  C   UNL     1      38.134 -11.828   1.575  1.00  0.00     0.010 A 
ENDROOT
BRANCH   1  16
HETATM   16  O   UNL     1      42.478 -12.527   1.537  1.00  0.00    -0.387 OA
HETATM   17  C   UNL     1      42.120 -11.558   0.558  1.00  0.00     0.202 C 
ENDBRANCH   1  16
BRANCH  11  18
HETATM   18  N   UNL     1      39.936 -11.389   4.138  1.00  0.00    -0.346 N 
HETATM   19  C   UNL     1      40.672 -11.303   5.294  1.00  0.00     0.252 C 
HETATM   20  O   UNL     1      41.783 -11.807   5.420  1.00  0.00    -0.268 OA
HETATM   21  H   UNL     1      39.013 -10.983   4.154  1.00  0.00     0.163 HD
BRANCH  19  22
HETATM   22  C   UNL     1      40.013 -10.613   6.410  1.00  0.00     0.039 A 
HETATM   23  C   UNL     1      39.826 -11.240   7.632  1.00  0.00     0.066 A 
HETATM   24  S   UNL     1      39.046 -10.256   8.791  1.00  0.00    -0.113 SA
HETATM   25  C   UNL     1      38.956  -8.952   7.694  1.00  0.00     0.050 A 
HETATM   26  C   UNL     1      39.502  -9.268   6.468  1.00  0.00     0.024 A 
ENDBRANCH  19  22
ENDBRANCH  11  18
BRANCH   5  27
HETATM   27  C   UNL     1      42.068 -17.652   3.563  1.00  0.00     0.276 C 
BRANCH  27  28
HETATM   28  C   UNL     1      43.104 -18.739   3.651  1.00  0.00     0.002 A 
HETATM   29  C   UNL     1      43.988 -18.816   4.735  1.00  0.00     0.073 A 
HETATM   30  C   UNL     1      44.966 -19.805   4.804  1.00  0.00     0.039 A 
HETATM   31  C   UNL     1      45.070 -20.742   3.774  1.00  0.00     0.026 A 
HETATM   32  C   UNL     1      44.202 -20.678   2.688  1.00  0.00     0.034 A 
HETATM   33 CL   UNL     1      44.325 -21.832   1.420  1.00  0.00    -0.084 Cl
HETATM   34  C   UNL     1      43.225 -19.683   2.619  1.00  0.00     0.035 A 
BRANCH  29  35
HETATM   35  O   UNL     1      43.850 -17.902   5.745  1.00  0.00    -0.360 OA
HETATM   36  H   UNL     1      44.336 -17.092   5.487  1.00  0.00     0.217 HD
ENDBRANCH  29  35
ENDBRANCH  27  28
ENDBRANCH   5  27
TORSDOF 6
ENDMDL
MODEL 3
REMARK VINA RESULT:      -8.4      3.916      7.533
REMARK  6 active torsions:
REMARK  status: ('A' for Active; 'I' for Inactive)
REMARK    1  A    between atoms: O_2  and  C_3 
REMARK    2  A    between atoms: N_7  and  C_9 
REMARK    3  A    between atoms: C_9  and  C_10 
REMARK    4  A    between atoms: C_11  and  O_12 
REMARK    5  A    between atoms: C_22  and  N_23 
REMARK       I    between atoms: N_23  and  C_24 
REMARK    6  A    between atoms: C_24  and  C_25 
ROOT
HETATM    1  C   UNL     1      40.362 -14.332   2.045  1.00  0.00     0.161 C 
HETATM    2  C   UNL     1      41.155 -14.697   3.355  1.00  0.00     0.019 C 
HETATM    3  C   UNL     1      42.688 -14.594   3.154  1.00  0.00     0.045 C 
HETATM    4  C   UNL     1      43.246 -15.715   2.285  1.00  0.00     0.236 C 
HETATM    5  N   UNL     1      42.847 -17.059   2.836  1.00  0.00    -0.067 N 
HETATM    6  H   UNL     1      43.136 -17.750   2.122  1.00  0.00     0.280 HD
HETATM    7  C   UNL     1      41.355 -17.197   2.982  1.00  0.00     0.236 C 
HETATM    8  C   UNL     1      40.820 -16.102   3.898  1.00  0.00     0.045 C 
HETATM    9  C   UNL     1      40.708 -13.564   4.258  1.00  0.00    -0.038 A 
HETATM   10  C   UNL     1      40.167 -12.499   3.514  1.00  0.00    -0.026 A 
HETATM   11  C   UNL     1      40.183 -12.778   2.028  1.00  0.00     0.148 C 
HETATM   12  C   UNL     1      40.806 -13.478   5.641  1.00  0.00     0.009 A 
HETATM   13  C   UNL     1      40.348 -12.322   6.276  1.00  0.00     0.001 A 
HETATM   14  C   UNL     1      39.803 -11.266   5.533  1.00  0.00     0.001 A 
HETATM   15  C   UNL     1      39.710 -11.348   4.144  1.00  0.00     0.010 A 
ENDROOT
BRANCH   1  16
HETATM   16  O   UNL     1      39.141 -15.096   1.910  1.00  0.00    -0.387 OA
HETATM   17  C   UNL     1      38.042 -14.508   1.223  1.00  0.00     0.202 C 
ENDBRANCH   1  16
BRANCH  11  18
HETATM   18  N   UNL     1      41.195 -11.927   1.411  1.00  0.00    -0.346 N 
HETATM   19  C   UNL     1      41.507 -11.836   0.076  1.00  0.00     0.252 C 
HETATM   20  O   UNL     1      41.190 -12.690  -0.745  1.00  0.00    -0.268 OA
HETATM   21  H   UNL     1      41.546 -11.196   2.011  1.00  0.00     0.163 HD
BRANCH  19  22
HETATM   22  C   UNL     1      42.309 -10.666  -0.304  1.00  0.00     0.039 A 
HETATM   23  C   UNL     1      42.095  -9.428   0.283  1.00  0.00     0.066 A 
HETATM   24  S   UNL     1      43.142  -8.209  -0.298  1.00  0.00    -0.113 SA
HETATM   25  C   UNL     1      43.927  -9.310  -1.338  1.00  0.00     0.050 A 
HETATM   26  C   UNL     1      43.394 -10.578  -1.246  1.00  0.00     0.024 A 
ENDBRANCH  19  22
ENDBRANCH  11  18
BRANCH   5  27
HETATM   27  C   UNL     1      43.624 -17.515   4.053  1.00  0.00     0.276 C 
BRANCH  27  28
HETATM   28  C   UNL     1      43.980 -18.976   4.045  1.00  0.00     0.002 A 
HETATM   29  C   UNL     1      44.396 -19.630   5.212  1.00  0.00     0.073 A 
HETATM   30  C   UNL     1      44.754 -20.977   5.200  1.00  0.00     0.039 A 
HETATM   31  C   UNL     1      44.696 -21.692   4.002  1.00  0.00     0.026 A 
HETATM   32  C   UNL     1      44.287 -21.057   2.833  1.00  0.00     0.034 A 
HETATM   33 CL   UNL     1      44.210 -21.936   1.359  1.00  0.00    -0.084 Cl
HETATM   34  C   UNL     1      43.934 -19.706   2.847  1.00  0.00     0.035 A 
BRANCH  29  35
HETATM   35  O   UNL     1      44.421 -18.914   6.378  1.00  0.00    -0.360 OA
HETATM   36  H   UNL     1      43.867 -19.386   7.033  1.00  0.00     0.217 HD
ENDBRANCH  29  35
ENDBRANCH  27  28
ENDBRANCH   5  27
TORSDOF 6
ENDMDL
MODEL 4
REMARK VINA RESULT:      -8.2      3.765      8.318
REMARK  6 active torsions:
REMARK  status: ('A' for Active; 'I' for Inactive)
REMARK    1  A    between atoms: O_2  and  C_3 
REMARK    2  A    between atoms: N_7  and  C_9 
REMARK    3  A    between atoms: C_9  and  C_10 
REMARK    4  A    between atoms: C_11  and  O_12 
REMARK    5  A    between atoms: C_22  and  N_23 
REMARK       I    between atoms: N_23  and  C_24 
REMARK    6  A    between atoms: C_24  and  C_25 
ROOT
HETATM    1  C   UNL     1      41.476 -14.893  -0.372  1.00  0.00     0.161 C 
HETATM    2  C   UNL     1      40.646 -14.960   0.963  1.00  0.00     0.019 C 
HETATM    3  C   UNL     1      41.363 -14.239   2.130  1.00  0.00     0.045 C 
HETATM    4  C   UNL     1      42.582 -15.001   2.637  1.00  0.00     0.236 C 
HETATM    5  N   UNL     1      42.208 -16.414   3.003  1.00  0.00    -0.067 N 
HETATM    6  H   UNL     1      43.101 -16.899   3.195  1.00  0.00     0.280 HD
HETATM    7  C   UNL     1      41.562 -17.149   1.858  1.00  0.00     0.236 C 
HETATM    8  C   UNL     1      40.314 -16.403   1.401  1.00  0.00     0.045 C 
HETATM    9  C   UNL     1      39.434 -14.143   0.561  1.00  0.00    -0.038 A 
HETATM   10  C   UNL     1      39.699 -13.358  -0.576  1.00  0.00    -0.026 A 
HETATM   11  C   UNL     1      41.114 -13.545  -1.078  1.00  0.00     0.148 C 
HETATM   12  C   UNL     1      38.193 -14.083   1.183  1.00  0.00     0.009 A 
HETATM   13  C   UNL     1      37.216 -13.239   0.653  1.00  0.00     0.001 A 
HETATM   14  C   UNL     1      37.481 -12.463  -0.484  1.00  0.00     0.001 A 
HETATM   15  C   UNL     1      38.728 -12.518  -1.106  1.00  0.00     0.010 A 
ENDROOT
BRANCH   1  16
HETATM   16  O   UNL     1      41.311 -16.079  -1.185  1.00  0.00    -0.387 OA
HETATM   17  C   UNL     1      40.979 -15.922  -2.559  1.00  0.00     0.202 C 
ENDBRANCH   1  16
BRANCH  11  18
HETATM   18  N   UNL     1      41.870 -12.332  -0.782  1.00  0.00    -0.346 N 
HETATM   19  C   UNL     1      42.456 -11.475  -1.682  1.00  0.00     0.252 C 
HETATM   20  O   UNL     1      42.690 -11.784  -2.845  1.00  0.00    -0.268 OA
HETATM   21  H   UNL     1      41.767 -11.998   0.164  1.00  0.00     0.163 HD
BRANCH  19  22
HETATM   22  C   UNL     1      42.848 -10.168  -1.141  1.00  0.00     0.039 A 
HETATM   23  C   UNL     1      41.983  -9.431  -0.346  1.00  0.00     0.066 A 
HETATM   24  S   UNL     1      42.641  -7.945   0.181  1.00  0.00    -0.113 SA
HETATM   25  C   UNL     1      44.113  -8.255  -0.623  1.00  0.00     0.050 A 
HETATM   26  C   UNL     1      44.096  -9.465  -1.286  1.00  0.00     0.024 A 
ENDBRANCH  19  22
ENDBRANCH  11  18
BRANCH   5  27
HETATM   27  C   UNL     1      41.473 -16.567   4.318  1.00  0.00     0.276 C 
BRANCH  27  28
HETATM   28  C   UNL     1      42.298 -17.181   5.416  1.00  0.00     0.002 A 
HETATM   29  C   UNL     1      42.645 -16.451   6.560  1.00  0.00     0.073 A 
HETATM   30  C   UNL     1      43.433 -17.009   7.565  1.00  0.00     0.039 A 
HETATM   31  C   UNL     1      43.886 -18.323   7.433  1.00  0.00     0.026 A 
HETATM   32  C   UNL     1      43.553 -19.061   6.300  1.00  0.00     0.034 A 
HETATM   33 CL   UNL     1      44.106 -20.680   6.137  1.00  0.00    -0.084 Cl
HETATM   34  C   UNL     1      42.767 -18.498   5.293  1.00  0.00     0.035 A 
BRANCH  29  35
HETATM   35  O   UNL     1      42.168 -15.173   6.679  1.00  0.00    -0.360 OA
HETATM   36  H   UNL     1      42.831 -14.649   7.173  1.00  0.00     0.217 HD
ENDBRANCH  29  35
ENDBRANCH  27  28
ENDBRANCH   5  27
TORSDOF 6
ENDMDL
MODEL 5
REMARK VINA RESULT:      -7.9      4.285      9.006
REMARK  6 active torsions:
REMARK  status: ('A' for Active; 'I' for Inactive)
REMARK    1  A    between atoms: O_2  and  C_3 
REMARK    2  A    between atoms: N_7  and  C_9 
REMARK    3  A    between atoms: C_9  and  C_10 
REMARK    4  A    between atoms: C_11  and  O_12 
REMARK    5  A    between atoms: C_22  and  N_23 
REMARK       I    between atoms: N_23  and  C_24 
REMARK    6  A    between atoms: C_24  and  C_25 
ROOT
HETATM    1  C   UNL     1      40.865 -12.692   0.572  1.00  0.00     0.161 C 
HETATM    2  C   UNL     1      40.855 -14.266   0.584  1.00  0.00     0.019 C 
HETATM    3  C   UNL     1      39.600 -14.833   1.294  1.00  0.00     0.045 C 
HETATM    4  C   UNL     1      39.638 -14.640   2.805  1.00  0.00     0.236 C 
HETATM    5  N   UNL     1      40.908 -15.212   3.380  1.00  0.00    -0.067 N 
HETATM    6  H   UNL     1      40.924 -14.916   4.371  1.00  0.00     0.280 HD
HETATM    7  C   UNL     1      42.139 -14.626   2.741  1.00  0.00     0.236 C 
HETATM    8  C   UNL     1      42.112 -14.877   1.238  1.00  0.00     0.045 C 
HETATM    9  C   UNL     1      40.736 -14.541  -0.902  1.00  0.00    -0.038 A 
HETATM   10  C   UNL     1      40.283 -13.406  -1.599  1.00  0.00    -0.026 A 
HETATM   11  C   UNL     1      40.040 -12.232  -0.675  1.00  0.00     0.148 C 
HETATM   12  C   UNL     1      40.987 -15.728  -1.579  1.00  0.00     0.009 A 
HETATM   13  C   UNL     1      40.790 -15.767  -2.960  1.00  0.00     0.001 A 
HETATM   14  C   UNL     1      40.345 -14.633  -3.652  1.00  0.00     0.001 A 
HETATM   15  C   UNL     1      40.087 -13.442  -2.973  1.00  0.00     0.010 A 
ENDROOT
BRANCH   1  16
HETATM   16  O   UNL     1      42.203 -12.148   0.662  1.00  0.00    -0.387 OA
HETATM   17  C   UNL     1      42.511 -10.972  -0.077  1.00  0.00     0.202 C 
ENDBRANCH   1  16
BRANCH  11  18
HETATM   18  N   UNL     1      38.599 -12.022  -0.569  1.00  0.00    -0.346 N 
HETATM   19  C   UNL     1      37.952 -10.936  -0.033  1.00  0.00     0.252 C 
HETATM   20  O   UNL     1      38.500 -10.133   0.715  1.00  0.00    -0.268 OA
HETATM   21  H   UNL     1      38.045 -12.650  -1.132  1.00  0.00     0.163 HD
BRANCH  19  22
HETATM   22  C   UNL     1      36.526 -10.826  -0.364  1.00  0.00     0.039 A 
HETATM   23  C   UNL     1      36.107 -10.617  -1.670  1.00  0.00     0.066 A 
HETATM   24  S   UNL     1      34.409 -10.528  -1.833  1.00  0.00    -0.113 SA
HETATM   25  C   UNL     1      34.184 -10.789  -0.162  1.00  0.00     0.050 A 
HETATM   26  C   UNL     1      35.383 -10.932   0.504  1.00  0.00     0.024 A 
ENDBRANCH  19  22
ENDBRANCH  11  18
BRANCH   5  27
HETATM   27  C   UNL     1      40.941 -16.721   3.497  1.00  0.00     0.276 C 
BRANCH  27  28
HETATM   28  C   UNL     1      41.727 -17.230   4.676  1.00  0.00     0.002 A 
HETATM   29  C   UNL     1      41.349 -16.922   5.989  1.00  0.00     0.073 A 
HETATM   30  C   UNL     1      42.091 -17.369   7.081  1.00  0.00     0.039 A 
HETATM   31  C   UNL     1      43.234 -18.141   6.864  1.00  0.00     0.026 A 
HETATM   32  C   UNL     1      43.625 -18.453   5.565  1.00  0.00     0.034 A 
HETATM   33 CL   UNL     1      45.029 -19.407   5.296  1.00  0.00    -0.084 Cl
HETATM   34  C   UNL     1      42.882 -18.000   4.473  1.00  0.00     0.035 A 
BRANCH  29  35
HETATM   35  O   UNL     1      40.210 -16.185   6.177  1.00  0.00    -0.360 OA
HETATM   36  H   UNL     1      40.073 -16.083   7.141  1.00  0.00     0.217 HD
ENDBRANCH  29  35
ENDBRANCH  27  28
ENDBRANCH   5  27
TORSDOF 6
ENDMDL
MODEL 6
REMARK VINA RESULT:      -7.7      4.654      9.785
REMARK  6 active torsions:
REMARK  status: ('A' for Active; 'I' for Inactive)
REMARK    1  A    between atoms: O_2  and  C_3 
REMARK    2  A    between atoms: N_7  and  C_9 
REMARK    3  A    between atoms: C_9  and  C_10 
REMARK    4  A    between atoms: C_11  and  O_12 
REMARK    5  A    between atoms: C_22  and  N_23 
REMARK       I    between atoms: N_23  and  C_24 
REMARK    6  A    between atoms: C_24  and  C_25 
ROOT
HETATM    1  C   UNL     1      39.074 -12.048  -0.685  1.00  0.00     0.161 C 
HETATM    2  C   UNL     1      38.895 -13.610  -0.748  1.00  0.00     0.019 C 
HETATM    3  C   UNL     1      38.036 -14.145   0.425  1.00  0.00     0.045 C 
HETATM    4  C   UNL     1      38.769 -14.100   1.761  1.00  0.00     0.236 C 
HETATM    5  N   UNL     1      40.088 -14.821   1.665  1.00  0.00    -0.067 N 
HETATM    6  H   UNL     1      40.579 -14.623   2.554  1.00  0.00     0.280 HD
HETATM    7  C   UNL     1      40.960 -14.273   0.566  1.00  0.00     0.236 C 
HETATM    8  C   UNL     1      40.234 -14.376  -0.771  1.00  0.00     0.045 C 
HETATM    9  C   UNL     1      38.093 -13.732  -2.029  1.00  0.00    -0.038 A 
HETATM   10  C   UNL     1      37.506 -12.504  -2.386  1.00  0.00    -0.026 A 
HETATM   11  C   UNL     1      37.835 -11.409  -1.395  1.00  0.00     0.148 C 
HETATM   12  C   UNL     1      37.879 -14.865  -2.805  1.00  0.00     0.009 A 
HETATM   13  C   UNL     1      37.081 -14.757  -3.945  1.00  0.00     0.001 A 
HETATM   14  C   UNL     1      36.503 -13.531  -4.301  1.00  0.00     0.001 A 
HETATM   15  C   UNL     1      36.712 -12.394  -3.520  1.00  0.00     0.010 A 
ENDROOT
BRANCH   1  16
HETATM   16  O   UNL     1      40.362 -11.620  -1.187  1.00  0.00    -0.387 OA
HETATM   17  C   UNL     1      40.468 -10.332  -1.781  1.00  0.00     0.202 C 
ENDBRANCH   1  16
BRANCH  11  18
HETATM   18  N   UNL     1      36.628 -11.100  -0.634  1.00  0.00    -0.346 N 
HETATM   19  C   UNL     1      35.709 -10.113  -0.895  1.00  0.00     0.252 C 
HETATM   20  O   UNL     1      35.943  -9.156  -1.625  1.00  0.00    -0.268 OA
HETATM   21  H   UNL     1      36.354 -11.817   0.019  1.00  0.00     0.163 HD
BRANCH  19  22
HETATM   22  C   UNL     1      34.429 -10.244  -0.188  1.00  0.00     0.039 A 
HETATM   23  C   UNL     1      34.384 -10.416   1.188  1.00  0.00     0.066 A 
HETATM   24  S   UNL     1      32.795 -10.538   1.806  1.00  0.00    -0.113 SA
HETATM   25  C   UNL     1      32.122 -10.341   0.251  1.00  0.00     0.050 A 
HETATM   26  C   UNL     1      33.092 -10.194  -0.718  1.00  0.00     0.024 A 
ENDBRANCH  19  22
ENDBRANCH  11  18
BRANCH   5  27
HETATM   27  C   UNL     1      40.001 -16.332   1.678  1.00  0.00     0.276 C 
BRANCH  27  28
HETATM   28  C   UNL     1      41.040 -17.001   2.538  1.00  0.00     0.002 A 
HETATM   29  C   UNL     1      41.176 -16.682   3.895  1.00  0.00     0.073 A 
HETATM   30  C   UNL     1      42.156 -17.280   4.685  1.00  0.00     0.039 A 
HETATM   31  C   UNL     1      43.019 -18.218   4.116  1.00  0.00     0.026 A 
HETATM   32  C   UNL     1      42.899 -18.544   2.768  1.00  0.00     0.034 A 
HETATM   33 CL   UNL     1      43.959 -19.700   2.066  1.00  0.00    -0.084 Cl
HETATM   34  C   UNL     1      41.920 -17.939   1.977  1.00  0.00     0.035 A 
BRANCH  29  35
HETATM   35  O   UNL     1      40.301 -15.779   4.436  1.00  0.00    -0.360 OA
HETATM   36  H   UNL     1      40.811 -15.172   5.010  1.00  0.00     0.217 HD
ENDBRANCH  29  35
ENDBRANCH  27  28
ENDBRANCH   5  27
TORSDOF 6
ENDMDL
MODEL 7
REMARK VINA RESULT:      -7.6      4.451      8.567
REMARK  6 active torsions:
REMARK  status: ('A' for Active; 'I' for Inactive)
REMARK    1  A    between atoms: O_2  and  C_3 
REMARK    2  A    between atoms: N_7  and  C_9 
REMARK    3  A    between atoms: C_9  and  C_10 
REMARK    4  A    between atoms: C_11  and  O_12 
REMARK    5  A    between atoms: C_22  and  N_23 
REMARK       I    between atoms: N_23  and  C_24 
REMARK    6  A    between atoms: C_24  and  C_25 
ROOT
HETATM    1  C   UNL     1      39.705 -14.099   1.180  1.00  0.00     0.161 C 
HETATM    2  C   UNL     1      40.770 -13.997   2.334  1.00  0.00     0.019 C 
HETATM    3  C   UNL     1      42.215 -14.182   1.809  1.00  0.00     0.045 C 
HETATM    4  C   UNL     1      42.518 -15.622   1.410  1.00  0.00     0.236 C 
HETATM    5  N   UNL     1      42.215 -16.561   2.548  1.00  0.00    -0.067 N 
HETATM    6  H   UNL     1      42.307 -17.514   2.155  1.00  0.00     0.280 HD
HETATM    7  C   UNL     1      40.794 -16.435   3.031  1.00  0.00     0.236 C 
HETATM    8  C   UNL     1      40.525 -15.003   3.479  1.00  0.00     0.045 C 
HETATM    9  C   UNL     1      40.584 -12.547   2.737  1.00  0.00    -0.038 A 
HETATM   10  C   UNL     1      39.919 -11.817   1.734  1.00  0.00    -0.026 A 
HETATM   11  C   UNL     1      39.578 -12.678   0.537  1.00  0.00     0.148 C 
HETATM   12  C   UNL     1      41.004 -11.918   3.902  1.00  0.00     0.009 A 
HETATM   13  C   UNL     1      40.745 -10.556   4.061  1.00  0.00     0.001 A 
HETATM   14  C   UNL     1      40.077  -9.833   3.063  1.00  0.00     0.001 A 
HETATM   15  C   UNL     1      39.660 -10.462   1.890  1.00  0.00     0.010 A 
ENDROOT
BRANCH   1  16
HETATM   16  O   UNL     1      38.461 -14.688   1.627  1.00  0.00    -0.387 OA
HETATM   17  C   UNL     1      37.262 -14.351   0.940  1.00  0.00     0.202 C 
ENDBRANCH   1  16
BRANCH  11  18
HETATM   18  N   UNL     1      40.445 -12.290  -0.570  1.00  0.00    -0.346 N 
HETATM   19  C   UNL     1      40.221 -12.482  -1.911  1.00  0.00     0.252 C 
HETATM   20  O   UNL     1      39.405 -13.288  -2.345  1.00  0.00    -0.268 OA
HETATM   21  H   UNL     1      41.174 -11.639  -0.319  1.00  0.00     0.163 HD
BRANCH  19  22
HETATM   22  C   UNL     1      41.075 -11.696  -2.811  1.00  0.00     0.039 A 
HETATM   23  C   UNL     1      41.277 -10.340  -2.605  1.00  0.00     0.066 A 
HETATM   24  S   UNL     1      42.309  -9.622  -3.762  1.00  0.00    -0.113 SA
HETATM   25  C   UNL     1      42.534 -11.113  -4.560  1.00  0.00     0.050 A 
HETATM   26  C   UNL     1      41.827 -12.133  -3.958  1.00  0.00     0.024 A 
ENDBRANCH  19  22
ENDBRANCH  11  18
BRANCH   5  27
HETATM   27  C   UNL     1      43.239 -16.577   3.663  1.00  0.00     0.276 C 
BRANCH  27  28
HETATM   28  C   UNL     1      43.670 -17.955   4.085  1.00  0.00     0.002 A 
HETATM   29  C   UNL     1      44.193 -18.869   3.160  1.00  0.00     0.073 A 
HETATM   30  C   UNL     1      44.566 -20.155   3.545  1.00  0.00     0.039 A 
HETATM   31  C   UNL     1      44.418 -20.544   4.877  1.00  0.00     0.026 A 
HETATM   32  C   UNL     1      43.897 -19.650   5.808  1.00  0.00     0.034 A 
HETATM   33 CL   UNL     1      43.718 -20.125   7.450  1.00  0.00    -0.084 Cl
HETATM   34  C   UNL     1      43.520 -18.363   5.420  1.00  0.00     0.035 A 
BRANCH  29  35
HETATM   35  O   UNL     1      44.352 -18.456   1.865  1.00  0.00    -0.360 OA
HETATM   36  H   UNL     1      43.462 -18.360   1.468  1.00  0.00     0.217 HD
ENDBRANCH  29  35
ENDBRANCH  27  28
ENDBRANCH   5  27
TORSDOF 6
ENDMDL
MODEL 8
REMARK VINA RESULT:      -7.4      4.447      8.298
REMARK  6 active torsions:
REMARK  status: ('A' for Active; 'I' for Inactive)
REMARK    1  A    between atoms: O_2  and  C_3 
REMARK    2  A    between atoms: N_7  and  C_9 
REMARK    3  A    between atoms: C_9  and  C_10 
REMARK    4  A    between atoms: C_11  and  O_12 
REMARK    5  A    between atoms: C_22  and  N_23 
REMARK       I    between atoms: N_23  and  C_24 
REMARK    6  A    between atoms: C_24  and  C_25 
ROOT
HETATM    1  C   UNL     1      39.766 -14.322   2.576  1.00  0.00     0.161 C 
HETATM    2  C   UNL     1      40.596 -13.018   2.875  1.00  0.00     0.019 C 
HETATM    3  C   UNL     1      41.712 -13.267   3.921  1.00  0.00     0.045 C 
HETATM    4  C   UNL     1      41.166 -13.462   5.331  1.00  0.00     0.236 C 
HETATM    5  N   UNL     1      40.285 -12.304   5.722  1.00  0.00    -0.067 N 
HETATM    6  H   UNL     1      39.846 -12.577   6.618  1.00  0.00     0.280 HD
HETATM    7  C   UNL     1      39.160 -12.086   4.745  1.00  0.00     0.236 C 
HETATM    8  C   UNL     1      39.724 -11.838   3.351  1.00  0.00     0.045 C 
HETATM    9  C   UNL     1      41.243 -12.801   1.521  1.00  0.00    -0.038 A 
HETATM   10  C   UNL     1      41.203 -13.971   0.740  1.00  0.00    -0.026 A 
HETATM   11  C   UNL     1      40.532 -15.116   1.466  1.00  0.00     0.148 C 
HETATM   12  C   UNL     1      41.849 -11.650   1.033  1.00  0.00     0.009 A 
HETATM   13  C   UNL     1      42.406 -11.676  -0.247  1.00  0.00     0.001 A 
HETATM   14  C   UNL     1      42.359 -12.840  -1.025  1.00  0.00     0.001 A 
HETATM   15  C   UNL     1      41.757 -13.998  -0.534  1.00  0.00     0.010 A 
ENDROOT
BRANCH   1  16
HETATM   16  O   UNL     1      38.378 -14.037   2.285  1.00  0.00    -0.387 OA
HETATM   17  C   UNL     1      37.885 -14.311   0.979  1.00  0.00     0.202 C 
ENDBRANCH   1  16
BRANCH  11  18
HETATM   18  N   UNL     1      41.554 -16.092   1.830  1.00  0.00    -0.346 N 
HETATM   19  C   UNL     1      41.573 -16.906   2.936  1.00  0.00     0.252 C 
HETATM   20  O   UNL     1      40.886 -16.699   3.931  1.00  0.00    -0.268 OA
HETATM   21  H   UNL     1      42.194 -16.321   1.085  1.00  0.00     0.163 HD
BRANCH  19  22
HETATM   22  C   UNL     1      42.525 -18.022   2.880  1.00  0.00     0.039 A 
HETATM   23  C   UNL     1      43.251 -18.402   3.998  1.00  0.00     0.066 A 
HETATM   24  S   UNL     1      44.294 -19.726   3.715  1.00  0.00    -0.113 SA
HETATM   25  C   UNL     1      43.786 -19.842   2.090  1.00  0.00     0.050 A 
HETATM   26  C   UNL     1      42.847 -18.883   1.772  1.00  0.00     0.024 A 
ENDBRANCH  19  22
ENDBRANCH  11  18
BRANCH   5  27
HETATM   27  C   UNL     1      41.018 -11.034   6.101  1.00  0.00     0.276 C 
BRANCH  27  28
HETATM   28  C   UNL     1      41.248 -10.874   7.579  1.00  0.00     0.002 A 
HETATM   29  C   UNL     1      40.179 -10.705   8.468  1.00  0.00     0.073 A 
HETATM   30  C   UNL     1      40.393 -10.529   9.834  1.00  0.00     0.039 A 
HETATM   31  C   UNL     1      41.698 -10.522  10.329  1.00  0.00     0.026 A 
HETATM   32  C   UNL     1      42.772 -10.686   9.459  1.00  0.00     0.034 A 
HETATM   33 CL   UNL     1      44.379 -10.681  10.067  1.00  0.00    -0.084 Cl
HETATM   34  C   UNL     1      42.555 -10.857   8.090  1.00  0.00     0.035 A 
BRANCH  29  35
HETATM   35  O   UNL     1      38.908 -10.741   7.962  1.00  0.00    -0.360 OA
HETATM   36  H   UNL     1      38.973 -10.790   6.986  1.00  0.00     0.217 HD
ENDBRANCH  29  35
ENDBRANCH  27  28
ENDBRANCH   5  27
TORSDOF 6
ENDMDL
MODEL 9
REMARK VINA RESULT:      -7.4      3.651      4.676
REMARK  6 active torsions:
REMARK  status: ('A' for Active; 'I' for Inactive)
REMARK    1  A    between atoms: O_2  and  C_3 
REMARK    2  A    between atoms: N_7  and  C_9 
REMARK    3  A    between atoms: C_9  and  C_10 
REMARK    4  A    between atoms: C_11  and  O_12 
REMARK    5  A    between atoms: C_22  and  N_23 
REMARK       I    between atoms: N_23  and  C_24 
REMARK    6  A    between atoms: C_24  and  C_25 
ROOT
HETATM    1  C   UNL     1      39.924 -14.254   2.372  1.00  0.00     0.161 C 
HETATM    2  C   UNL     1      41.310 -14.271   1.628  1.00  0.00     0.019 C 
HETATM    3  C   UNL     1      42.078 -12.937   1.800  1.00  0.00     0.045 C 
HETATM    4  C   UNL     1      41.459 -11.792   1.005  1.00  0.00     0.236 C 
HETATM    5  N   UNL     1      41.321 -12.171  -0.447  1.00  0.00    -0.067 N 
HETATM    6  H   UNL     1      40.769 -11.412  -0.882  1.00  0.00     0.280 HD
HETATM    7  C   UNL     1      40.525 -13.436  -0.634  1.00  0.00     0.236 C 
HETATM    8  C   UNL     1      41.188 -14.582   0.121  1.00  0.00     0.045 C 
HETATM    9  C   UNL     1      42.024 -15.346   2.424  1.00  0.00    -0.038 A 
HETATM   10  C   UNL     1      41.394 -15.570   3.662  1.00  0.00    -0.026 A 
HETATM   11  C   UNL     1      40.187 -14.679   3.855  1.00  0.00     0.148 C 
HETATM   12  C   UNL     1      43.170 -16.052   2.080  1.00  0.00     0.009 A 
HETATM   13  C   UNL     1      43.676 -16.991   2.980  1.00  0.00     0.001 A 
HETATM   14  C   UNL     1      43.043 -17.217   4.210  1.00  0.00     0.001 A 
HETATM   15  C   UNL     1      41.895 -16.504   4.559  1.00  0.00     0.010 A 
ENDROOT
BRANCH   1  16
HETATM   16  O   UNL     1      38.916 -15.026   1.678  1.00  0.00    -0.387 OA
HETATM   17  C   UNL     1      37.770 -14.351   1.172  1.00  0.00     0.202 C 
ENDBRANCH   1  16
BRANCH  11  18
HETATM   18  N   UNL     1      40.513 -13.675   4.863  1.00  0.00    -0.346 N 
HETATM   19  C   UNL     1      39.814 -12.529   5.155  1.00  0.00     0.252 C 
HETATM   20  O   UNL     1      38.989 -12.036   4.393  1.00  0.00    -0.268 OA
HETATM   21  H   UNL     1      41.205 -13.970   5.535  1.00  0.00     0.163 HD
BRANCH  19  22
HETATM   22  C   UNL     1      40.163 -11.886   6.428  1.00  0.00     0.039 A 
HETATM   23  C   UNL     1      41.361 -11.206   6.583  1.00  0.00     0.066 A 
HETATM   24  S   UNL     1      41.563 -10.528   8.138  1.00  0.00    -0.113 SA
HETATM   25  C   UNL     1      40.040 -11.109   8.643  1.00  0.00     0.050 A 
HETATM   26  C   UNL     1      39.398 -11.812   7.645  1.00  0.00     0.024 A 
ENDBRANCH  19  22
ENDBRANCH  11  18
BRANCH   5  27
HETATM   27  C   UNL     1      42.604 -12.134  -1.249  1.00  0.00     0.276 C 
BRANCH  27  28
HETATM   28  C   UNL     1      42.533 -11.277  -2.484  1.00  0.00     0.002 A 
HETATM   29  C   UNL     1      42.354 -11.844  -3.753  1.00  0.00     0.073 A 
HETATM   30  C   UNL     1      42.316 -11.054  -4.901  1.00  0.00     0.039 A 
HETATM   31  C   UNL     1      42.457  -9.670  -4.787  1.00  0.00     0.026 A 
HETATM   32  C   UNL     1      42.638  -9.091  -3.534  1.00  0.00     0.034 A 
HETATM   33 CL   UNL     1      42.808  -7.387  -3.391  1.00  0.00    -0.084 Cl
HETATM   34  C   UNL     1      42.681  -9.885  -2.386  1.00  0.00     0.035 A 
BRANCH  29  35
HETATM   35  O   UNL     1      42.192 -13.200  -3.837  1.00  0.00    -0.360 OA
HETATM   36  H   UNL     1      42.825 -13.617  -3.217  1.00  0.00     0.217 HD
ENDBRANCH  29  35
ENDBRANCH  27  28
ENDBRANCH   5  27
TORSDOF 6
ENDMDL
MODEL 10
REMARK VINA RESULT:      -7.2      2.699      3.666
REMARK  6 active torsions:
REMARK  status: ('A' for Active; 'I' for Inactive)
REMARK    1  A    between atoms: O_2  and  C_3 
REMARK    2  A    between atoms: N_7  and  C_9 
REMARK    3  A    between atoms: C_9  and  C_10 
REMARK    4  A    between atoms: C_11  and  O_12 
REMARK    5  A    between atoms: C_22  and  N_23 
REMARK       I    between atoms: N_23  and  C_24 
REMARK    6  A    between atoms: C_24  and  C_25 
ROOT
HETATM    1  C   UNL     1      40.389 -15.128   2.141  1.00  0.00     0.161 C 
HETATM    2  C   UNL     1      41.531 -15.203   1.060  1.00  0.00     0.019 C 
HETATM    3  C   UNL     1      42.534 -14.031   1.192  1.00  0.00     0.045 C 
HETATM    4  C   UNL     1      41.947 -12.698   0.742  1.00  0.00     0.236 C 
HETATM    5  N   UNL     1      41.399 -12.806  -0.657  1.00  0.00    -0.067 N 
HETATM    6  H   UNL     1      40.897 -11.918  -0.830  1.00  0.00     0.280 HD
HETATM    7  C   UNL     1      40.377 -13.904  -0.787  1.00  0.00     0.236 C 
HETATM    8  C   UNL     1      40.997 -15.239  -0.388  1.00  0.00     0.045 C 
HETATM    9  C   UNL     1      42.221 -16.481   1.494  1.00  0.00    -0.038 A 
HETATM   10  C   UNL     1      41.880 -16.825   2.816  1.00  0.00    -0.026 A 
HETATM   11  C   UNL     1      40.926 -15.826   3.433  1.00  0.00     0.148 C 
HETATM   12  C   UNL     1      43.111 -17.265   0.772  1.00  0.00     0.009 A 
HETATM   13  C   UNL     1      43.651 -18.401   1.378  1.00  0.00     0.001 A 
HETATM   14  C   UNL     1      43.305 -18.744   2.692  1.00  0.00     0.001 A 
HETATM   15  C   UNL     1      42.415 -17.954   3.421  1.00  0.00     0.010 A 
ENDROOT
BRANCH   1  16
HETATM   16  O   UNL     1      39.126 -15.632   1.645  1.00  0.00    -0.387 OA
HETATM   17  C   UNL     1      38.035 -14.727   1.518  1.00  0.00     0.202 C 
ENDBRANCH   1  16
BRANCH  11  18
HETATM   18  N   UNL     1      41.653 -15.058   4.439  1.00  0.00    -0.346 N 
HETATM   19  C   UNL     1      41.941 -15.434   5.728  1.00  0.00     0.252 C 
HETATM   20  O   UNL     1      41.354 -16.342   6.308  1.00  0.00    -0.268 OA
HETATM   21  H   UNL     1      42.159 -14.267   4.071  1.00  0.00     0.163 HD
BRANCH  19  22
HETATM   22  C   UNL     1      42.970 -14.632   6.402  1.00  0.00     0.039 A 
HETATM   23  C   UNL     1      42.792 -13.274   6.620  1.00  0.00     0.066 A 
HETATM   24  S   UNL     1      44.105 -12.536   7.426  1.00  0.00    -0.113 SA
HETATM   25  C   UNL     1      44.941 -14.020   7.527  1.00  0.00     0.050 A 
HETATM   26  C   UNL     1      44.233 -15.053   6.948  1.00  0.00     0.024 A 
ENDBRANCH  19  22
ENDBRANCH  11  18
BRANCH   5  27
HETATM   27  C   UNL     1      42.437 -12.805  -1.759  1.00  0.00     0.276 C 
BRANCH  27  28
HETATM   28  C   UNL     1      42.478 -11.535  -2.565  1.00  0.00     0.002 A 
HETATM   29  C   UNL     1      43.070 -10.370  -2.058  1.00  0.00     0.073 A 
HETATM   30  C   UNL     1      43.084  -9.186  -2.792  1.00  0.00     0.039 A 
HETATM   31  C   UNL     1      42.499  -9.156  -4.059  1.00  0.00     0.026 A 
HETATM   32  C   UNL     1      41.905 -10.304  -4.577  1.00  0.00     0.034 A 
HETATM   33 CL   UNL     1      41.188 -10.271  -6.138  1.00  0.00    -0.084 Cl
HETATM   34  C   UNL     1      41.888 -11.488  -3.837  1.00  0.00     0.035 A 
BRANCH  29  35
HETATM   35  O   UNL     1      43.659 -10.431  -0.824  1.00  0.00    -0.360 OA
HETATM   36  H   UNL     1      43.668 -11.368  -0.540  1.00  0.00     0.217 HD
ENDBRANCH  29  35
ENDBRANCH  27  28
ENDBRANCH   5  27
TORSDOF 6
ENDMDL
