MODEL 1
REMARK VINA RESULT:      -9.2      0.000      0.000
REMARK  2 active torsions:
REMARK  status: ('A' for Active; 'I' for Inactive)
REMARK    1  A    between atoms: C_7  and  C_8 
REMARK       I    between atoms: C_8  and  N_9 
REMARK    2  A    between atoms: N_9  and  C_10 
ROOT
HETATM    1  C   UNL     1      44.015 -16.032   6.562  1.00  0.00     0.256 C 
HETATM    2  N   UNL     1      44.712 -14.854   6.350  1.00  0.00    -0.323 N 
HETATM    3  O   UNL     1      43.493 -16.385   7.613  1.00  0.00    -0.267 OA
HETATM    4  H   UNL     1      45.036 -14.671   5.411  1.00  0.00     0.169 HD
ENDROOT
BRANCH   1   5
HETATM    5  C   UNL     1      43.869 -16.920   5.367  1.00  0.00     0.033 A 
HETATM    6  C   UNL     1      43.305 -16.367   4.210  1.00  0.00     0.019 A 
HETATM    7  C   UNL     1      43.149 -17.123   3.045  1.00  0.00     0.031 A 
HETATM    8  C   UNL     1      43.576 -18.454   3.078  1.00  0.00     0.043 A 
HETATM    9  C   UNL     1      44.129 -19.048   4.210  1.00  0.00    -0.001 A 
HETATM   10  N   UNL     1      43.546 -19.412   2.092  1.00  0.00    -0.359 N 
HETATM   11  C   UNL     1      44.443 -20.405   3.873  1.00  0.00    -0.027 A 
HETATM   12  C   UNL     1      44.263 -18.269   5.382  1.00  0.00     0.031 A 
HETATM   13  C   UNL     1      45.053 -21.428   4.766  1.00  0.00     0.051 C 
HETATM   14  C   UNL     1      44.065 -20.594   2.553  1.00  0.00     0.012 A 
HETATM   15  C   UNL     1      44.150 -21.798   1.684  1.00  0.00     0.068 C 
HETATM   16  H   UNL     1      43.186 -19.258   1.160  1.00  0.00     0.166 HD
ENDBRANCH   1   5
BRANCH   2  17
HETATM   17  C   UNL     1      44.958 -13.825   7.288  1.00  0.00     0.037 A 
HETATM   18  C   UNL     1      44.047 -13.446   8.280  1.00  0.00     0.061 A 
HETATM   19  C   UNL     1      44.413 -12.409   9.108  1.00  0.00     0.065 A 
HETATM   20  C   UNL     1      45.638 -11.757   8.994  1.00  0.00     0.063 A 
HETATM   21  N   UNL     1      43.710 -11.816  10.153  1.00  0.00    -0.306 N 
HETATM   22  N   UNL     1      45.690 -10.766   9.967  1.00  0.00    -0.307 N 
HETATM   23  C   UNL     1      46.560 -12.105   8.041  1.00  0.00     0.034 A 
HETATM   24  C   UNL     1      44.492 -10.788  10.696  1.00  0.00     0.325 A 
HETATM   25  H   UNL     1      46.438 -10.117  10.143  1.00  0.00     0.170 HD
HETATM   26  O   UNL     1      44.192 -10.052  11.620  1.00  0.00    -0.247 OA
HETATM   27  C   UNL     1      46.206 -13.152   7.179  1.00  0.00     0.032 A 
HETATM   28  H   UNL     1      42.789 -12.059  10.478  1.00  0.00     0.170 HD
ENDBRANCH   2  17
TORSDOF 2
ENDMDL
MODEL 2
REMARK VINA RESULT:      -8.9      5.683      8.812
REMARK  2 active torsions:
REMARK  status: ('A' for Active; 'I' for Inactive)
REMARK    1  A    between atoms: C_7  and  C_8 
REMARK       I    between atoms: C_8  and  N_9 
REMARK    2  A    between atoms: N_9  and  C_10 
ROOT
HETATM    1  C   UNL     1      41.416 -16.370   1.251  1.00  0.00     0.256 C 
HETATM    2  N   UNL     1      42.050 -15.903   0.112  1.00  0.00    -0.323 N 
HETATM    3  O   UNL     1      40.239 -16.194   1.548  1.00  0.00    -0.267 OA
HETATM    4  H   UNL     1      43.012 -16.178  -0.028  1.00  0.00     0.169 HD
ENDROOT
BRANCH   1   5
HETATM    5  C   UNL     1      42.261 -17.195   2.169  1.00  0.00     0.033 A 
HETATM    6  C   UNL     1      42.688 -16.606   3.366  1.00  0.00     0.019 A 
HETATM    7  C   UNL     1      43.466 -17.312   4.287  1.00  0.00     0.031 A 
HETATM    8  C   UNL     1      43.803 -18.632   3.968  1.00  0.00     0.043 A 
HETATM    9  C   UNL     1      43.412 -19.252   2.784  1.00  0.00    -0.001 A 
HETATM   10  N   UNL     1      44.544 -19.546   4.679  1.00  0.00    -0.359 N 
HETATM   11  C   UNL     1      43.937 -20.585   2.804  1.00  0.00    -0.027 A 
HETATM   12  C   UNL     1      42.639 -18.513   1.860  1.00  0.00     0.031 A 
HETATM   13  C   UNL     1      43.775 -21.624   1.751  1.00  0.00     0.051 C 
HETATM   14  C   UNL     1      44.635 -20.730   3.993  1.00  0.00     0.012 A 
HETATM   15  C   UNL     1      45.383 -21.891   4.542  1.00  0.00     0.068 C 
HETATM   16  H   UNL     1      44.963 -19.361   5.580  1.00  0.00     0.166 HD
ENDBRANCH   1   5
BRANCH   2  17
HETATM   17  C   UNL     1      41.480 -15.142  -0.934  1.00  0.00     0.037 A 
HETATM   18  C   UNL     1      41.367 -13.747  -0.905  1.00  0.00     0.061 A 
HETATM   19  C   UNL     1      40.765 -13.142  -1.985  1.00  0.00     0.065 A 
HETATM   20  C   UNL     1      40.292 -13.861  -3.079  1.00  0.00     0.063 A 
HETATM   21  N   UNL     1      40.503 -11.794  -2.215  1.00  0.00    -0.306 N 
HETATM   22  N   UNL     1      39.742 -12.960  -3.982  1.00  0.00    -0.307 N 
HETATM   23  C   UNL     1      40.392 -15.227  -3.148  1.00  0.00     0.034 A 
HETATM   24  C   UNL     1      39.863 -11.665  -3.455  1.00  0.00     0.325 A 
HETATM   25  H   UNL     1      39.312 -13.163  -4.868  1.00  0.00     0.170 HD
HETATM   26  O   UNL     1      39.481 -10.631  -3.976  1.00  0.00    -0.247 OA
HETATM   27  C   UNL     1      40.992 -15.868  -2.055  1.00  0.00     0.032 A 
HETATM   28  H   UNL     1      40.719 -11.022  -1.606  1.00  0.00     0.170 HD
ENDBRANCH   2  17
TORSDOF 2
ENDMDL
MODEL 3
REMARK VINA RESULT:      -8.9      5.306      8.134
REMARK  2 active torsions:
REMARK  status: ('A' for Active; 'I' for Inactive)
REMARK    1  A    between atoms: C_7  and  C_8 
REMARK       I    between atoms: C_8  and  N_9 
REMARK    2  A    between atoms: N_9  and  C_10 
ROOT
HETATM    1  C   UNL     1      42.579 -16.067   2.470  1.00  0.00     0.256 C 
HETATM    2  N   UNL     1      41.420 -16.387   1.782  1.00  0.00    -0.323 N 
HETATM    3  O   UNL     1      43.139 -14.977   2.475  1.00  0.00    -0.267 OA
HETATM    4  H   UNL     1      41.041 -17.314   1.921  1.00  0.00     0.169 HD
ENDROOT
BRANCH   1   5
HETATM    5  C   UNL     1      43.158 -17.163   3.306  1.00  0.00     0.033 A 
HETATM    6  C   UNL     1      43.397 -16.893   4.659  1.00  0.00     0.019 A 
HETATM    7  C   UNL     1      43.920 -17.867   5.514  1.00  0.00     0.031 A 
HETATM    8  C   UNL     1      44.198 -19.123   4.967  1.00  0.00     0.043 A 
HETATM    9  C   UNL     1      43.991 -19.431   3.624  1.00  0.00    -0.001 A 
HETATM   10  N   UNL     1      44.708 -20.250   5.566  1.00  0.00    -0.359 N 
HETATM   11  C   UNL     1      44.386 -20.794   3.430  1.00  0.00    -0.027 A 
HETATM   12  C   UNL     1      43.475 -18.426   2.775  1.00  0.00     0.031 A 
HETATM   13  C   UNL     1      44.341 -21.564   2.157  1.00  0.00     0.051 C 
HETATM   14  C   UNL     1      44.828 -21.268   4.655  1.00  0.00     0.012 A 
HETATM   15  C   UNL     1      45.355 -22.603   5.045  1.00  0.00     0.068 C 
HETATM   16  H   UNL     1      44.961 -20.310   6.543  1.00  0.00     0.166 HD
ENDBRANCH   1   5
BRANCH   2  17
HETATM   17  C   UNL     1      40.650 -15.534   0.959  1.00  0.00     0.037 A 
HETATM   18  C   UNL     1      40.998 -15.205  -0.357  1.00  0.00     0.061 A 
HETATM   19  C   UNL     1      40.164 -14.340  -1.030  1.00  0.00     0.065 A 
HETATM   20  C   UNL     1      39.011 -13.812  -0.456  1.00  0.00     0.063 A 
HETATM   21  N   UNL     1      40.270 -13.830  -2.320  1.00  0.00    -0.306 N 
HETATM   22  N   UNL     1      38.407 -12.981  -1.390  1.00  0.00    -0.307 N 
HETATM   23  C   UNL     1      38.633 -14.118   0.826  1.00  0.00     0.034 A 
HETATM   24  C   UNL     1      39.183 -12.978  -2.559  1.00  0.00     0.325 A 
HETATM   25  H   UNL     1      37.562 -12.446  -1.281  1.00  0.00     0.170 HD
HETATM   26  O   UNL     1      38.955 -12.353  -3.580  1.00  0.00    -0.247 OA
HETATM   27  C   UNL     1      39.471 -14.989   1.537  1.00  0.00     0.032 A 
HETATM   28  H   UNL     1      41.000 -14.018  -2.988  1.00  0.00     0.170 HD
ENDBRANCH   2  17
TORSDOF 2
ENDMDL
MODEL 4
REMARK VINA RESULT:      -8.6      3.768      4.484
REMARK  2 active torsions:
REMARK  status: ('A' for Active; 'I' for Inactive)
REMARK    1  A    between atoms: C_7  and  C_8 
REMARK       I    between atoms: C_8  and  N_9 
REMARK    2  A    between atoms: N_9  and  C_10 
ROOT
HETATM    1  C   UNL     1      43.231 -15.383   5.839  1.00  0.00     0.256 C 
HETATM    2  N   UNL     1      42.187 -14.904   5.065  1.00  0.00    -0.323 N 
HETATM    3  O   UNL     1      43.759 -14.803   6.781  1.00  0.00    -0.267 OA
HETATM    4  H   UNL     1      41.814 -15.522   4.358  1.00  0.00     0.169 HD
ENDROOT
BRANCH   1   5
HETATM    5  C   UNL     1      43.715 -16.756   5.493  1.00  0.00     0.033 A 
HETATM    6  C   UNL     1      44.486 -17.433   6.447  1.00  0.00     0.019 A 
HETATM    7  C   UNL     1      44.963 -18.725   6.211  1.00  0.00     0.031 A 
HETATM    8  C   UNL     1      44.642 -19.317   4.985  1.00  0.00     0.043 A 
HETATM    9  C   UNL     1      43.891 -18.675   4.004  1.00  0.00    -0.001 A 
HETATM   10  N   UNL     1      44.972 -20.559   4.495  1.00  0.00    -0.359 N 
HETATM   11  C   UNL     1      43.768 -19.578   2.898  1.00  0.00    -0.027 A 
HETATM   12  C   UNL     1      43.432 -17.363   4.258  1.00  0.00     0.031 A 
HETATM   13  C   UNL     1      43.048 -19.330   1.619  1.00  0.00     0.051 C 
HETATM   14  C   UNL     1      44.452 -20.734   3.239  1.00  0.00     0.012 A 
HETATM   15  C   UNL     1      44.661 -21.996   2.480  1.00  0.00     0.068 C 
HETATM   16  H   UNL     1      45.523 -21.240   4.998  1.00  0.00     0.166 HD
ENDBRANCH   1   5
BRANCH   2  17
HETATM   17  C   UNL     1      41.518 -13.666   5.202  1.00  0.00     0.037 A 
HETATM   18  C   UNL     1      42.007 -12.460   4.688  1.00  0.00     0.061 A 
HETATM   19  C   UNL     1      41.260 -11.328   4.921  1.00  0.00     0.065 A 
HETATM   20  C   UNL     1      40.059 -11.355   5.624  1.00  0.00     0.063 A 
HETATM   21  N   UNL     1      41.508 -10.009   4.551  1.00  0.00    -0.306 N 
HETATM   22  N   UNL     1      39.566 -10.057   5.685  1.00  0.00    -0.307 N 
HETATM   23  C   UNL     1      39.543 -12.518   6.135  1.00  0.00     0.034 A 
HETATM   24  C   UNL     1      40.462  -9.204   5.023  1.00  0.00     0.325 A 
HETATM   25  H   UNL     1      38.721  -9.741   6.129  1.00  0.00     0.170 HD
HETATM   26  O   UNL     1      40.351  -7.998   4.889  1.00  0.00    -0.247 OA
HETATM   27  C   UNL     1      40.291 -13.683   5.920  1.00  0.00     0.032 A 
HETATM   28  H   UNL     1      42.302  -9.662   4.038  1.00  0.00     0.170 HD
ENDBRANCH   2  17
TORSDOF 2
ENDMDL
MODEL 5
REMARK VINA RESULT:      -8.5      5.057      5.925
REMARK  2 active torsions:
REMARK  status: ('A' for Active; 'I' for Inactive)
REMARK    1  A    between atoms: C_7  and  C_8 
REMARK       I    between atoms: C_8  and  N_9 
REMARK    2  A    between atoms: N_9  and  C_10 
ROOT
HETATM    1  C   UNL     1      42.522 -15.660   2.930  1.00  0.00     0.256 C 
HETATM    2  N   UNL     1      41.140 -15.587   2.983  1.00  0.00    -0.323 N 
HETATM    3  O   UNL     1      43.293 -14.710   2.860  1.00  0.00    -0.267 OA
HETATM    4  H   UNL     1      40.635 -16.455   3.100  1.00  0.00     0.169 HD
ENDROOT
BRANCH   1   5
HETATM    5  C   UNL     1      43.101 -17.037   3.005  1.00  0.00     0.033 A 
HETATM    6  C   UNL     1      43.490 -17.645   1.806  1.00  0.00     0.019 A 
HETATM    7  C   UNL     1      44.055 -18.923   1.789  1.00  0.00     0.031 A 
HETATM    8  C   UNL     1      44.217 -19.574   3.016  1.00  0.00     0.043 A 
HETATM    9  C   UNL     1      43.830 -19.012   4.231  1.00  0.00    -0.001 A 
HETATM   10  N   UNL     1      44.738 -20.815   3.292  1.00  0.00    -0.359 N 
HETATM   11  C   UNL     1      44.145 -19.957   5.261  1.00  0.00    -0.027 A 
HETATM   12  C   UNL     1      43.247 -17.724   4.223  1.00  0.00     0.031 A 
HETATM   13  C   UNL     1      43.915 -19.794   6.722  1.00  0.00     0.051 C 
HETATM   14  C   UNL     1      44.704 -21.063   4.640  1.00  0.00     0.012 A 
HETATM   15  C   UNL     1      45.211 -22.340   5.209  1.00  0.00     0.068 C 
HETATM   16  H   UNL     1      45.092 -21.452   2.592  1.00  0.00     0.166 HD
ENDBRANCH   1   5
BRANCH   2  17
HETATM   17  C   UNL     1      40.343 -14.420   2.972  1.00  0.00     0.037 A 
HETATM   18  C   UNL     1      40.264 -13.525   4.046  1.00  0.00     0.061 A 
HETATM   19  C   UNL     1      39.425 -12.443   3.902  1.00  0.00     0.065 A 
HETATM   20  C   UNL     1      38.686 -12.217   2.745  1.00  0.00     0.063 A 
HETATM   21  N   UNL     1      39.138 -11.418   4.799  1.00  0.00    -0.306 N 
HETATM   22  N   UNL     1      37.947 -11.055   2.926  1.00  0.00    -0.307 N 
HETATM   23  C   UNL     1      38.743 -13.065   1.670  1.00  0.00     0.034 A 
HETATM   24  C   UNL     1      38.215 -10.546   4.206  1.00  0.00     0.325 A 
HETATM   25  H   UNL     1      37.308 -10.625   2.278  1.00  0.00     0.170 HD
HETATM   26  O   UNL     1      37.734  -9.542   4.703  1.00  0.00    -0.247 OA
HETATM   27  C   UNL     1      39.582 -14.181   1.795  1.00  0.00     0.032 A 
HETATM   28  H   UNL     1      39.510 -11.303   5.727  1.00  0.00     0.170 HD
ENDBRANCH   2  17
TORSDOF 2
ENDMDL
MODEL 6
REMARK VINA RESULT:      -8.5      5.744      9.246
REMARK  2 active torsions:
REMARK  status: ('A' for Active; 'I' for Inactive)
REMARK    1  A    between atoms: C_7  and  C_8 
REMARK       I    between atoms: C_8  and  N_9 
REMARK    2  A    between atoms: N_9  and  C_10 
ROOT
HETATM    1  C   UNL     1      41.692 -16.161   0.492  1.00  0.00     0.256 C 
HETATM    2  N   UNL     1      42.968 -16.618   0.780  1.00  0.00    -0.323 N 
HETATM    3  O   UNL     1      40.678 -16.390   1.141  1.00  0.00    -0.267 OA
HETATM    4  H   UNL     1      43.719 -16.298   0.185  1.00  0.00     0.169 HD
ENDROOT
BRANCH   1   5
HETATM    5  C   UNL     1      41.578 -15.277  -0.710  1.00  0.00     0.033 A 
HETATM    6  C   UNL     1      40.912 -15.786  -1.831  1.00  0.00     0.019 A 
HETATM    7  C   UNL     1      40.747 -15.020  -2.988  1.00  0.00     0.031 A 
HETATM    8  C   UNL     1      41.273 -13.725  -2.985  1.00  0.00     0.043 A 
HETATM    9  C   UNL     1      41.955 -13.184  -1.898  1.00  0.00    -0.001 A 
HETATM   10  N   UNL     1      41.255 -12.765  -3.969  1.00  0.00    -0.359 N 
HETATM   11  C   UNL     1      42.345 -11.852  -2.254  1.00  0.00    -0.027 A 
HETATM   12  C   UNL     1      42.124 -13.982  -0.743  1.00  0.00     0.031 A 
HETATM   13  C   UNL     1      43.096 -10.885  -1.408  1.00  0.00     0.051 C 
HETATM   14  C   UNL     1      41.896 -11.629  -3.546  1.00  0.00     0.012 A 
HETATM   15  C   UNL     1      42.018 -10.434  -4.422  1.00  0.00     0.068 C 
HETATM   16  H   UNL     1      40.829 -12.890  -4.877  1.00  0.00     0.166 HD
ENDBRANCH   1   5
BRANCH   2  17
HETATM   17  C   UNL     1      43.360 -17.428   1.870  1.00  0.00     0.037 A 
HETATM   18  C   UNL     1      43.785 -18.755   1.737  1.00  0.00     0.061 A 
HETATM   19  C   UNL     1      44.113 -19.429   2.892  1.00  0.00     0.065 A 
HETATM   20  C   UNL     1      44.046 -18.837   4.149  1.00  0.00     0.063 A 
HETATM   21  N   UNL     1      44.541 -20.743   3.061  1.00  0.00    -0.306 N 
HETATM   22  N   UNL     1      44.434 -19.781   5.091  1.00  0.00    -0.307 N 
HETATM   23  C   UNL     1      43.643 -17.537   4.319  1.00  0.00     0.034 A 
HETATM   24  C   UNL     1      44.742 -20.978   4.428  1.00  0.00     0.325 A 
HETATM   25  H   UNL     1      44.487 -19.668   6.090  1.00  0.00     0.170 HD
HETATM   26  O   UNL     1      45.110 -22.019   4.944  1.00  0.00    -0.247 OA
HETATM   27  C   UNL     1      43.295 -16.832   3.159  1.00  0.00     0.032 A 
HETATM   28  H   UNL     1      44.681 -21.432   2.341  1.00  0.00     0.170 HD
ENDBRANCH   2  17
TORSDOF 2
ENDMDL
MODEL 7
REMARK VINA RESULT:      -8.4      5.359      6.933
REMARK  2 active torsions:
REMARK  status: ('A' for Active; 'I' for Inactive)
REMARK    1  A    between atoms: C_7  and  C_8 
REMARK       I    between atoms: C_8  and  N_9 
REMARK    2  A    between atoms: N_9  and  C_10 
ROOT
HETATM    1  C   UNL     1      41.815 -16.129   2.725  1.00  0.00     0.256 C 
HETATM    2  N   UNL     1      40.583 -15.720   3.209  1.00  0.00    -0.323 N 
HETATM    3  O   UNL     1      42.385 -15.686   1.735  1.00  0.00    -0.267 OA
HETATM    4  H   UNL     1      40.265 -16.137   4.073  1.00  0.00     0.169 HD
ENDROOT
BRANCH   1   5
HETATM    5  C   UNL     1      42.507 -17.185   3.526  1.00  0.00     0.033 A 
HETATM    6  C   UNL     1      42.655 -16.965   4.902  1.00  0.00     0.019 A 
HETATM    7  C   UNL     1      43.275 -17.908   5.726  1.00  0.00     0.031 A 
HETATM    8  C   UNL     1      43.742 -19.082   5.126  1.00  0.00     0.043 A 
HETATM    9  C   UNL     1      43.627 -19.335   3.761  1.00  0.00    -0.001 A 
HETATM   10  N   UNL     1      44.378 -20.164   5.686  1.00  0.00    -0.359 N 
HETATM   11  C   UNL     1      44.212 -20.620   3.512  1.00  0.00    -0.027 A 
HETATM   12  C   UNL     1      43.011 -18.361   2.944  1.00  0.00     0.031 A 
HETATM   13  C   UNL     1      44.319 -21.313   2.199  1.00  0.00     0.051 C 
HETATM   14  C   UNL     1      44.668 -21.102   4.729  1.00  0.00     0.012 A 
HETATM   15  C   UNL     1      45.357 -22.374   5.070  1.00  0.00     0.068 C 
HETATM   16  H   UNL     1      44.599 -20.247   6.669  1.00  0.00     0.166 HD
ENDBRANCH   1   5
BRANCH   2  17
HETATM   17  C   UNL     1      39.742 -14.718   2.674  1.00  0.00     0.037 A 
HETATM   18  C   UNL     1      39.723 -13.396   3.133  1.00  0.00     0.061 A 
HETATM   19  C   UNL     1      38.833 -12.534   2.532  1.00  0.00     0.065 A 
HETATM   20  C   UNL     1      37.986 -12.932   1.501  1.00  0.00     0.063 A 
HETATM   21  N   UNL     1      38.585 -11.190   2.793  1.00  0.00    -0.306 N 
HETATM   22  N   UNL     1      37.220 -11.835   1.126  1.00  0.00    -0.307 N 
HETATM   23  C   UNL     1      37.982 -14.215   1.019  1.00  0.00     0.034 A 
HETATM   24  C   UNL     1      37.579 -10.741   1.926  1.00  0.00     0.325 A 
HETATM   25  H   UNL     1      36.510 -11.796   0.414  1.00  0.00     0.170 HD
HETATM   26  O   UNL     1      37.105  -9.619   1.877  1.00  0.00    -0.247 OA
HETATM   27  C   UNL     1      38.873 -15.115   1.621  1.00  0.00     0.032 A 
HETATM   28  H   UNL     1      39.032 -10.615   3.488  1.00  0.00     0.170 HD
ENDBRANCH   2  17
TORSDOF 2
ENDMDL
MODEL 8
REMARK VINA RESULT:      -8.3      5.580      6.927
REMARK  2 active torsions:
REMARK  status: ('A' for Active; 'I' for Inactive)
REMARK    1  A    between atoms: C_7  and  C_8 
REMARK       I    between atoms: C_8  and  N_9 
REMARK    2  A    between atoms: N_9  and  C_10 
ROOT
HETATM    1  C   UNL     1      42.629 -16.357   1.661  1.00  0.00     0.256 C 
HETATM    2  N   UNL     1      42.151 -15.183   2.218  1.00  0.00    -0.323 N 
HETATM    3  O   UNL     1      42.672 -16.625   0.466  1.00  0.00    -0.267 OA
HETATM    4  H   UNL     1      42.235 -15.079   3.220  1.00  0.00     0.169 HD
ENDROOT
BRANCH   1   5
HETATM    5  C   UNL     1      43.174 -17.357   2.630  1.00  0.00     0.033 A 
HETATM    6  C   UNL     1      43.345 -16.950   3.959  1.00  0.00     0.019 A 
HETATM    7  C   UNL     1      43.833 -17.827   4.931  1.00  0.00     0.031 A 
HETATM    8  C   UNL     1      44.145 -19.129   4.527  1.00  0.00     0.043 A 
HETATM    9  C   UNL     1      44.004 -19.572   3.214  1.00  0.00    -0.001 A 
HETATM   10  N   UNL     1      44.632 -20.185   5.261  1.00  0.00    -0.359 N 
HETATM   11  C   UNL     1      44.416 -20.944   3.177  1.00  0.00    -0.027 A 
HETATM   12  C   UNL     1      43.524 -18.663   2.244  1.00  0.00     0.031 A 
HETATM   13  C   UNL     1      44.437 -21.837   1.988  1.00  0.00     0.051 C 
HETATM   14  C   UNL     1      44.801 -21.288   4.464  1.00  0.00     0.012 A 
HETATM   15  C   UNL     1      45.317 -22.570   5.010  1.00  0.00     0.068 C 
HETATM   16  H   UNL     1      44.837 -20.143   6.249  1.00  0.00     0.166 HD
ENDBRANCH   1   5
BRANCH   2  17
HETATM   17  C   UNL     1      41.623 -14.063   1.535  1.00  0.00     0.037 A 
HETATM   18  C   UNL     1      42.232 -12.803   1.527  1.00  0.00     0.061 A 
HETATM   19  C   UNL     1      41.589 -11.799   0.838  1.00  0.00     0.065 A 
HETATM   20  C   UNL     1      40.391 -12.004   0.159  1.00  0.00     0.063 A 
HETATM   21  N   UNL     1      41.946 -10.463   0.678  1.00  0.00    -0.306 N 
HETATM   22  N   UNL     1      40.012 -10.800  -0.420  1.00  0.00    -0.307 N 
HETATM   23  C   UNL     1      39.770 -13.226   0.137  1.00  0.00     0.034 A 
HETATM   24  C   UNL     1      40.970  -9.826  -0.101  1.00  0.00     0.325 A 
HETATM   25  H   UNL     1      39.191 -10.614  -0.971  1.00  0.00     0.170 HD
HETATM   26  O   UNL     1      40.953  -8.654  -0.436  1.00  0.00    -0.247 OA
HETATM   27  C   UNL     1      40.399 -14.263   0.839  1.00  0.00     0.032 A 
HETATM   28  H   UNL     1      42.758 -10.003   1.056  1.00  0.00     0.170 HD
ENDBRANCH   2  17
TORSDOF 2
ENDMDL
MODEL 9
REMARK VINA RESULT:      -8.2      6.011      9.127
REMARK  2 active torsions:
REMARK  status: ('A' for Active; 'I' for Inactive)
REMARK    1  A    between atoms: C_7  and  C_8 
REMARK       I    between atoms: C_8  and  N_9 
REMARK    2  A    between atoms: N_9  and  C_10 
ROOT
HETATM    1  C   UNL     1      41.217 -15.962   0.975  1.00  0.00     0.256 C 
HETATM    2  N   UNL     1      41.867 -15.629  -0.202  1.00  0.00    -0.323 N 
HETATM    3  O   UNL     1      40.104 -15.582   1.318  1.00  0.00    -0.267 OA
HETATM    4  H   UNL     1      42.761 -16.067  -0.377  1.00  0.00     0.169 HD
ENDROOT
BRANCH   1   5
HETATM    5  C   UNL     1      41.952 -16.904   1.875  1.00  0.00     0.033 A 
HETATM    6  C   UNL     1      42.850 -17.802   1.283  1.00  0.00     0.019 A 
HETATM    7  C   UNL     1      43.589 -18.704   2.053  1.00  0.00     0.031 A 
HETATM    8  C   UNL     1      43.398 -18.679   3.438  1.00  0.00     0.043 A 
HETATM    9  C   UNL     1      42.505 -17.814   4.066  1.00  0.00    -0.001 A 
HETATM   10  N   UNL     1      43.983 -19.440   4.421  1.00  0.00    -0.359 N 
HETATM   11  C   UNL     1      42.575 -18.071   5.474  1.00  0.00    -0.027 A 
HETATM   12  C   UNL     1      41.757 -16.920   3.267  1.00  0.00     0.031 A 
HETATM   13  C   UNL     1      41.802 -17.388   6.546  1.00  0.00     0.051 C 
HETATM   14  C   UNL     1      43.501 -19.088   5.655  1.00  0.00     0.012 A 
HETATM   15  C   UNL     1      43.972 -19.759   6.895  1.00  0.00     0.068 C 
HETATM   16  H   UNL     1      44.671 -20.160   4.249  1.00  0.00     0.166 HD
ENDBRANCH   1   5
BRANCH   2  17
HETATM   17  C   UNL     1      41.386 -14.798  -1.240  1.00  0.00     0.037 A 
HETATM   18  C   UNL     1      41.508 -13.404  -1.236  1.00  0.00     0.061 A 
HETATM   19  C   UNL     1      40.968 -12.722  -2.303  1.00  0.00     0.065 A 
HETATM   20  C   UNL     1      40.335 -13.368  -3.362  1.00  0.00     0.063 A 
HETATM   21  N   UNL     1      40.924 -11.353  -2.551  1.00  0.00    -0.306 N 
HETATM   22  N   UNL     1      39.904 -12.401  -4.261  1.00  0.00    -0.307 N 
HETATM   23  C   UNL     1      40.205 -14.733  -3.405  1.00  0.00     0.034 A 
HETATM   24  C   UNL     1      40.261 -11.137  -3.767  1.00  0.00     0.325 A 
HETATM   25  H   UNL     1      39.408 -12.543  -5.124  1.00  0.00     0.170 HD
HETATM   26  O   UNL     1      40.033 -10.062  -4.294  1.00  0.00    -0.247 OA
HETATM   27  C   UNL     1      40.737 -15.449  -2.325  1.00  0.00     0.032 A 
HETATM   28  H   UNL     1      41.290 -10.620  -1.968  1.00  0.00     0.170 HD
ENDBRANCH   2  17
TORSDOF 2
ENDMDL
MODEL 10
REMARK VINA RESULT:      -8.2      3.730      3.894
REMARK  2 active torsions:
REMARK  status: ('A' for Active; 'I' for Inactive)
REMARK    1  A    between atoms: C_7  and  C_8 
REMARK       I    between atoms: C_8  and  N_9 
REMARK    2  A    between atoms: N_9  and  C_10 
ROOT
HETATM    1  C   UNL     1      42.970 -15.177   4.376  1.00  0.00     0.256 C 
HETATM    2  N   UNL     1      41.757 -14.538   4.182  1.00  0.00    -0.323 N 
HETATM    3  O   UNL     1      43.859 -14.826   5.144  1.00  0.00    -0.267 OA
HETATM    4  H   UNL     1      41.096 -14.979   3.558  1.00  0.00     0.169 HD
ENDROOT
BRANCH   1   5
HETATM    5  C   UNL     1      43.171 -16.434   3.591  1.00  0.00     0.033 A 
HETATM    6  C   UNL     1      42.874 -16.401   2.223  1.00  0.00     0.019 A 
HETATM    7  C   UNL     1      43.049 -17.526   1.413  1.00  0.00     0.031 A 
HETATM    8  C   UNL     1      43.534 -18.689   2.020  1.00  0.00     0.043 A 
HETATM    9  C   UNL     1      43.829 -18.770   3.379  1.00  0.00    -0.001 A 
HETATM   10  N   UNL     1      43.800 -19.922   1.473  1.00  0.00    -0.359 N 
HETATM   11  C   UNL     1      44.294 -20.100   3.638  1.00  0.00    -0.027 A 
HETATM   12  C   UNL     1      43.629 -17.625   4.182  1.00  0.00     0.031 A 
HETATM   13  C   UNL     1      44.729 -20.654   4.949  1.00  0.00     0.051 C 
HETATM   14  C   UNL     1      44.260 -20.785   2.434  1.00  0.00     0.012 A 
HETATM   15  C   UNL     1      44.625 -22.189   2.107  1.00  0.00     0.068 C 
HETATM   16  H   UNL     1      43.669 -20.151   0.498  1.00  0.00     0.166 HD
ENDBRANCH   1   5
BRANCH   2  17
HETATM   17  C   UNL     1      41.296 -13.365   4.822  1.00  0.00     0.037 A 
HETATM   18  C   UNL     1      40.576 -13.369   6.023  1.00  0.00     0.061 A 
HETATM   19  C   UNL     1      40.169 -12.150   6.516  1.00  0.00     0.065 A 
HETATM   20  C   UNL     1      40.459 -10.948   5.876  1.00  0.00     0.063 A 
HETATM   21  N   UNL     1      39.434 -11.857   7.661  1.00  0.00    -0.306 N 
HETATM   22  N   UNL     1      39.906  -9.917   6.625  1.00  0.00    -0.307 N 
HETATM   23  C   UNL     1      41.169 -10.903   4.704  1.00  0.00     0.034 A 
HETATM   24  C   UNL     1      39.259 -10.468   7.741  1.00  0.00     0.325 A 
HETATM   25  H   UNL     1      39.934  -8.931   6.428  1.00  0.00     0.170 HD
HETATM   26  O   UNL     1      38.659  -9.856   8.608  1.00  0.00    -0.247 OA
HETATM   27  C   UNL     1      41.586 -12.132   4.175  1.00  0.00     0.032 A 
HETATM   28  H   UNL     1      39.069 -12.513   8.331  1.00  0.00     0.170 HD
ENDBRANCH   2  17
TORSDOF 2
ENDMDL
