MODEL 1
REMARK VINA RESULT:      -9.1      0.000      0.000
REMARK  7 active torsions:
REMARK  status: ('A' for Active; 'I' for Inactive)
REMARK    1  A    between atoms: C_2  and  C_3 
REMARK    2  A    between atoms: N_21  and  N_23 
REMARK       I    between atoms: N_23  and  C_24 
REMARK    3  A    between atoms: C_24  and  C_25 
REMARK    4  A    between atoms: C_25  and  N_26 
REMARK    5  A    between atoms: C_25  and  C_34 
REMARK       I    between atoms: N_26  and  C_27 
REMARK    6  A    between atoms: C_27  and  O_28 
REMARK    7  A    between atoms: O_28  and  C_29 
ROOT
HETATM    1  C   UNL     1      39.522 -13.469  -0.415  1.00  0.00    -0.041 C 
HETATM    2  C   UNL     1      39.635 -13.051   0.990  1.00  0.00     0.005 C 
HETATM    3  C   UNL     1      40.821 -13.341   1.669  1.00  0.00     0.091 C 
HETATM    4  C   UNL     1      41.209 -12.595   2.781  1.00  0.00     0.075 C 
HETATM    5  C   UNL     1      40.340 -11.615   3.257  1.00  0.00     0.079 C 
HETATM    6  C   UNL     1      39.023 -11.554   2.798  1.00  0.00    -0.024 C 
HETATM    7  C   UNL     1      38.007 -10.670   3.472  1.00  0.00     0.044 C 
HETATM    8  C   UNL     1      38.639  -9.854   4.595  1.00  0.00     0.043 C 
HETATM    9  C   UNL     1      40.078  -9.457   4.219  1.00  0.00     0.068 C 
HETATM   10  C   UNL     1      40.116  -8.618   2.907  1.00  0.00     0.038 C 
HETATM   11  C   UNL     1      41.510  -8.107   2.564  1.00  0.00     0.003 C 
HETATM   12  C   UNL     1      42.076  -7.276   3.705  1.00  0.00     0.000 C 
HETATM   13  C   UNL     1      42.084  -8.068   5.008  1.00  0.00     0.003 C 
HETATM   14  C   UNL     1      40.697  -8.618   5.358  1.00  0.00     0.038 C 
HETATM   15  O   UNL     1      40.857 -10.681   4.119  1.00  0.00    -0.340 OA
HETATM   16  C   UNL     1      38.689 -12.244   1.628  1.00  0.00     0.024 C 
HETATM   17  O   UNL     1      41.672 -14.382   1.235  1.00  0.00    -0.292 OA
HETATM   18  C   UNL     1      41.404 -14.946   0.012  1.00  0.00     0.163 C 
HETATM   19  N   UNL     1      42.098 -15.976  -0.302  1.00  0.00    -0.277 N 
HETATM   20  H   UNL     1      42.020 -16.334  -1.266  1.00  0.00     0.189 HD
HETATM   21  C   UNL     1      40.416 -14.350  -0.886  1.00  0.00     0.065 C 
ENDROOT
BRANCH  19  22
HETATM   22  N   UNL     1      42.831 -16.782   0.587  1.00  0.00    -0.266 N 
HETATM   23  C   UNL     1      42.034 -17.615   1.358  1.00  0.00     0.263 C 
HETATM   24  O   UNL     1      40.881 -17.859   0.977  1.00  0.00    -0.269 OA
HETATM   25  H   UNL     1      43.744 -16.445   0.889  1.00  0.00     0.190 HD
BRANCH  23  26
HETATM   26  C   UNL     1      42.528 -17.991   2.770  1.00  0.00     0.214 C 
BRANCH  26  27
HETATM   27  N   UNL     1      43.144 -16.835   3.406  1.00  0.00    -0.319 N 
HETATM   28  C   UNL     1      42.462 -15.875   4.083  1.00  0.00     0.362 C 
HETATM   29  O   UNL     1      41.262 -15.929   4.316  1.00  0.00    -0.238 OA
HETATM   30  H   UNL     1      44.110 -16.613   3.198  1.00  0.00     0.166 HD
BRANCH  28  31
HETATM   31  O   UNL     1      43.317 -14.902   4.447  1.00  0.00    -0.294 OA
BRANCH  31  32
HETATM   32  C   UNL     1      43.468 -14.501   5.836  1.00  0.00     0.061 C 
HETATM   33  C   UNL     1      43.276 -15.693   6.780  1.00  0.00     0.046 C 
HETATM   34  C   UNL     1      44.920 -14.013   5.951  1.00  0.00     0.046 C 
HETATM   35  C   UNL     1      42.527 -13.342   6.179  1.00  0.00     0.046 C 
ENDBRANCH  31  32
ENDBRANCH  28  31
ENDBRANCH  26  27
BRANCH  26  36
HETATM   36  C   UNL     1      43.321 -19.277   2.872  1.00  0.00    -0.026 A 
HETATM   37  C   UNL     1      43.170 -20.240   1.856  1.00  0.00     0.010 A 
HETATM   38  C   UNL     1      43.854 -21.455   1.914  1.00  0.00     0.001 A 
HETATM   39  C   UNL     1      44.704 -21.725   2.982  1.00  0.00     0.000 A 
HETATM   40  C   UNL     1      44.874 -20.780   3.989  1.00  0.00     0.001 A 
HETATM   41  C   UNL     1      44.191 -19.562   3.935  1.00  0.00     0.010 A 
ENDBRANCH  26  36
ENDBRANCH  23  26
ENDBRANCH  19  22
BRANCH   1  42
HETATM   42  C   UNL     1      38.571 -12.749  -1.346  1.00  0.00     0.035 C 
HETATM   43  C   UNL     1      37.956 -13.654  -2.400  1.00  0.00     0.010 C 
ENDBRANCH   1  42
TORSDOF 7
ENDMDL
MODEL 2
REMARK VINA RESULT:      -9.0      4.541      8.977
REMARK  7 active torsions:
REMARK  status: ('A' for Active; 'I' for Inactive)
REMARK    1  A    between atoms: C_2  and  C_3 
REMARK    2  A    between atoms: N_21  and  N_23 
REMARK       I    between atoms: N_23  and  C_24 
REMARK    3  A    between atoms: C_24  and  C_25 
REMARK    4  A    between atoms: C_25  and  N_26 
REMARK    5  A    between atoms: C_25  and  C_34 
REMARK       I    between atoms: N_26  and  C_27 
REMARK    6  A    between atoms: C_27  and  O_28 
REMARK    7  A    between atoms: O_28  and  C_29 
ROOT
HETATM    1  C   UNL     1      43.653 -15.706   6.014  1.00  0.00    -0.041 C 
HETATM    2  C   UNL     1      42.472 -15.117   5.364  1.00  0.00     0.005 C 
HETATM    3  C   UNL     1      42.317 -13.729   5.414  1.00  0.00     0.091 C 
HETATM    4  C   UNL     1      41.552 -13.060   4.461  1.00  0.00     0.075 C 
HETATM    5  C   UNL     1      40.867 -13.816   3.512  1.00  0.00     0.079 C 
HETATM    6  C   UNL     1      40.745 -15.199   3.663  1.00  0.00    -0.024 C 
HETATM    7  C   UNL     1      39.810 -15.995   2.790  1.00  0.00     0.044 C 
HETATM    8  C   UNL     1      39.142 -15.112   1.741  1.00  0.00     0.043 C 
HETATM    9  C   UNL     1      40.120 -14.022   1.265  1.00  0.00     0.068 C 
HETATM   10  C   UNL     1      41.411 -14.639   0.651  1.00  0.00     0.038 C 
HETATM   11  C   UNL     1      42.352 -13.594   0.062  1.00  0.00     0.003 C 
HETATM   12  C   UNL     1      41.643 -12.767  -0.998  1.00  0.00     0.000 C 
HETATM   13  C   UNL     1      40.383 -12.119  -0.435  1.00  0.00     0.003 C 
HETATM   14  C   UNL     1      39.434 -13.147   0.192  1.00  0.00     0.038 C 
HETATM   15  O   UNL     1      40.401 -13.159   2.401  1.00  0.00    -0.340 OA
HETATM   16  C   UNL     1      41.591 -15.852   4.565  1.00  0.00     0.024 C 
HETATM   17  O   UNL     1      42.950 -12.963   6.419  1.00  0.00    -0.292 OA
HETATM   18  C   UNL     1      43.885 -13.597   7.199  1.00  0.00     0.163 C 
HETATM   19  N   UNL     1      44.346 -12.928   8.189  1.00  0.00    -0.277 N 
HETATM   20  H   UNL     1      45.147 -13.320   8.706  1.00  0.00     0.189 HD
HETATM   21  C   UNL     1      44.353 -14.941   6.863  1.00  0.00     0.065 C 
ENDROOT
BRANCH  19  22
HETATM   22  N   UNL     1      43.758 -11.784   8.760  1.00  0.00    -0.266 N 
HETATM   23  C   UNL     1      43.517 -11.911  10.120  1.00  0.00     0.263 C 
HETATM   24  O   UNL     1      44.132 -12.776  10.757  1.00  0.00    -0.269 OA
HETATM   25  H   UNL     1      43.212 -11.177   8.150  1.00  0.00     0.190 HD
BRANCH  23  26
HETATM   26  C   UNL     1      42.320 -11.146  10.720  1.00  0.00     0.214 C 
BRANCH  26  27
HETATM   27  N   UNL     1      41.774 -10.222   9.736  1.00  0.00    -0.319 N 
HETATM   28  C   UNL     1      40.448 -10.049   9.495  1.00  0.00     0.362 C 
HETATM   29  O   UNL     1      39.563 -10.582  10.150  1.00  0.00    -0.238 OA
HETATM   30  H   UNL     1      42.395  -9.803   9.053  1.00  0.00     0.166 HD
BRANCH  28  31
HETATM   31  O   UNL     1      40.296  -9.208   8.455  1.00  0.00    -0.294 OA
BRANCH  31  32
HETATM   32  C   UNL     1      40.163  -9.696   7.093  1.00  0.00     0.061 C 
HETATM   33  C   UNL     1      39.783 -11.181   7.072  1.00  0.00     0.046 C 
HETATM   34  C   UNL     1      39.003  -8.885   6.494  1.00  0.00     0.046 C 
HETATM   35  C   UNL     1      41.432  -9.419   6.283  1.00  0.00     0.046 C 
ENDBRANCH  31  32
ENDBRANCH  28  31
ENDBRANCH  26  27
BRANCH  26  36
HETATM   36  C   UNL     1      42.535 -10.559  12.099  1.00  0.00    -0.026 A 
HETATM   37  C   UNL     1      41.626 -10.897  13.121  1.00  0.00     0.010 A 
HETATM   38  C   UNL     1      41.760 -10.364  14.403  1.00  0.00     0.001 A 
HETATM   39  C   UNL     1      42.804  -9.489  14.688  1.00  0.00     0.000 A 
HETATM   40  C   UNL     1      43.718  -9.153  13.694  1.00  0.00     0.001 A 
HETATM   41  C   UNL     1      43.588  -9.685  12.409  1.00  0.00     0.010 A 
ENDBRANCH  26  36
ENDBRANCH  23  26
ENDBRANCH  19  22
BRANCH   1  42
HETATM   42  C   UNL     1      44.179 -17.049   5.558  1.00  0.00     0.035 C 
HETATM   43  C   UNL     1      45.013 -17.760   6.609  1.00  0.00     0.010 C 
ENDBRANCH   1  42
TORSDOF 7
ENDMDL
MODEL 3
REMARK VINA RESULT:      -8.6      2.655      3.210
REMARK  7 active torsions:
REMARK  status: ('A' for Active; 'I' for Inactive)
REMARK    1  A    between atoms: C_2  and  C_3 
REMARK    2  A    between atoms: N_21  and  N_23 
REMARK       I    between atoms: N_23  and  C_24 
REMARK    3  A    between atoms: C_24  and  C_25 
REMARK    4  A    between atoms: C_25  and  N_26 
REMARK    5  A    between atoms: C_25  and  C_34 
REMARK       I    between atoms: N_26  and  C_27 
REMARK    6  A    between atoms: C_27  and  O_28 
REMARK    7  A    between atoms: O_28  and  C_29 
ROOT
HETATM    1  C   UNL     1      40.242 -14.790  -2.354  1.00  0.00    -0.041 C 
HETATM    2  C   UNL     1      40.076 -13.558  -1.567  1.00  0.00     0.005 C 
HETATM    3  C   UNL     1      40.825 -13.421  -0.395  1.00  0.00     0.091 C 
HETATM    4  C   UNL     1      41.108 -12.161   0.130  1.00  0.00     0.075 C 
HETATM    5  C   UNL     1      40.546 -11.045  -0.488  1.00  0.00     0.079 C 
HETATM    6  C   UNL     1      39.535 -11.197  -1.440  1.00  0.00    -0.024 C 
HETATM    7  C   UNL     1      38.751 -10.011  -1.934  1.00  0.00     0.044 C 
HETATM    8  C   UNL     1      39.271  -8.710  -1.330  1.00  0.00     0.043 C 
HETATM    9  C   UNL     1      40.799  -8.778  -1.157  1.00  0.00     0.068 C 
HETATM   10  C   UNL     1      41.519  -9.022  -2.516  1.00  0.00     0.038 C 
HETATM   11  C   UNL     1      43.038  -8.980  -2.405  1.00  0.00     0.003 C 
HETATM   12  C   UNL     1      43.500  -7.651  -1.828  1.00  0.00     0.000 C 
HETATM   13  C   UNL     1      42.840  -7.381  -0.479  1.00  0.00     0.003 C 
HETATM   14  C   UNL     1      41.311  -7.449  -0.560  1.00  0.00     0.038 C 
HETATM   15  O   UNL     1      41.083  -9.820  -0.183  1.00  0.00    -0.340 OA
HETATM   16  C   UNL     1      39.337 -12.459  -2.011  1.00  0.00     0.024 C 
HETATM   17  O   UNL     1      41.336 -14.553   0.278  1.00  0.00    -0.292 OA
HETATM   18  C   UNL     1      41.258 -15.760  -0.371  1.00  0.00     0.163 C 
HETATM   19  N   UNL     1      41.598 -16.793   0.307  1.00  0.00    -0.277 N 
HETATM   20  H   UNL     1      41.686 -17.690  -0.192  1.00  0.00     0.189 HD
HETATM   21  C   UNL     1      40.859 -15.829  -1.776  1.00  0.00     0.065 C 
ENDROOT
BRANCH  19  22
HETATM   22  N   UNL     1      41.699 -16.866   1.708  1.00  0.00    -0.266 N 
HETATM   23  C   UNL     1      42.948 -17.275   2.148  1.00  0.00     0.263 C 
HETATM   24  O   UNL     1      43.914 -17.179   1.379  1.00  0.00    -0.269 OA
HETATM   25  H   UNL     1      40.842 -17.019   2.237  1.00  0.00     0.190 HD
BRANCH  23  26
HETATM   26  C   UNL     1      43.029 -18.062   3.472  1.00  0.00     0.214 C 
BRANCH  26  27
HETATM   27  N   UNL     1      43.565 -17.213   4.526  1.00  0.00    -0.319 N 
HETATM   28  C   UNL     1      42.822 -16.359   5.278  1.00  0.00     0.362 C 
HETATM   29  O   UNL     1      41.602 -16.285   5.218  1.00  0.00    -0.238 OA
HETATM   30  H   UNL     1      44.568 -17.096   4.605  1.00  0.00     0.166 HD
BRANCH  28  31
HETATM   31  O   UNL     1      43.640 -15.652   6.079  1.00  0.00    -0.294 OA
BRANCH  31  32
HETATM   32  C   UNL     1      43.888 -14.238   5.857  1.00  0.00     0.061 C 
HETATM   33  C   UNL     1      42.756 -13.380   6.434  1.00  0.00     0.046 C 
HETATM   34  C   UNL     1      45.179 -13.935   6.634  1.00  0.00     0.046 C 
HETATM   35  C   UNL     1      44.124 -13.948   4.372  1.00  0.00     0.046 C 
ENDBRANCH  31  32
ENDBRANCH  28  31
ENDBRANCH  26  27
BRANCH  26  36
HETATM   36  C   UNL     1      43.649 -19.441   3.384  1.00  0.00    -0.026 A 
HETATM   37  C   UNL     1      43.433 -20.201   2.219  1.00  0.00     0.010 A 
HETATM   38  C   UNL     1      43.957 -21.488   2.095  1.00  0.00     0.001 A 
HETATM   39  C   UNL     1      44.710 -22.036   3.129  1.00  0.00     0.000 A 
HETATM   40  C   UNL     1      44.943 -21.295   4.284  1.00  0.00     0.001 A 
HETATM   41  C   UNL     1      44.420 -20.006   4.412  1.00  0.00     0.010 A 
ENDBRANCH  26  36
ENDBRANCH  23  26
ENDBRANCH  19  22
BRANCH   1  42
HETATM   42  C   UNL     1      39.930 -14.791  -3.834  1.00  0.00     0.035 C 
HETATM   43  C   UNL     1      39.016 -15.928  -4.258  1.00  0.00     0.010 C 
ENDBRANCH   1  42
TORSDOF 7
ENDMDL
MODEL 4
REMARK VINA RESULT:      -8.4      4.411      6.826
REMARK  7 active torsions:
REMARK  status: ('A' for Active; 'I' for Inactive)
REMARK    1  A    between atoms: C_2  and  C_3 
REMARK    2  A    between atoms: N_21  and  N_23 
REMARK       I    between atoms: N_23  and  C_24 
REMARK    3  A    between atoms: C_24  and  C_25 
REMARK    4  A    between atoms: C_25  and  N_26 
REMARK    5  A    between atoms: C_25  and  C_34 
REMARK       I    between atoms: N_26  and  C_27 
REMARK    6  A    between atoms: C_27  and  O_28 
REMARK    7  A    between atoms: O_28  and  C_29 
ROOT
HETATM    1  C   UNL     1      39.347  -9.171   6.510  1.00  0.00    -0.041 C 
HETATM    2  C   UNL     1      39.231  -9.754   7.855  1.00  0.00     0.005 C 
HETATM    3  C   UNL     1      39.839 -10.990   8.091  1.00  0.00     0.091 C 
HETATM    4  C   UNL     1      40.201 -11.375   9.380  1.00  0.00     0.075 C 
HETATM    5  C   UNL     1      39.856 -10.540  10.442  1.00  0.00     0.079 C 
HETATM    6  C   UNL     1      38.961  -9.485  10.251  1.00  0.00    -0.024 C 
HETATM    7  C   UNL     1      38.391  -8.730  11.422  1.00  0.00     0.044 C 
HETATM    8  C   UNL     1      38.982  -9.221  12.741  1.00  0.00     0.043 C 
HETATM    9  C   UNL     1      40.458  -9.615  12.547  1.00  0.00     0.068 C 
HETATM   10  C   UNL     1      41.307  -8.415  12.033  1.00  0.00     0.038 C 
HETATM   11  C   UNL     1      42.795  -8.732  11.941  1.00  0.00     0.003 C 
HETATM   12  C   UNL     1      43.335  -9.185  13.288  1.00  0.00     0.000 C 
HETATM   13  C   UNL     1      42.549 -10.378  13.820  1.00  0.00     0.003 C 
HETATM   14  C   UNL     1      41.045 -10.093  13.893  1.00  0.00     0.038 C 
HETATM   15  O   UNL     1      40.493 -10.750  11.640  1.00  0.00    -0.340 OA
HETATM   16  C   UNL     1      38.689  -9.066   8.944  1.00  0.00     0.024 C 
HETATM   17  O   UNL     1      40.124 -11.874   7.026  1.00  0.00    -0.292 OA
HETATM   18  C   UNL     1      39.985 -11.388   5.749  1.00  0.00     0.163 C 
HETATM   19  N   UNL     1      40.114 -12.240   4.801  1.00  0.00    -0.277 N 
HETATM   20  H   UNL     1      40.156 -11.883   3.835  1.00  0.00     0.189 HD
HETATM   21  C   UNL     1      39.760  -9.964   5.512  1.00  0.00     0.065 C 
ENDROOT
BRANCH  19  22
HETATM   22  N   UNL     1      40.029 -13.638   4.928  1.00  0.00    -0.266 N 
HETATM   23  C   UNL     1      41.189 -14.296   4.546  1.00  0.00     0.263 C 
HETATM   24  O   UNL     1      42.250 -13.658   4.499  1.00  0.00    -0.269 OA
HETATM   25  H   UNL     1      39.105 -14.063   4.881  1.00  0.00     0.190 HD
BRANCH  23  26
HETATM   26  C   UNL     1      41.059 -15.715   3.957  1.00  0.00     0.214 C 
BRANCH  26  27
HETATM   27  N   UNL     1      41.931 -16.635   4.673  1.00  0.00    -0.319 N 
HETATM   28  C   UNL     1      41.687 -17.110   5.923  1.00  0.00     0.362 C 
HETATM   29  O   UNL     1      40.656 -16.892   6.544  1.00  0.00    -0.238 OA
HETATM   30  H   UNL     1      42.864 -16.807   4.320  1.00  0.00     0.166 HD
BRANCH  28  31
HETATM   31  O   UNL     1      42.739 -17.846   6.326  1.00  0.00    -0.294 OA
BRANCH  31  32
HETATM   32  C   UNL     1      43.847 -17.253   7.056  1.00  0.00     0.061 C 
HETATM   33  C   UNL     1      43.935 -15.745   6.801  1.00  0.00     0.046 C 
HETATM   34  C   UNL     1      43.511 -17.482   8.538  1.00  0.00     0.046 C 
HETATM   35  C   UNL     1      45.163 -17.966   6.731  1.00  0.00     0.046 C 
ENDBRANCH  31  32
ENDBRANCH  28  31
ENDBRANCH  26  27
BRANCH  26  36
HETATM   36  C   UNL     1      41.127 -15.812   2.447  1.00  0.00    -0.026 A 
HETATM   37  C   UNL     1      41.121 -17.090   1.856  1.00  0.00     0.010 A 
HETATM   38  C   UNL     1      41.210 -17.239   0.472  1.00  0.00     0.001 A 
HETATM   39  C   UNL     1      41.302 -16.116  -0.345  1.00  0.00     0.000 A 
HETATM   40  C   UNL     1      41.298 -14.845   0.220  1.00  0.00     0.001 A 
HETATM   41  C   UNL     1      41.209 -14.691   1.606  1.00  0.00     0.010 A 
ENDBRANCH  26  36
ENDBRANCH  23  26
ENDBRANCH  19  22
BRANCH   1  42
HETATM   42  C   UNL     1      39.224  -7.675   6.319  1.00  0.00     0.035 C 
HETATM   43  C   UNL     1      38.099  -7.276   5.379  1.00  0.00     0.010 C 
ENDBRANCH   1  42
TORSDOF 7
ENDMDL
MODEL 5
REMARK VINA RESULT:      -8.3      3.130      8.004
REMARK  7 active torsions:
REMARK  status: ('A' for Active; 'I' for Inactive)
REMARK    1  A    between atoms: C_2  and  C_3 
REMARK    2  A    between atoms: N_21  and  N_23 
REMARK       I    between atoms: N_23  and  C_24 
REMARK    3  A    between atoms: C_24  and  C_25 
REMARK    4  A    between atoms: C_25  and  N_26 
REMARK    5  A    between atoms: C_25  and  C_34 
REMARK       I    between atoms: N_26  and  C_27 
REMARK    6  A    between atoms: C_27  and  O_28 
REMARK    7  A    between atoms: O_28  and  C_29 
ROOT
HETATM    1  C   UNL     1      43.726 -16.341   6.261  1.00  0.00    -0.041 C 
HETATM    2  C   UNL     1      43.934 -14.905   6.502  1.00  0.00     0.005 C 
HETATM    3  C   UNL     1      42.826 -14.058   6.424  1.00  0.00     0.091 C 
HETATM    4  C   UNL     1      42.814 -12.832   7.088  1.00  0.00     0.075 C 
HETATM    5  C   UNL     1      43.970 -12.427   7.752  1.00  0.00     0.079 C 
HETATM    6  C   UNL     1      45.176 -13.103   7.549  1.00  0.00    -0.024 C 
HETATM    7  C   UNL     1      46.476 -12.540   8.059  1.00  0.00     0.044 C 
HETATM    8  C   UNL     1      46.252 -11.253   8.848  1.00  0.00     0.043 C 
HETATM    9  C   UNL     1      44.930 -11.334   9.631  1.00  0.00     0.068 C 
HETATM   10  C   UNL     1      44.923 -12.535  10.622  1.00  0.00     0.038 C 
HETATM   11  C   UNL     1      43.678 -12.581  11.499  1.00  0.00     0.003 C 
HETATM   12  C   UNL     1      43.524 -11.287  12.284  1.00  0.00     0.000 C 
HETATM   13  C   UNL     1      43.498 -10.081  11.352  1.00  0.00     0.003 C 
HETATM   14  C   UNL     1      44.727 -10.031  10.437  1.00  0.00     0.038 C 
HETATM   15  O   UNL     1      43.850 -11.406   8.661  1.00  0.00    -0.340 OA
HETATM   16  C   UNL     1      45.142 -14.372   6.960  1.00  0.00     0.024 C 
HETATM   17  O   UNL     1      41.677 -14.429   5.690  1.00  0.00    -0.292 OA
HETATM   18  C   UNL     1      41.605 -15.727   5.247  1.00  0.00     0.163 C 
HETATM   19  N   UNL     1      40.627 -16.008   4.470  1.00  0.00    -0.277 N 
HETATM   20  H   UNL     1      40.465 -16.998   4.236  1.00  0.00     0.189 HD
HETATM   21  C   UNL     1      42.573 -16.725   5.698  1.00  0.00     0.065 C 
ENDROOT
BRANCH  19  22
HETATM   22  N   UNL     1      39.845 -15.081   3.756  1.00  0.00    -0.266 N 
HETATM   23  C   UNL     1      40.350 -14.789   2.498  1.00  0.00     0.263 C 
HETATM   24  O   UNL     1      41.154 -15.576   1.980  1.00  0.00    -0.269 OA
HETATM   25  H   UNL     1      39.272 -14.432   4.293  1.00  0.00     0.190 HD
BRANCH  23  26
HETATM   26  C   UNL     1      40.087 -13.385   1.918  1.00  0.00     0.214 C 
BRANCH  26  27
HETATM   27  N   UNL     1      41.000 -13.121   0.815  1.00  0.00    -0.319 N 
HETATM   28  C   UNL     1      40.747 -13.432  -0.484  1.00  0.00     0.362 C 
HETATM   29  O   UNL     1      39.679 -13.878  -0.881  1.00  0.00    -0.238 OA
HETATM   30  H   UNL     1      41.957 -12.858   1.017  1.00  0.00     0.166 HD
BRANCH  28  31
HETATM   31  O   UNL     1      41.837 -13.154  -1.223  1.00  0.00    -0.294 OA
BRANCH  31  32
HETATM   32  C   UNL     1      41.984 -11.885  -1.915  1.00  0.00     0.061 C 
HETATM   33  C   UNL     1      43.143 -11.068  -1.332  1.00  0.00     0.046 C 
HETATM   34  C   UNL     1      42.330 -12.263  -3.364  1.00  0.00     0.046 C 
HETATM   35  C   UNL     1      40.670 -11.099  -1.908  1.00  0.00     0.046 C 
ENDBRANCH  31  32
ENDBRANCH  28  31
ENDBRANCH  26  27
BRANCH  26  36
HETATM   36  C   UNL     1      39.965 -12.265   2.930  1.00  0.00    -0.026 A 
HETATM   37  C   UNL     1      41.139 -11.776   3.534  1.00  0.00     0.010 A 
HETATM   38  C   UNL     1      41.083 -10.764   4.493  1.00  0.00     0.001 A 
HETATM   39  C   UNL     1      39.857 -10.220   4.861  1.00  0.00     0.000 A 
HETATM   40  C   UNL     1      38.687 -10.683   4.266  1.00  0.00     0.001 A 
HETATM   41  C   UNL     1      38.738 -11.696   3.305  1.00  0.00     0.010 A 
ENDBRANCH  26  36
ENDBRANCH  23  26
ENDBRANCH  19  22
BRANCH   1  42
HETATM   42  C   UNL     1      44.687 -17.354   6.844  1.00  0.00     0.035 C 
HETATM   43  C   UNL     1      45.019 -18.489   5.891  1.00  0.00     0.010 C 
ENDBRANCH   1  42
TORSDOF 7
ENDMDL
MODEL 6
REMARK VINA RESULT:      -8.3      4.077      6.731
REMARK  7 active torsions:
REMARK  status: ('A' for Active; 'I' for Inactive)
REMARK    1  A    between atoms: C_2  and  C_3 
REMARK    2  A    between atoms: N_21  and  N_23 
REMARK       I    between atoms: N_23  and  C_24 
REMARK    3  A    between atoms: C_24  and  C_25 
REMARK    4  A    between atoms: C_25  and  N_26 
REMARK    5  A    between atoms: C_25  and  C_34 
REMARK       I    between atoms: N_26  and  C_27 
REMARK    6  A    between atoms: C_27  and  O_28 
REMARK    7  A    between atoms: O_28  and  C_29 
ROOT
HETATM    1  C   UNL     1      40.464  -9.119   6.064  1.00  0.00    -0.041 C 
HETATM    2  C   UNL     1      40.188  -9.804   7.336  1.00  0.00     0.005 C 
HETATM    3  C   UNL     1      40.865 -10.997   7.601  1.00  0.00     0.091 C 
HETATM    4  C   UNL     1      41.048 -11.440   8.910  1.00  0.00     0.075 C 
HETATM    5  C   UNL     1      40.458 -10.715   9.943  1.00  0.00     0.079 C 
HETATM    6  C   UNL     1      39.509  -9.729   9.663  1.00  0.00    -0.024 C 
HETATM    7  C   UNL     1      38.686  -9.111  10.762  1.00  0.00     0.044 C 
HETATM    8  C   UNL     1      39.100  -9.641  12.132  1.00  0.00     0.043 C 
HETATM    9  C   UNL     1      40.618  -9.892  12.167  1.00  0.00     0.068 C 
HETATM   10  C   UNL     1      41.421  -8.591  11.871  1.00  0.00     0.038 C 
HETATM   11  C   UNL     1      42.927  -8.772  12.013  1.00  0.00     0.003 C 
HETATM   12  C   UNL     1      43.282  -9.271  13.404  1.00  0.00     0.000 C 
HETATM   13  C   UNL     1      42.539 -10.562  13.729  1.00  0.00     0.003 C 
HETATM   14  C   UNL     1      41.022 -10.413  13.564  1.00  0.00     0.038 C 
HETATM   15  O   UNL     1      40.909 -10.954  11.217  1.00  0.00    -0.340 OA
HETATM   16  C   UNL     1      39.413  -9.244   8.355  1.00  0.00     0.024 C 
HETATM   17  O   UNL     1      41.403 -11.776   6.552  1.00  0.00    -0.292 OA
HETATM   18  C   UNL     1      41.428 -11.215   5.299  1.00  0.00     0.163 C 
HETATM   19  N   UNL     1      41.789 -11.983   4.340  1.00  0.00    -0.277 N 
HETATM   20  H   UNL     1      41.953 -11.557   3.416  1.00  0.00     0.189 HD
HETATM   21  C   UNL     1      41.108  -9.802   5.107  1.00  0.00     0.065 C 
ENDROOT
BRANCH  19  22
HETATM   22  N   UNL     1      41.820 -13.389   4.373  1.00  0.00    -0.266 N 
HETATM   23  C   UNL     1      42.892 -13.932   3.681  1.00  0.00     0.263 C 
HETATM   24  O   UNL     1      43.871 -13.214   3.438  1.00  0.00    -0.269 OA
HETATM   25  H   UNL     1      40.937 -13.879   4.510  1.00  0.00     0.190 HD
BRANCH  23  26
HETATM   26  C   UNL     1      42.709 -15.317   3.028  1.00  0.00     0.214 C 
BRANCH  26  27
HETATM   27  N   UNL     1      41.401 -15.402   2.395  1.00  0.00    -0.319 N 
HETATM   28  C   UNL     1      41.144 -15.042   1.110  1.00  0.00     0.362 C 
HETATM   29  O   UNL     1      42.007 -14.700   0.313  1.00  0.00    -0.238 OA
HETATM   30  H   UNL     1      40.583 -15.563   2.970  1.00  0.00     0.166 HD
BRANCH  28  31
HETATM   31  O   UNL     1      39.821 -15.142   0.882  1.00  0.00    -0.294 OA
BRANCH  31  32
HETATM   32  C   UNL     1      39.011 -13.976   0.573  1.00  0.00     0.061 C 
HETATM   33  C   UNL     1      39.019 -13.679  -0.931  1.00  0.00     0.046 C 
HETATM   34  C   UNL     1      37.584 -14.364   0.989  1.00  0.00     0.046 C 
HETATM   35  C   UNL     1      39.455 -12.764   1.398  1.00  0.00     0.046 C 
ENDBRANCH  31  32
ENDBRANCH  28  31
ENDBRANCH  26  27
BRANCH  26  36
HETATM   36  C   UNL     1      43.082 -16.507   3.888  1.00  0.00    -0.026 A 
HETATM   37  C   UNL     1      43.213 -17.765   3.271  1.00  0.00     0.010 A 
HETATM   38  C   UNL     1      43.528 -18.900   4.019  1.00  0.00     0.001 A 
HETATM   39  C   UNL     1      43.722 -18.797   5.393  1.00  0.00     0.000 A 
HETATM   40  C   UNL     1      43.608 -17.559   6.018  1.00  0.00     0.001 A 
HETATM   41  C   UNL     1      43.293 -16.420   5.273  1.00  0.00     0.010 A 
ENDBRANCH  26  36
ENDBRANCH  23  26
ENDBRANCH  19  22
BRANCH   1  42
HETATM   42  C   UNL     1      40.231  -7.630   5.938  1.00  0.00     0.035 C 
HETATM   43  C   UNL     1      39.025  -7.277   5.085  1.00  0.00     0.010 C 
ENDBRANCH   1  42
TORSDOF 7
ENDMDL
MODEL 7
REMARK VINA RESULT:      -8.3      2.466      4.568
REMARK  7 active torsions:
REMARK  status: ('A' for Active; 'I' for Inactive)
REMARK    1  A    between atoms: C_2  and  C_3 
REMARK    2  A    between atoms: N_21  and  N_23 
REMARK       I    between atoms: N_23  and  C_24 
REMARK    3  A    between atoms: C_24  and  C_25 
REMARK    4  A    between atoms: C_25  and  N_26 
REMARK    5  A    between atoms: C_25  and  C_34 
REMARK       I    between atoms: N_26  and  C_27 
REMARK    6  A    between atoms: C_27  and  O_28 
REMARK    7  A    between atoms: O_28  and  C_29 
ROOT
HETATM    1  C   UNL     1      39.834 -12.137   3.309  1.00  0.00    -0.041 C 
HETATM    2  C   UNL     1      40.856 -11.904   2.278  1.00  0.00     0.005 C 
HETATM    3  C   UNL     1      41.416 -13.016   1.642  1.00  0.00     0.091 C 
HETATM    4  C   UNL     1      41.989 -12.904   0.377  1.00  0.00     0.075 C 
HETATM    5  C   UNL     1      42.078 -11.638  -0.199  1.00  0.00     0.079 C 
HETATM    6  C   UNL     1      41.835 -10.494   0.564  1.00  0.00    -0.024 C 
HETATM    7  C   UNL     1      42.162  -9.124   0.033  1.00  0.00     0.044 C 
HETATM    8  C   UNL     1      42.680  -9.193  -1.402  1.00  0.00     0.043 C 
HETATM    9  C   UNL     1      41.962 -10.316  -2.171  1.00  0.00     0.068 C 
HETATM   10  C   UNL     1      40.421 -10.093  -2.205  1.00  0.00     0.038 C 
HETATM   11  C   UNL     1      39.686 -11.121  -3.057  1.00  0.00     0.003 C 
HETATM   12  C   UNL     1      40.221 -11.123  -4.480  1.00  0.00     0.000 C 
HETATM   13  C   UNL     1      41.726 -11.365  -4.500  1.00  0.00     0.003 C 
HETATM   14  C   UNL     1      42.484 -10.362  -3.624  1.00  0.00     0.038 C 
HETATM   15  O   UNL     1      42.328 -11.577  -1.548  1.00  0.00    -0.340 OA
HETATM   16  C   UNL     1      41.177 -10.635   1.790  1.00  0.00     0.024 C 
HETATM   17  O   UNL     1      41.395 -14.290   2.254  1.00  0.00    -0.292 OA
HETATM   18  C   UNL     1      40.622 -14.435   3.380  1.00  0.00     0.163 C 
HETATM   19  N   UNL     1      40.723 -15.553   3.997  1.00  0.00    -0.277 N 
HETATM   20  H   UNL     1      40.056 -15.746   4.758  1.00  0.00     0.189 HD
HETATM   21  C   UNL     1      39.702 -13.379   3.797  1.00  0.00     0.065 C 
ENDROOT
BRANCH  19  22
HETATM   22  N   UNL     1      41.769 -16.483   3.858  1.00  0.00    -0.266 N 
HETATM   23  C   UNL     1      41.671 -17.555   4.733  1.00  0.00     0.263 C 
HETATM   24  O   UNL     1      40.575 -17.804   5.252  1.00  0.00    -0.269 OA
HETATM   25  H   UNL     1      42.655 -16.147   3.483  1.00  0.00     0.190 HD
BRANCH  23  26
HETATM   26  C   UNL     1      42.976 -18.224   5.211  1.00  0.00     0.214 C 
BRANCH  26  27
HETATM   27  N   UNL     1      43.917 -17.211   5.668  1.00  0.00    -0.319 N 
HETATM   28  C   UNL     1      43.848 -16.584   6.872  1.00  0.00     0.362 C 
HETATM   29  O   UNL     1      43.041 -16.875   7.745  1.00  0.00    -0.238 OA
HETATM   30  H   UNL     1      44.564 -16.802   5.005  1.00  0.00     0.166 HD
BRANCH  28  31
HETATM   31  O   UNL     1      44.800 -15.635   6.929  1.00  0.00    -0.294 OA
BRANCH  31  32
HETATM   32  C   UNL     1      44.474 -14.222   6.836  1.00  0.00     0.061 C 
HETATM   33  C   UNL     1      44.443 -13.569   8.223  1.00  0.00     0.046 C 
HETATM   34  C   UNL     1      45.624 -13.603   6.027  1.00  0.00     0.046 C 
HETATM   35  C   UNL     1      43.163 -14.010   6.074  1.00  0.00     0.046 C 
ENDBRANCH  31  32
ENDBRANCH  28  31
ENDBRANCH  26  27
BRANCH  26  36
HETATM   36  C   UNL     1      43.561 -19.269   4.285  1.00  0.00    -0.026 A 
HETATM   37  C   UNL     1      43.205 -19.233   2.923  1.00  0.00     0.010 A 
HETATM   38  C   UNL     1      43.692 -20.188   2.030  1.00  0.00     0.001 A 
HETATM   39  C   UNL     1      44.545 -21.191   2.480  1.00  0.00     0.000 A 
HETATM   40  C   UNL     1      44.916 -21.236   3.820  1.00  0.00     0.001 A 
HETATM   41  C   UNL     1      44.431 -20.281   4.718  1.00  0.00     0.010 A 
ENDBRANCH  26  36
ENDBRANCH  23  26
ENDBRANCH  19  22
BRANCH   1  42
HETATM   42  C   UNL     1      38.823 -11.060   3.631  1.00  0.00     0.035 C 
HETATM   43  C   UNL     1      39.125 -10.313   4.919  1.00  0.00     0.010 C 
ENDBRANCH   1  42
TORSDOF 7
ENDMDL
MODEL 8
REMARK VINA RESULT:      -8.3      2.292      5.315
REMARK  7 active torsions:
REMARK  status: ('A' for Active; 'I' for Inactive)
REMARK    1  A    between atoms: C_2  and  C_3 
REMARK    2  A    between atoms: N_21  and  N_23 
REMARK       I    between atoms: N_23  and  C_24 
REMARK    3  A    between atoms: C_24  and  C_25 
REMARK    4  A    between atoms: C_25  and  N_26 
REMARK    5  A    between atoms: C_25  and  C_34 
REMARK       I    between atoms: N_26  and  C_27 
REMARK    6  A    between atoms: C_27  and  O_28 
REMARK    7  A    between atoms: O_28  and  C_29 
ROOT
HETATM    1  C   UNL     1      39.733 -12.105   5.576  1.00  0.00    -0.041 C 
HETATM    2  C   UNL     1      39.699 -11.861   4.127  1.00  0.00     0.005 C 
HETATM    3  C   UNL     1      39.471 -12.950   3.281  1.00  0.00     0.091 C 
HETATM    4  C   UNL     1      38.949 -12.766   2.002  1.00  0.00     0.075 C 
HETATM    5  C   UNL     1      38.749 -11.464   1.550  1.00  0.00     0.079 C 
HETATM    6  C   UNL     1      39.286 -10.381   2.249  1.00  0.00    -0.024 C 
HETATM    7  C   UNL     1      39.292  -8.998   1.653  1.00  0.00     0.044 C 
HETATM    8  C   UNL     1      38.586  -8.973   0.300  1.00  0.00     0.043 C 
HETATM    9  C   UNL     1      37.400  -9.955   0.303  1.00  0.00     0.068 C 
HETATM   10  C   UNL     1      36.367  -9.602   1.414  1.00  0.00     0.038 C 
HETATM   11  C   UNL     1      35.122 -10.480   1.373  1.00  0.00     0.003 C 
HETATM   12  C   UNL     1      34.444 -10.391   0.015  1.00  0.00     0.000 C 
HETATM   13  C   UNL     1      35.412 -10.755  -1.106  1.00  0.00     0.003 C 
HETATM   14  C   UNL     1      36.687  -9.906  -1.066  1.00  0.00     0.038 C 
HETATM   15  O   UNL     1      37.942 -11.296   0.452  1.00  0.00    -0.340 OA
HETATM   16  C   UNL     1      39.720 -10.582   3.564  1.00  0.00     0.024 C 
HETATM   17  O   UNL     1      39.743 -14.270   3.707  1.00  0.00    -0.292 OA
HETATM   18  C   UNL     1      40.024 -14.457   5.038  1.00  0.00     0.163 C 
HETATM   19  N   UNL     1      40.401 -15.633   5.379  1.00  0.00    -0.277 N 
HETATM   20  H   UNL     1      40.483 -15.841   6.385  1.00  0.00     0.189 HD
HETATM   21  C   UNL     1      39.842 -13.372   6.001  1.00  0.00     0.065 C 
ENDROOT
BRANCH  19  22
HETATM   22  N   UNL     1      40.887 -16.629   4.512  1.00  0.00    -0.266 N 
HETATM   23  C   UNL     1      42.250 -16.535   4.276  1.00  0.00     0.263 C 
HETATM   24  O   UNL     1      42.951 -15.891   5.068  1.00  0.00    -0.269 OA
HETATM   25  H   UNL     1      40.231 -17.041   3.850  1.00  0.00     0.190 HD
BRANCH  23  26
HETATM   26  C   UNL     1      42.785 -17.016   2.911  1.00  0.00     0.214 C 
BRANCH  26  27
HETATM   27  N   UNL     1      41.840 -16.677   1.857  1.00  0.00    -0.319 N 
HETATM   28  C   UNL     1      41.691 -15.435   1.327  1.00  0.00     0.362 C 
HETATM   29  O   UNL     1      42.407 -14.484   1.610  1.00  0.00    -0.238 OA
HETATM   30  H   UNL     1      41.115 -17.341   1.611  1.00  0.00     0.166 HD
BRANCH  28  31
HETATM   31  O   UNL     1      40.664 -15.448   0.458  1.00  0.00    -0.294 OA
BRANCH  31  32
HETATM   32  C   UNL     1      40.723 -14.726  -0.802  1.00  0.00     0.061 C 
HETATM   33  C   UNL     1      41.788 -13.624  -0.759  1.00  0.00     0.046 C 
HETATM   34  C   UNL     1      41.146 -15.777  -1.841  1.00  0.00     0.046 C 
HETATM   35  C   UNL     1      39.346 -14.176  -1.186  1.00  0.00     0.046 C 
ENDBRANCH  31  32
ENDBRANCH  28  31
ENDBRANCH  26  27
BRANCH  26  36
HETATM   36  C   UNL     1      43.308 -18.436   2.871  1.00  0.00    -0.026 A 
HETATM   37  C   UNL     1      44.133 -18.878   3.922  1.00  0.00     0.010 A 
HETATM   38  C   UNL     1      44.666 -20.168   3.922  1.00  0.00     0.001 A 
HETATM   39  C   UNL     1      44.379 -21.039   2.876  1.00  0.00     0.000 A 
HETATM   40  C   UNL     1      43.556 -20.624   1.834  1.00  0.00     0.001 A 
HETATM   41  C   UNL     1      43.020 -19.333   1.830  1.00  0.00     0.010 A 
ENDBRANCH  26  36
ENDBRANCH  23  26
ENDBRANCH  19  22
BRANCH   1  42
HETATM   42  C   UNL     1      39.423 -10.982   6.542  1.00  0.00     0.035 C 
HETATM   43  C   UNL     1      39.443 -11.415   7.998  1.00  0.00     0.010 C 
ENDBRANCH   1  42
TORSDOF 7
ENDMDL
MODEL 9
REMARK VINA RESULT:      -8.2      2.983      7.458
REMARK  7 active torsions:
REMARK  status: ('A' for Active; 'I' for Inactive)
REMARK    1  A    between atoms: C_2  and  C_3 
REMARK    2  A    between atoms: N_21  and  N_23 
REMARK       I    between atoms: N_23  and  C_24 
REMARK    3  A    between atoms: C_24  and  C_25 
REMARK    4  A    between atoms: C_25  and  N_26 
REMARK    5  A    between atoms: C_25  and  C_34 
REMARK       I    between atoms: N_26  and  C_27 
REMARK    6  A    between atoms: C_27  and  O_28 
REMARK    7  A    between atoms: O_28  and  C_29 
ROOT
HETATM    1  C   UNL     1      43.668 -16.403   6.305  1.00  0.00    -0.041 C 
HETATM    2  C   UNL     1      43.909 -14.968   6.518  1.00  0.00     0.005 C 
HETATM    3  C   UNL     1      42.829 -14.092   6.382  1.00  0.00     0.091 C 
HETATM    4  C   UNL     1      42.831 -12.850   7.014  1.00  0.00     0.075 C 
HETATM    5  C   UNL     1      43.976 -12.462   7.707  1.00  0.00     0.079 C 
HETATM    6  C   UNL     1      45.168 -13.176   7.561  1.00  0.00    -0.024 C 
HETATM    7  C   UNL     1      46.466 -12.637   8.101  1.00  0.00     0.044 C 
HETATM    8  C   UNL     1      46.254 -11.325   8.850  1.00  0.00     0.043 C 
HETATM    9  C   UNL     1      44.905 -11.348   9.590  1.00  0.00     0.068 C 
HETATM   10  C   UNL     1      44.830 -12.524  10.609  1.00  0.00     0.038 C 
HETATM   11  C   UNL     1      43.557 -12.512  11.445  1.00  0.00     0.003 C 
HETATM   12  C   UNL     1      43.414 -11.195  12.192  1.00  0.00     0.000 C 
HETATM   13  C   UNL     1      43.454 -10.013  11.231  1.00  0.00     0.003 C 
HETATM   14  C   UNL     1      44.713 -10.021  10.356  1.00  0.00     0.038 C 
HETATM   15  O   UNL     1      43.855 -11.415   8.586  1.00  0.00    -0.340 OA
HETATM   16  C   UNL     1      45.116 -14.458   7.003  1.00  0.00     0.024 C 
HETATM   17  O   UNL     1      41.695 -14.450   5.619  1.00  0.00    -0.292 OA
HETATM   18  C   UNL     1      41.600 -15.756   5.205  1.00  0.00     0.163 C 
HETATM   19  N   UNL     1      40.640 -16.029   4.403  1.00  0.00    -0.277 N 
HETATM   20  H   UNL     1      40.458 -17.020   4.187  1.00  0.00     0.189 HD
HETATM   21  C   UNL     1      42.523 -16.770   5.712  1.00  0.00     0.065 C 
ENDROOT
BRANCH  19  22
HETATM   22  N   UNL     1      39.909 -15.099   3.641  1.00  0.00    -0.266 N 
HETATM   23  C   UNL     1      40.221 -15.130   2.290  1.00  0.00     0.263 C 
HETATM   24  O   UNL     1      40.773 -16.137   1.827  1.00  0.00    -0.269 OA
HETATM   25  H   UNL     1      39.561 -14.268   4.115  1.00  0.00     0.190 HD
BRANCH  23  26
HETATM   26  C   UNL     1      40.097 -13.820   1.486  1.00  0.00     0.214 C 
BRANCH  26  27
HETATM   27  N   UNL     1      39.467 -12.791   2.301  1.00  0.00    -0.319 N 
HETATM   28  C   UNL     1      39.851 -11.488   2.328  1.00  0.00     0.362 C 
HETATM   29  O   UNL     1      40.708 -11.016   1.593  1.00  0.00    -0.238 OA
HETATM   30  H   UNL     1      38.822 -13.067   3.032  1.00  0.00     0.166 HD
BRANCH  28  31
HETATM   31  O   UNL     1      39.133 -10.838   3.263  1.00  0.00    -0.294 OA
BRANCH  31  32
HETATM   32  C   UNL     1      39.607 -10.705   4.630  1.00  0.00     0.061 C 
HETATM   33  C   UNL     1      41.124 -10.494   4.673  1.00  0.00     0.046 C 
HETATM   34  C   UNL     1      38.920  -9.439   5.165  1.00  0.00     0.046 C 
HETATM   35  C   UNL     1      39.172 -11.901   5.481  1.00  0.00     0.046 C 
ENDBRANCH  31  32
ENDBRANCH  28  31
ENDBRANCH  26  27
BRANCH  26  36
HETATM   36  C   UNL     1      39.543 -13.954   0.083  1.00  0.00    -0.026 A 
HETATM   37  C   UNL     1      40.428 -14.289  -0.959  1.00  0.00     0.010 A 
HETATM   38  C   UNL     1      39.977 -14.399  -2.275  1.00  0.00     0.001 A 
HETATM   39  C   UNL     1      38.635 -14.183  -2.571  1.00  0.00     0.000 A 
HETATM   40  C   UNL     1      37.743 -13.863  -1.552  1.00  0.00     0.001 A 
HETATM   41  C   UNL     1      38.191 -13.752  -0.233  1.00  0.00     0.010 A 
ENDBRANCH  26  36
ENDBRANCH  23  26
ENDBRANCH  19  22
BRANCH   1  42
HETATM   42  C   UNL     1      44.579 -17.428   6.944  1.00  0.00     0.035 C 
HETATM   43  C   UNL     1      45.104 -18.464   5.965  1.00  0.00     0.010 C 
ENDBRANCH   1  42
TORSDOF 7
ENDMDL
MODEL 10
REMARK VINA RESULT:      -8.0      4.131      8.462
REMARK  7 active torsions:
REMARK  status: ('A' for Active; 'I' for Inactive)
REMARK    1  A    between atoms: C_2  and  C_3 
REMARK    2  A    between atoms: N_21  and  N_23 
REMARK       I    between atoms: N_23  and  C_24 
REMARK    3  A    between atoms: C_24  and  C_25 
REMARK    4  A    between atoms: C_25  and  N_26 
REMARK    5  A    between atoms: C_25  and  C_34 
REMARK       I    between atoms: N_26  and  C_27 
REMARK    6  A    between atoms: C_27  and  O_28 
REMARK    7  A    between atoms: O_28  and  C_29 
ROOT
HETATM    1  C   UNL     1      42.595 -14.939   3.913  1.00  0.00    -0.041 C 
HETATM    2  C   UNL     1      41.653 -14.195   3.063  1.00  0.00     0.005 C 
HETATM    3  C   UNL     1      41.437 -12.844   3.346  1.00  0.00     0.091 C 
HETATM    4  C   UNL     1      40.980 -11.971   2.361  1.00  0.00     0.075 C 
HETATM    5  C   UNL     1      40.652 -12.494   1.112  1.00  0.00     0.079 C 
HETATM    6  C   UNL     1      40.542 -13.875   0.930  1.00  0.00    -0.024 C 
HETATM    7  C   UNL     1      39.955 -14.447  -0.333  1.00  0.00     0.044 C 
HETATM    8  C   UNL     1      39.612 -13.347  -1.334  1.00  0.00     0.043 C 
HETATM    9  C   UNL     1      40.646 -12.210  -1.248  1.00  0.00     0.068 C 
HETATM   10  C   UNL     1      42.087 -12.723  -1.542  1.00  0.00     0.038 C 
HETATM   11  C   UNL     1      43.123 -11.607  -1.582  1.00  0.00     0.003 C 
HETATM   12  C   UNL     1      42.747 -10.558  -2.617  1.00  0.00     0.000 C 
HETATM   13  C   UNL     1      41.351 -10.005  -2.353  1.00  0.00     0.003 C 
HETATM   14  C   UNL     1      40.295 -11.114  -2.278  1.00  0.00     0.038 C 
HETATM   15  O   UNL     1      40.528 -11.609   0.070  1.00  0.00    -0.340 OA
HETATM   16  C   UNL     1      41.091 -14.724   1.898  1.00  0.00     0.024 C 
HETATM   17  O   UNL     1      41.697 -12.320   4.632  1.00  0.00    -0.292 OA
HETATM   18  C   UNL     1      42.368 -13.128   5.517  1.00  0.00     0.163 C 
HETATM   19  N   UNL     1      42.473 -12.691   6.717  1.00  0.00    -0.277 N 
HETATM   20  H   UNL     1      43.089 -13.204   7.365  1.00  0.00     0.189 HD
HETATM   21  C   UNL     1      42.968 -14.386   5.075  1.00  0.00     0.065 C 
ENDROOT
BRANCH  19  22
HETATM   22  N   UNL     1      41.695 -11.674   7.298  1.00  0.00    -0.266 N 
HETATM   23  C   UNL     1      42.284 -11.101   8.415  1.00  0.00     0.263 C 
HETATM   24  O   UNL     1      43.504 -11.233   8.580  1.00  0.00    -0.269 OA
HETATM   25  H   UNL     1      40.687 -11.707   7.153  1.00  0.00     0.190 HD
BRANCH  23  26
HETATM   26  C   UNL     1      41.361 -10.552   9.522  1.00  0.00     0.214 C 
BRANCH  26  27
HETATM   27  N   UNL     1      40.509  -9.500   8.985  1.00  0.00    -0.319 N 
HETATM   28  C   UNL     1      39.206  -9.667   8.639  1.00  0.00     0.362 C 
HETATM   29  O   UNL     1      38.577 -10.698   8.834  1.00  0.00    -0.238 OA
HETATM   30  H   UNL     1      40.932  -8.634   8.673  1.00  0.00     0.166 HD
BRANCH  28  31
HETATM   31  O   UNL     1      38.751  -8.531   8.080  1.00  0.00    -0.294 OA
BRANCH  31  32
HETATM   32  C   UNL     1      38.873  -8.282   6.653  1.00  0.00     0.061 C 
HETATM   33  C   UNL     1      39.066  -9.590   5.878  1.00  0.00     0.046 C 
HETATM   34  C   UNL     1      37.529  -7.661   6.243  1.00  0.00     0.046 C 
HETATM   35  C   UNL     1      39.992  -7.276   6.365  1.00  0.00     0.046 C 
ENDBRANCH  31  32
ENDBRANCH  28  31
ENDBRANCH  26  27
BRANCH  26  36
HETATM   36  C   UNL     1      42.032 -10.224  10.839  1.00  0.00    -0.026 A 
HETATM   37  C   UNL     1      42.256 -11.268  11.757  1.00  0.00     0.010 A 
HETATM   38  C   UNL     1      42.844 -11.018  12.997  1.00  0.00     0.001 A 
HETATM   39  C   UNL     1      43.224  -9.724  13.339  1.00  0.00     0.000 A 
HETATM   40  C   UNL     1      43.021  -8.681  12.440  1.00  0.00     0.001 A 
HETATM   41  C   UNL     1      42.432  -8.927  11.197  1.00  0.00     0.010 A 
ENDBRANCH  26  36
ENDBRANCH  23  26
ENDBRANCH  19  22
BRANCH   1  42
HETATM   42  C   UNL     1      43.287 -16.173   3.377  1.00  0.00     0.035 C 
HETATM   43  C   UNL     1      42.631 -17.471   3.815  1.00  0.00     0.010 C 
ENDBRANCH   1  42
TORSDOF 7
ENDMDL
