MODEL 1
REMARK VINA RESULT:      -8.0      0.000      0.000
REMARK  6 active torsions:
REMARK  status: ('A' for Active; 'I' for Inactive)
REMARK    1  A    between atoms: C_2  and  C_3 
REMARK    2  A    between atoms: C_2  and  C_9 
REMARK    3  A    between atoms: C_9  and  N_10 
REMARK       I    between atoms: N_10  and  C_11 
REMARK       I    between atoms: C_11  and  N_12 
REMARK    4  A    between atoms: N_12  and  C_13 
REMARK    5  A    between atoms: C_16  and  N_17 
REMARK       I    between atoms: N_17  and  C_18 
REMARK    6  A    between atoms: C_18  and  C_19 
ROOT
HETATM    1  N   UNL     1      42.904 -15.954   3.756  1.00  0.00    -0.342 N 
HETATM    2  C   UNL     1      42.244 -15.423   4.845  1.00  0.00     0.320 C 
HETATM    3  N   UNL     1      41.759 -14.165   4.564  1.00  0.00    -0.309 N 
HETATM    4  O   UNL     1      42.111 -16.039   5.894  1.00  0.00    -0.247 OA
HETATM    5  H   UNL     1      43.285 -15.303   3.085  1.00  0.00     0.164 HD
HETATM    6  H   UNL     1      41.687 -13.939   3.584  1.00  0.00     0.170 HD
ENDROOT
BRANCH   3   7
HETATM    7  C   UNL     1      41.137 -13.281   5.469  1.00  0.00     0.036 A 
HETATM    8  C   UNL     1      39.796 -13.377   5.840  1.00  0.00     0.032 A 
HETATM    9  C   UNL     1      39.235 -12.469   6.749  1.00  0.00     0.032 A 
HETATM   10  C   UNL     1      40.006 -11.447   7.300  1.00  0.00     0.035 A 
HETATM   11  C   UNL     1      41.354 -11.357   6.939  1.00  0.00     0.032 A 
HETATM   12  C   UNL     1      41.918 -12.271   6.039  1.00  0.00     0.032 A 
BRANCH  10  13
HETATM   13  N   UNL     1      39.509 -10.482   8.194  1.00  0.00    -0.321 N 
HETATM   14  C   UNL     1      39.531 -10.503   9.578  1.00  0.00     0.279 C 
HETATM   15  O   UNL     1      40.053 -11.370  10.271  1.00  0.00    -0.265 OA
HETATM   16  H   UNL     1      39.065  -9.662   7.793  1.00  0.00     0.169 HD
BRANCH  14  17
HETATM   17  C   UNL     1      38.859  -9.357  10.166  1.00  0.00     0.142 A 
HETATM   18  O   UNL     1      38.389  -9.433  11.453  1.00  0.00    -0.317 OA
HETATM   19  C   UNL     1      37.829  -8.230  11.745  1.00  0.00     0.143 A 
HETATM   20  C   UNL     1      37.922  -7.379  10.670  1.00  0.00     0.027 A 
HETATM   21  C   UNL     1      38.586  -8.104   9.652  1.00  0.00     0.045 A 
ENDBRANCH  14  17
ENDBRANCH  10  13
ENDBRANCH   3   7
BRANCH   1  22
HETATM   22  C   UNL     1      43.518 -17.273   3.814  1.00  0.00     0.138 C 
BRANCH  22  23
HETATM   23  C   UNL     1      43.353 -18.119   2.513  1.00  0.00    -0.004 C 
HETATM   24  C   UNL     1      44.262 -17.500   1.422  1.00  0.00     0.021 C 
HETATM   25  C   UNL     1      41.903 -17.990   1.990  1.00  0.00     0.021 C 
BRANCH  23  26
HETATM   26  C   UNL     1      43.790 -19.576   2.764  1.00  0.00    -0.046 A 
HETATM   27  C   UNL     1      43.552 -20.569   1.798  1.00  0.00     0.027 A 
HETATM   28  C   UNL     1      43.959 -21.874   2.039  1.00  0.00     0.116 A 
HETATM   29  N   UNL     1      44.589 -22.267   3.162  1.00  0.00    -0.273 NA
HETATM   30  C   UNL     1      44.808 -21.313   4.088  1.00  0.00     0.116 A 
HETATM   31  C   UNL     1      44.438 -19.983   3.937  1.00  0.00     0.027 A 
ENDBRANCH  23  26
ENDBRANCH  22  23
ENDBRANCH   1  22
TORSDOF 6
ENDMDL
MODEL 2
REMARK VINA RESULT:      -8.0      2.573     10.769
REMARK  6 active torsions:
REMARK  status: ('A' for Active; 'I' for Inactive)
REMARK    1  A    between atoms: C_2  and  C_3 
REMARK    2  A    between atoms: C_2  and  C_9 
REMARK    3  A    between atoms: C_9  and  N_10 
REMARK       I    between atoms: N_10  and  C_11 
REMARK       I    between atoms: C_11  and  N_12 
REMARK    4  A    between atoms: N_12  and  C_13 
REMARK    5  A    between atoms: C_16  and  N_17 
REMARK       I    between atoms: N_17  and  C_18 
REMARK    6  A    between atoms: C_18  and  C_19 
ROOT
HETATM    1  N   UNL     1      39.753 -11.896   7.040  1.00  0.00    -0.342 N 
HETATM    2  C   UNL     1      40.527 -12.695   6.224  1.00  0.00     0.320 C 
HETATM    3  N   UNL     1      39.998 -13.963   6.128  1.00  0.00    -0.309 N 
HETATM    4  O   UNL     1      41.531 -12.278   5.663  1.00  0.00    -0.247 OA
HETATM    5  H   UNL     1      39.181 -12.360   7.732  1.00  0.00     0.164 HD
HETATM    6  H   UNL     1      39.030 -14.048   6.393  1.00  0.00     0.170 HD
ENDROOT
BRANCH   3   7
HETATM    7  C   UNL     1      40.580 -15.070   5.477  1.00  0.00     0.036 A 
HETATM    8  C   UNL     1      40.743 -15.152   4.094  1.00  0.00     0.032 A 
HETATM    9  C   UNL     1      41.332 -16.280   3.506  1.00  0.00     0.032 A 
HETATM   10  C   UNL     1      41.767 -17.346   4.291  1.00  0.00     0.035 A 
HETATM   11  C   UNL     1      41.617 -17.259   5.679  1.00  0.00     0.032 A 
HETATM   12  C   UNL     1      41.037 -16.128   6.268  1.00  0.00     0.032 A 
BRANCH  10  13
HETATM   13  N   UNL     1      42.341 -18.521   3.774  1.00  0.00    -0.321 N 
HETATM   14  C   UNL     1      43.662 -18.930   3.837  1.00  0.00     0.279 C 
HETATM   15  O   UNL     1      44.565 -18.340   4.420  1.00  0.00    -0.265 OA
HETATM   16  H   UNL     1      41.726 -19.160   3.280  1.00  0.00     0.169 HD
BRANCH  14  17
HETATM   17  C   UNL     1      43.897 -20.176   3.127  1.00  0.00     0.142 A 
HETATM   18  O   UNL     1      44.574 -21.194   3.750  1.00  0.00    -0.317 OA
HETATM   19  C   UNL     1      44.634 -22.229   2.872  1.00  0.00     0.143 A 
HETATM   20  C   UNL     1      44.014 -21.899   1.691  1.00  0.00     0.027 A 
HETATM   21  C   UNL     1      43.538 -20.576   1.854  1.00  0.00     0.045 A 
ENDBRANCH  14  17
ENDBRANCH  10  13
ENDBRANCH   3   7
BRANCH   1  22
HETATM   22  C   UNL     1      40.117 -10.512   7.309  1.00  0.00     0.138 C 
BRANCH  22  23
HETATM   23  C   UNL     1      40.040 -10.105   8.814  1.00  0.00    -0.004 C 
HETATM   24  C   UNL     1      38.814 -10.818   9.439  1.00  0.00     0.021 C 
HETATM   25  C   UNL     1      39.760  -8.588   8.928  1.00  0.00     0.021 C 
BRANCH  23  26
HETATM   26  C   UNL     1      41.314 -10.555   9.555  1.00  0.00    -0.046 A 
HETATM   27  C   UNL     1      42.549 -10.602   8.887  1.00  0.00     0.027 A 
HETATM   28  C   UNL     1      43.687 -11.003   9.574  1.00  0.00     0.116 A 
HETATM   29  N   UNL     1      43.693 -11.354  10.874  1.00  0.00    -0.273 NA
HETATM   30  C   UNL     1      42.505 -11.313  11.508  1.00  0.00     0.116 A 
HETATM   31  C   UNL     1      41.314 -10.926  10.906  1.00  0.00     0.027 A 
ENDBRANCH  23  26
ENDBRANCH  22  23
ENDBRANCH   1  22
TORSDOF 6
ENDMDL
MODEL 3
REMARK VINA RESULT:      -7.7      6.301      9.267
REMARK  6 active torsions:
REMARK  status: ('A' for Active; 'I' for Inactive)
REMARK    1  A    between atoms: C_2  and  C_3 
REMARK    2  A    between atoms: C_2  and  C_9 
REMARK    3  A    between atoms: C_9  and  N_10 
REMARK       I    between atoms: N_10  and  C_11 
REMARK       I    between atoms: C_11  and  N_12 
REMARK    4  A    between atoms: N_12  and  C_13 
REMARK    5  A    between atoms: C_16  and  N_17 
REMARK       I    between atoms: N_17  and  C_18 
REMARK    6  A    between atoms: C_18  and  C_19 
ROOT
HETATM    1  N   UNL     1      40.991 -16.138   4.187  1.00  0.00    -0.342 N 
HETATM    2  C   UNL     1      40.518 -16.175   2.891  1.00  0.00     0.320 C 
HETATM    3  N   UNL     1      40.267 -14.906   2.419  1.00  0.00    -0.309 N 
HETATM    4  O   UNL     1      40.379 -17.224   2.275  1.00  0.00    -0.247 OA
HETATM    5  H   UNL     1      40.750 -15.330   4.743  1.00  0.00     0.164 HD
HETATM    6  H   UNL     1      40.716 -14.161   2.928  1.00  0.00     0.170 HD
ENDROOT
BRANCH   3   7
HETATM    7  C   UNL     1      39.672 -14.569   1.187  1.00  0.00     0.036 A 
HETATM    8  C   UNL     1      40.381 -14.476  -0.011  1.00  0.00     0.032 A 
HETATM    9  C   UNL     1      39.730 -14.138  -1.206  1.00  0.00     0.032 A 
HETATM   10  C   UNL     1      38.360 -13.885  -1.223  1.00  0.00     0.035 A 
HETATM   11  C   UNL     1      37.646 -13.991  -0.025  1.00  0.00     0.032 A 
HETATM   12  C   UNL     1      38.293 -14.338   1.168  1.00  0.00     0.032 A 
BRANCH  10  13
HETATM   13  N   UNL     1      37.643 -13.514  -2.375  1.00  0.00    -0.321 N 
HETATM   14  C   UNL     1      37.256 -14.312  -3.438  1.00  0.00     0.279 C 
HETATM   15  O   UNL     1      37.434 -15.522  -3.525  1.00  0.00    -0.265 OA
HETATM   16  H   UNL     1      37.374 -12.540  -2.460  1.00  0.00     0.169 HD
BRANCH  14  17
HETATM   17  C   UNL     1      36.584 -13.561  -4.485  1.00  0.00     0.142 A 
HETATM   18  O   UNL     1      35.945 -14.232  -5.498  1.00  0.00    -0.317 OA
HETATM   19  C   UNL     1      35.400 -13.294  -6.315  1.00  0.00     0.143 A 
HETATM   20  C   UNL     1      35.678 -12.030  -5.855  1.00  0.00     0.027 A 
HETATM   21  C   UNL     1      36.442 -12.200  -4.676  1.00  0.00     0.045 A 
ENDBRANCH  14  17
ENDBRANCH  10  13
ENDBRANCH   3   7
BRANCH   1  22
HETATM   22  C   UNL     1      41.314 -17.361   4.908  1.00  0.00     0.138 C 
BRANCH  22  23
HETATM   23  C   UNL     1      42.790 -17.442   5.410  1.00  0.00    -0.004 C 
HETATM   24  C   UNL     1      42.763 -17.779   6.922  1.00  0.00     0.021 C 
HETATM   25  C   UNL     1      43.457 -16.051   5.291  1.00  0.00     0.021 C 
BRANCH  23  26
HETATM   26  C   UNL     1      43.549 -18.555   4.661  1.00  0.00    -0.046 A 
HETATM   27  C   UNL     1      43.409 -18.703   3.270  1.00  0.00     0.027 A 
HETATM   28  C   UNL     1      44.106 -19.707   2.612  1.00  0.00     0.116 A 
HETATM   29  N   UNL     1      44.936 -20.571   3.227  1.00  0.00    -0.273 NA
HETATM   30  C   UNL     1      45.062 -20.428   4.562  1.00  0.00     0.116 A 
HETATM   31  C   UNL     1      44.406 -19.456   5.306  1.00  0.00     0.027 A 
ENDBRANCH  23  26
ENDBRANCH  22  23
ENDBRANCH   1  22
TORSDOF 6
ENDMDL
MODEL 4
REMARK VINA RESULT:      -7.4      7.132      9.730
REMARK  6 active torsions:
REMARK  status: ('A' for Active; 'I' for Inactive)
REMARK    1  A    between atoms: C_2  and  C_3 
REMARK    2  A    between atoms: C_2  and  C_9 
REMARK    3  A    between atoms: C_9  and  N_10 
REMARK       I    between atoms: N_10  and  C_11 
REMARK       I    between atoms: C_11  and  N_12 
REMARK    4  A    between atoms: N_12  and  C_13 
REMARK    5  A    between atoms: C_16  and  N_17 
REMARK       I    between atoms: N_17  and  C_18 
REMARK    6  A    between atoms: C_18  and  C_19 
ROOT
HETATM    1  N   UNL     1      41.573 -17.699   1.231  1.00  0.00    -0.342 N 
HETATM    2  C   UNL     1      41.320 -16.425   0.766  1.00  0.00     0.320 C 
HETATM    3  N   UNL     1      40.921 -16.451  -0.552  1.00  0.00    -0.309 N 
HETATM    4  O   UNL     1      41.427 -15.436   1.477  1.00  0.00    -0.247 OA
HETATM    5  H   UNL     1      41.815 -18.401   0.547  1.00  0.00     0.164 HD
HETATM    6  H   UNL     1      40.595 -17.344  -0.887  1.00  0.00     0.170 HD
ENDROOT
BRANCH   3   7
HETATM    7  C   UNL     1      40.691 -15.335  -1.383  1.00  0.00     0.036 A 
HETATM    8  C   UNL     1      39.971 -14.211  -0.981  1.00  0.00     0.032 A 
HETATM    9  C   UNL     1      39.778 -13.131  -1.854  1.00  0.00     0.032 A 
HETATM   10  C   UNL     1      40.301 -13.159  -3.145  1.00  0.00     0.035 A 
HETATM   11  C   UNL     1      41.035 -14.280  -3.546  1.00  0.00     0.032 A 
HETATM   12  C   UNL     1      41.237 -15.355  -2.670  1.00  0.00     0.032 A 
BRANCH  10  13
HETATM   13  N   UNL     1      40.127 -12.128  -4.087  1.00  0.00    -0.321 N 
HETATM   14  C   UNL     1      41.080 -11.267  -4.601  1.00  0.00     0.279 C 
HETATM   15  O   UNL     1      42.280 -11.298  -4.352  1.00  0.00    -0.265 OA
HETATM   16  H   UNL     1      39.188 -11.975  -4.439  1.00  0.00     0.169 HD
BRANCH  14  17
HETATM   17  C   UNL     1      40.514 -10.282  -5.508  1.00  0.00     0.142 A 
HETATM   18  O   UNL     1      41.332  -9.622  -6.390  1.00  0.00    -0.317 OA
HETATM   19  C   UNL     1      40.545  -8.785  -7.114  1.00  0.00     0.143 A 
HETATM   20  C   UNL     1      39.234  -8.885  -6.713  1.00  0.00     0.027 A 
HETATM   21  C   UNL     1      39.212  -9.850  -5.678  1.00  0.00     0.045 A 
ENDBRANCH  14  17
ENDBRANCH  10  13
ENDBRANCH   3   7
BRANCH   1  22
HETATM   22  C   UNL     1      42.024 -17.929   2.597  1.00  0.00     0.138 C 
BRANCH  22  23
HETATM   23  C   UNL     1      43.562 -18.156   2.739  1.00  0.00    -0.004 C 
HETATM   24  C   UNL     1      44.027 -17.472   4.049  1.00  0.00     0.021 C 
HETATM   25  C   UNL     1      44.302 -17.434   1.589  1.00  0.00     0.021 C 
BRANCH  23  26
HETATM   26  C   UNL     1      43.874 -19.664   2.821  1.00  0.00    -0.046 A 
HETATM   27  C   UNL     1      43.559 -20.517   1.749  1.00  0.00     0.027 A 
HETATM   28  C   UNL     1      43.854 -21.870   1.840  1.00  0.00     0.116 A 
HETATM   29  N   UNL     1      44.442 -22.440   2.908  1.00  0.00    -0.273 NA
HETATM   30  C   UNL     1      44.736 -21.619   3.935  1.00  0.00     0.116 A 
HETATM   31  C   UNL     1      44.479 -20.253   3.938  1.00  0.00     0.027 A 
ENDBRANCH  23  26
ENDBRANCH  22  23
ENDBRANCH   1  22
TORSDOF 6
ENDMDL
MODEL 5
REMARK VINA RESULT:      -7.2      5.571      8.506
REMARK  6 active torsions:
REMARK  status: ('A' for Active; 'I' for Inactive)
REMARK    1  A    between atoms: C_2  and  C_3 
REMARK    2  A    between atoms: C_2  and  C_9 
REMARK    3  A    between atoms: C_9  and  N_10 
REMARK       I    between atoms: N_10  and  C_11 
REMARK       I    between atoms: C_11  and  N_12 
REMARK    4  A    between atoms: N_12  and  C_13 
REMARK    5  A    between atoms: C_16  and  N_17 
REMARK       I    between atoms: N_17  and  C_18 
REMARK    6  A    between atoms: C_18  and  C_19 
ROOT
HETATM    1  N   UNL     1      41.244 -17.212   5.195  1.00  0.00    -0.342 N 
HETATM    2  C   UNL     1      40.931 -16.155   4.364  1.00  0.00     0.320 C 
HETATM    3  N   UNL     1      40.581 -16.600   3.109  1.00  0.00    -0.309 N 
HETATM    4  O   UNL     1      40.954 -14.993   4.747  1.00  0.00    -0.247 OA
HETATM    5  H   UNL     1      41.552 -18.068   4.756  1.00  0.00     0.164 HD
HETATM    6  H   UNL     1      40.320 -17.572   3.053  1.00  0.00     0.170 HD
ENDROOT
BRANCH   3   7
HETATM    7  C   UNL     1      40.313 -15.802   1.978  1.00  0.00     0.036 A 
HETATM    8  C   UNL     1      41.167 -15.713   0.879  1.00  0.00     0.032 A 
HETATM    9  C   UNL     1      40.843 -14.903  -0.219  1.00  0.00     0.032 A 
HETATM   10  C   UNL     1      39.660 -14.168  -0.235  1.00  0.00     0.035 A 
HETATM   11  C   UNL     1      38.796 -14.267   0.861  1.00  0.00     0.032 A 
HETATM   12  C   UNL     1      39.114 -15.084   1.953  1.00  0.00     0.032 A 
BRANCH  10  13
HETATM   13  N   UNL     1      39.280 -13.313  -1.285  1.00  0.00    -0.321 N 
HETATM   14  C   UNL     1      38.512 -13.611  -2.398  1.00  0.00     0.279 C 
HETATM   15  O   UNL     1      37.976 -14.690  -2.628  1.00  0.00    -0.265 OA
HETATM   16  H   UNL     1      39.608 -12.354  -1.245  1.00  0.00     0.169 HD
BRANCH  14  17
HETATM   17  C   UNL     1      38.383 -12.484  -3.307  1.00  0.00     0.142 A 
HETATM   18  O   UNL     1      37.150 -12.159  -3.813  1.00  0.00    -0.317 OA
HETATM   19  C   UNL     1      37.320 -11.072  -4.610  1.00  0.00     0.143 A 
HETATM   20  C   UNL     1      38.641 -10.692  -4.634  1.00  0.00     0.027 A 
HETATM   21  C   UNL     1      39.327 -11.601  -3.795  1.00  0.00     0.045 A 
ENDBRANCH  14  17
ENDBRANCH  10  13
ENDBRANCH   3   7
BRANCH   1  22
HETATM   22  C   UNL     1      41.660 -16.992   6.573  1.00  0.00     0.138 C 
BRANCH  22  23
HETATM   23  C   UNL     1      43.191 -17.173   6.821  1.00  0.00    -0.004 C 
HETATM   24  C   UNL     1      43.423 -17.227   8.352  1.00  0.00     0.021 C 
HETATM   25  C   UNL     1      43.951 -15.926   6.314  1.00  0.00     0.021 C 
BRANCH  23  26
HETATM   26  C   UNL     1      43.682 -18.492   6.192  1.00  0.00    -0.046 A 
HETATM   27  C   UNL     1      44.220 -18.506   4.894  1.00  0.00     0.027 A 
HETATM   28  C   UNL     1      44.663 -19.703   4.347  1.00  0.00     0.116 A 
HETATM   29  N   UNL     1      44.618 -20.884   4.991  1.00  0.00    -0.273 NA
HETATM   30  C   UNL     1      44.095 -20.866   6.233  1.00  0.00     0.116 A 
HETATM   31  C   UNL     1      43.626 -19.720   6.863  1.00  0.00     0.027 A 
ENDBRANCH  23  26
ENDBRANCH  22  23
ENDBRANCH   1  22
TORSDOF 6
ENDMDL
MODEL 6
REMARK VINA RESULT:      -7.2      7.264     10.226
REMARK  6 active torsions:
REMARK  status: ('A' for Active; 'I' for Inactive)
REMARK    1  A    between atoms: C_2  and  C_3 
REMARK    2  A    between atoms: C_2  and  C_9 
REMARK    3  A    between atoms: C_9  and  N_10 
REMARK       I    between atoms: N_10  and  C_11 
REMARK       I    between atoms: C_11  and  N_12 
REMARK    4  A    between atoms: N_12  and  C_13 
REMARK    5  A    between atoms: C_16  and  N_17 
REMARK       I    between atoms: N_17  and  C_18 
REMARK    6  A    between atoms: C_18  and  C_19 
ROOT
HETATM    1  N   UNL     1      42.800 -16.656   0.608  1.00  0.00    -0.342 N 
HETATM    2  C   UNL     1      41.872 -15.722   0.195  1.00  0.00     0.320 C 
HETATM    3  N   UNL     1      41.212 -16.147  -0.936  1.00  0.00    -0.309 N 
HETATM    4  O   UNL     1      41.682 -14.676   0.802  1.00  0.00    -0.247 OA
HETATM    5  H   UNL     1      43.159 -17.290  -0.092  1.00  0.00     0.164 HD
HETATM    6  H   UNL     1      41.267 -17.136  -1.122  1.00  0.00     0.170 HD
ENDROOT
BRANCH   3   7
HETATM    7  C   UNL     1      40.285 -15.406  -1.698  1.00  0.00     0.036 A 
HETATM    8  C   UNL     1      39.526 -14.357  -1.180  1.00  0.00     0.032 A 
HETATM    9  C   UNL     1      38.621 -13.656  -1.990  1.00  0.00     0.032 A 
HETATM   10  C   UNL     1      38.460 -13.994  -3.332  1.00  0.00     0.035 A 
HETATM   11  C   UNL     1      39.231 -15.037  -3.857  1.00  0.00     0.032 A 
HETATM   12  C   UNL     1      40.142 -15.731  -3.050  1.00  0.00     0.032 A 
BRANCH  10  13
HETATM   13  N   UNL     1      37.554 -13.358  -4.200  1.00  0.00    -0.321 N 
HETATM   14  C   UNL     1      36.340 -13.829  -4.669  1.00  0.00     0.279 C 
HETATM   15  O   UNL     1      35.815 -14.891  -4.351  1.00  0.00    -0.265 OA
HETATM   16  H   UNL     1      37.810 -12.438  -4.545  1.00  0.00     0.169 HD
BRANCH  14  17
HETATM   17  C   UNL     1      35.710 -12.916  -5.607  1.00  0.00     0.142 A 
HETATM   18  O   UNL     1      34.618 -13.331  -6.328  1.00  0.00    -0.317 OA
HETATM   19  C   UNL     1      34.231 -12.284  -7.102  1.00  0.00     0.143 A 
HETATM   20  C   UNL     1      35.054 -11.202  -6.902  1.00  0.00     0.027 A 
HETATM   21  C   UNL     1      36.008 -11.608  -5.939  1.00  0.00     0.045 A 
ENDBRANCH  14  17
ENDBRANCH  10  13
ENDBRANCH   3   7
BRANCH   1  22
HETATM   22  C   UNL     1      43.636 -16.425   1.777  1.00  0.00     0.138 C 
BRANCH  22  23
HETATM   23  C   UNL     1      43.071 -17.027   3.102  1.00  0.00    -0.004 C 
HETATM   24  C   UNL     1      41.568 -17.335   2.885  1.00  0.00     0.021 C 
HETATM   25  C   UNL     1      43.136 -15.965   4.225  1.00  0.00     0.021 C 
BRANCH  23  26
HETATM   26  C   UNL     1      43.807 -18.336   3.450  1.00  0.00    -0.046 A 
HETATM   27  C   UNL     1      44.212 -18.598   4.770  1.00  0.00     0.027 A 
HETATM   28  C   UNL     1      44.868 -19.786   5.065  1.00  0.00     0.116 A 
HETATM   29  N   UNL     1      45.146 -20.735   4.152  1.00  0.00    -0.273 NA
HETATM   30  C   UNL     1      44.761 -20.476   2.886  1.00  0.00     0.116 A 
HETATM   31  C   UNL     1      44.101 -19.318   2.495  1.00  0.00     0.027 A 
ENDBRANCH  23  26
ENDBRANCH  22  23
ENDBRANCH   1  22
TORSDOF 6
ENDMDL
MODEL 7
REMARK VINA RESULT:      -7.2      4.493     10.274
REMARK  6 active torsions:
REMARK  status: ('A' for Active; 'I' for Inactive)
REMARK    1  A    between atoms: C_2  and  C_3 
REMARK    2  A    between atoms: C_2  and  C_9 
REMARK    3  A    between atoms: C_9  and  N_10 
REMARK       I    between atoms: N_10  and  C_11 
REMARK       I    between atoms: C_11  and  N_12 
REMARK    4  A    between atoms: N_12  and  C_13 
REMARK    5  A    between atoms: C_16  and  N_17 
REMARK       I    between atoms: N_17  and  C_18 
REMARK    6  A    between atoms: C_18  and  C_19 
ROOT
HETATM    1  N   UNL     1      40.982 -10.196   9.344  1.00  0.00    -0.342 N 
HETATM    2  C   UNL     1      41.301 -10.410   8.019  1.00  0.00     0.320 C 
HETATM    3  N   UNL     1      40.641 -11.511   7.522  1.00  0.00    -0.309 N 
HETATM    4  O   UNL     1      42.060  -9.674   7.403  1.00  0.00    -0.247 OA
HETATM    5  H   UNL     1      40.664 -10.994   9.876  1.00  0.00     0.164 HD
HETATM    6  H   UNL     1      39.839 -11.810   8.055  1.00  0.00     0.170 HD
ENDROOT
BRANCH   3   7
HETATM    7  C   UNL     1      40.812 -12.091   6.248  1.00  0.00     0.036 A 
HETATM    8  C   UNL     1      41.978 -12.743   5.850  1.00  0.00     0.032 A 
HETATM    9  C   UNL     1      42.087 -13.303   4.569  1.00  0.00     0.032 A 
HETATM   10  C   UNL     1      41.031 -13.218   3.664  1.00  0.00     0.035 A 
HETATM   11  C   UNL     1      39.855 -12.576   4.067  1.00  0.00     0.032 A 
HETATM   12  C   UNL     1      39.743 -12.025   5.350  1.00  0.00     0.032 A 
BRANCH  10  13
HETATM   13  N   UNL     1      41.074 -13.729   2.355  1.00  0.00    -0.321 N 
HETATM   14  C   UNL     1      41.742 -13.217   1.256  1.00  0.00     0.279 C 
HETATM   15  O   UNL     1      42.472 -12.232   1.259  1.00  0.00    -0.265 OA
HETATM   16  H   UNL     1      40.547 -14.576   2.169  1.00  0.00     0.169 HD
BRANCH  14  17
HETATM   17  C   UNL     1      41.498 -13.984   0.046  1.00  0.00     0.142 A 
HETATM   18  O   UNL     1      41.641 -13.381  -1.179  1.00  0.00    -0.317 OA
HETATM   19  C   UNL     1      41.371 -14.323  -2.120  1.00  0.00     0.143 A 
HETATM   20  C   UNL     1      41.051 -15.522  -1.529  1.00  0.00     0.027 A 
HETATM   21  C   UNL     1      41.132 -15.305  -0.133  1.00  0.00     0.045 A 
ENDBRANCH  14  17
ENDBRANCH  10  13
ENDBRANCH   3   7
BRANCH   1  22
HETATM   22  C   UNL     1      41.568  -9.095  10.095  1.00  0.00     0.138 C 
BRANCH  22  23
HETATM   23  C   UNL     1      42.204  -9.511  11.458  1.00  0.00    -0.004 C 
HETATM   24  C   UNL     1      41.091 -10.140  12.334  1.00  0.00     0.021 C 
HETATM   25  C   UNL     1      42.685  -8.250  12.213  1.00  0.00     0.021 C 
BRANCH  23  26
HETATM   26  C   UNL     1      43.316 -10.556  11.233  1.00  0.00    -0.046 A 
HETATM   27  C   UNL     1      44.412 -10.264  10.404  1.00  0.00     0.027 A 
HETATM   28  C   UNL     1      45.406 -11.215  10.218  1.00  0.00     0.116 A 
HETATM   29  N   UNL     1      45.398 -12.430  10.798  1.00  0.00    -0.273 NA
HETATM   30  C   UNL     1      44.342 -12.707  11.587  1.00  0.00     0.116 A 
HETATM   31  C   UNL     1      43.299 -11.822  11.832  1.00  0.00     0.027 A 
ENDBRANCH  23  26
ENDBRANCH  22  23
ENDBRANCH   1  22
TORSDOF 6
ENDMDL
MODEL 8
REMARK VINA RESULT:      -7.1      6.227     10.290
REMARK  6 active torsions:
REMARK  status: ('A' for Active; 'I' for Inactive)
REMARK    1  A    between atoms: C_2  and  C_3 
REMARK    2  A    between atoms: C_2  and  C_9 
REMARK    3  A    between atoms: C_9  and  N_10 
REMARK       I    between atoms: N_10  and  C_11 
REMARK       I    between atoms: C_11  and  N_12 
REMARK    4  A    between atoms: N_12  and  C_13 
REMARK    5  A    between atoms: C_16  and  N_17 
REMARK       I    between atoms: N_17  and  C_18 
REMARK    6  A    between atoms: C_18  and  C_19 
ROOT
HETATM    1  N   UNL     1      39.711 -12.471   0.038  1.00  0.00    -0.342 N 
HETATM    2  C   UNL     1      39.765 -13.712   0.638  1.00  0.00     0.320 C 
HETATM    3  N   UNL     1      41.035 -13.990   1.089  1.00  0.00    -0.309 N 
HETATM    4  O   UNL     1      38.777 -14.427   0.750  1.00  0.00    -0.247 OA
HETATM    5  H   UNL     1      40.574 -12.103  -0.338  1.00  0.00     0.164 HD
HETATM    6  H   UNL     1      41.641 -13.190   1.192  1.00  0.00     0.170 HD
ENDROOT
BRANCH   3   7
HETATM    7  C   UNL     1      41.484 -15.205   1.646  1.00  0.00     0.036 A 
HETATM    8  C   UNL     1      41.131 -15.645   2.921  1.00  0.00     0.032 A 
HETATM    9  C   UNL     1      41.609 -16.866   3.418  1.00  0.00     0.032 A 
HETATM   10  C   UNL     1      42.449 -17.666   2.648  1.00  0.00     0.035 A 
HETATM   11  C   UNL     1      42.794 -17.233   1.363  1.00  0.00     0.032 A 
HETATM   12  C   UNL     1      42.309 -16.018   0.863  1.00  0.00     0.032 A 
BRANCH  10  13
HETATM   13  N   UNL     1      42.991 -18.888   3.086  1.00  0.00    -0.321 N 
HETATM   14  C   UNL     1      43.972 -19.099   4.040  1.00  0.00     0.279 C 
HETATM   15  O   UNL     1      44.507 -18.228   4.718  1.00  0.00    -0.265 OA
HETATM   16  H   UNL     1      42.636 -19.735   2.654  1.00  0.00     0.169 HD
BRANCH  14  17
HETATM   17  C   UNL     1      44.324 -20.501   4.180  1.00  0.00     0.142 A 
HETATM   18  O   UNL     1      44.301 -21.320   3.079  1.00  0.00    -0.317 OA
HETATM   19  C   UNL     1      44.685 -22.556   3.493  1.00  0.00     0.143 A 
HETATM   20  C   UNL     1      44.950 -22.554   4.841  1.00  0.00     0.027 A 
HETATM   21  C   UNL     1      44.718 -21.231   5.286  1.00  0.00     0.045 A 
ENDBRANCH  14  17
ENDBRANCH  10  13
ENDBRANCH   3   7
BRANCH   1  22
HETATM   22  C   UNL     1      38.473 -11.959  -0.532  1.00  0.00     0.138 C 
BRANCH  22  23
HETATM   23  C   UNL     1      38.490 -11.817  -2.086  1.00  0.00    -0.004 C 
HETATM   24  C   UNL     1      39.265 -10.523  -2.440  1.00  0.00     0.021 C 
HETATM   25  C   UNL     1      37.047 -11.610  -2.604  1.00  0.00     0.021 C 
BRANCH  23  26
HETATM   26  C   UNL     1      39.206 -13.022  -2.726  1.00  0.00    -0.046 A 
HETATM   27  C   UNL     1      40.578 -12.960  -3.026  1.00  0.00     0.027 A 
HETATM   28  C   UNL     1      41.207 -14.058  -3.596  1.00  0.00     0.116 A 
HETATM   29  N   UNL     1      40.581 -15.215  -3.885  1.00  0.00    -0.273 NA
HETATM   30  C   UNL     1      39.265 -15.267  -3.601  1.00  0.00     0.116 A 
HETATM   31  C   UNL     1      38.549 -14.221  -3.032  1.00  0.00     0.027 A 
ENDBRANCH  23  26
ENDBRANCH  22  23
ENDBRANCH   1  22
TORSDOF 6
ENDMDL
MODEL 9
REMARK VINA RESULT:      -7.1      4.732     10.750
REMARK  6 active torsions:
REMARK  status: ('A' for Active; 'I' for Inactive)
REMARK    1  A    between atoms: C_2  and  C_3 
REMARK    2  A    between atoms: C_2  and  C_9 
REMARK    3  A    between atoms: C_9  and  N_10 
REMARK       I    between atoms: N_10  and  C_11 
REMARK       I    between atoms: C_11  and  N_12 
REMARK    4  A    between atoms: N_12  and  C_13 
REMARK    5  A    between atoms: C_16  and  N_17 
REMARK       I    between atoms: N_17  and  C_18 
REMARK    6  A    between atoms: C_18  and  C_19 
ROOT
HETATM    1  N   UNL     1      43.113 -12.081   8.132  1.00  0.00    -0.342 N 
HETATM    2  C   UNL     1      42.391 -12.020   6.958  1.00  0.00     0.320 C 
HETATM    3  N   UNL     1      42.506 -13.193   6.245  1.00  0.00    -0.309 N 
HETATM    4  O   UNL     1      41.730 -11.038   6.646  1.00  0.00    -0.247 OA
HETATM    5  H   UNL     1      43.889 -12.726   8.163  1.00  0.00     0.164 HD
HETATM    6  H   UNL     1      42.823 -13.990   6.775  1.00  0.00     0.170 HD
ENDROOT
BRANCH   3   7
HETATM    7  C   UNL     1      42.001 -13.446   4.953  1.00  0.00     0.036 A 
HETATM    8  C   UNL     1      40.743 -13.997   4.712  1.00  0.00     0.032 A 
HETATM    9  C   UNL     1      40.296 -14.222   3.403  1.00  0.00     0.032 A 
HETATM   10  C   UNL     1      41.101 -13.902   2.312  1.00  0.00     0.035 A 
HETATM   11  C   UNL     1      42.358 -13.337   2.552  1.00  0.00     0.032 A 
HETATM   12  C   UNL     1      42.801 -13.102   3.860  1.00  0.00     0.032 A 
BRANCH  10  13
HETATM   13  N   UNL     1      40.735 -14.124   0.972  1.00  0.00    -0.321 N 
HETATM   14  C   UNL     1      41.161 -15.130   0.122  1.00  0.00     0.279 C 
HETATM   15  O   UNL     1      41.910 -16.052   0.425  1.00  0.00    -0.265 OA
HETATM   16  H   UNL     1      40.084 -13.468   0.554  1.00  0.00     0.169 HD
BRANCH  14  17
HETATM   17  C   UNL     1      40.617 -14.998  -1.219  1.00  0.00     0.142 A 
HETATM   18  O   UNL     1      39.536 -14.179  -1.434  1.00  0.00    -0.317 OA
HETATM   19  C   UNL     1      39.254 -14.234  -2.762  1.00  0.00     0.143 A 
HETATM   20  C   UNL     1      40.126 -15.076  -3.409  1.00  0.00     0.027 A 
HETATM   21  C   UNL     1      41.005 -15.569  -2.416  1.00  0.00     0.045 A 
ENDBRANCH  14  17
ENDBRANCH  10  13
ENDBRANCH   3   7
BRANCH   1  22
HETATM   22  C   UNL     1      43.157 -10.952   9.050  1.00  0.00     0.138 C 
BRANCH  22  23
HETATM   23  C   UNL     1      43.935 -11.229  10.375  1.00  0.00    -0.004 C 
HETATM   24  C   UNL     1      45.215 -10.355  10.369  1.00  0.00     0.021 C 
HETATM   25  C   UNL     1      44.418 -12.698  10.397  1.00  0.00     0.021 C 
BRANCH  23  26
HETATM   26  C   UNL     1      43.071 -10.846  11.593  1.00  0.00    -0.046 A 
HETATM   27  C   UNL     1      43.610 -10.074  12.636  1.00  0.00     0.027 A 
HETATM   28  C   UNL     1      42.814  -9.734  13.721  1.00  0.00     0.116 A 
HETATM   29  N   UNL     1      41.524 -10.096  13.847  1.00  0.00    -0.273 NA
HETATM   30  C   UNL     1      41.014 -10.842  12.847  1.00  0.00     0.116 A 
HETATM   31  C   UNL     1      41.731 -11.232  11.723  1.00  0.00     0.027 A 
ENDBRANCH  23  26
ENDBRANCH  22  23
ENDBRANCH   1  22
TORSDOF 6
ENDMDL
MODEL 10
REMARK VINA RESULT:      -7.0      5.799      7.249
REMARK  6 active torsions:
REMARK  status: ('A' for Active; 'I' for Inactive)
REMARK    1  A    between atoms: C_2  and  C_3 
REMARK    2  A    between atoms: C_2  and  C_9 
REMARK    3  A    between atoms: C_9  and  N_10 
REMARK       I    between atoms: N_10  and  C_11 
REMARK       I    between atoms: C_11  and  N_12 
REMARK    4  A    between atoms: N_12  and  C_13 
REMARK    5  A    between atoms: C_16  and  N_17 
REMARK       I    between atoms: N_17  and  C_18 
REMARK    6  A    between atoms: C_18  and  C_19 
ROOT
HETATM    1  N   UNL     1      41.754 -16.384   3.613  1.00  0.00    -0.342 N 
HETATM    2  C   UNL     1      41.277 -15.366   2.813  1.00  0.00     0.320 C 
HETATM    3  N   UNL     1      39.961 -15.084   3.103  1.00  0.00    -0.309 N 
HETATM    4  O   UNL     1      41.979 -14.803   1.983  1.00  0.00    -0.247 OA
HETATM    5  H   UNL     1      41.075 -17.026   3.997  1.00  0.00     0.164 HD
HETATM    6  H   UNL     1      39.636 -15.416   3.998  1.00  0.00     0.170 HD
ENDROOT
BRANCH   3   7
HETATM    7  C   UNL     1      39.120 -14.188   2.412  1.00  0.00     0.036 A 
HETATM    8  C   UNL     1      39.090 -12.815   2.657  1.00  0.00     0.032 A 
HETATM    9  C   UNL     1      38.233 -11.975   1.933  1.00  0.00     0.032 A 
HETATM   10  C   UNL     1      37.389 -12.494   0.954  1.00  0.00     0.035 A 
HETATM   11  C   UNL     1      37.427 -13.868   0.698  1.00  0.00     0.032 A 
HETATM   12  C   UNL     1      38.291 -14.707   1.414  1.00  0.00     0.032 A 
BRANCH  10  13
HETATM   13  N   UNL     1      36.482 -11.720   0.207  1.00  0.00    -0.321 N 
HETATM   14  C   UNL     1      36.643 -11.202  -1.067  1.00  0.00     0.279 C 
HETATM   15  O   UNL     1      37.612 -11.385  -1.795  1.00  0.00    -0.265 OA
HETATM   16  H   UNL     1      35.594 -11.495   0.643  1.00  0.00     0.169 HD
BRANCH  14  17
HETATM   17  C   UNL     1      35.512 -10.393  -1.489  1.00  0.00     0.142 A 
HETATM   18  O   UNL     1      35.694  -9.413  -2.433  1.00  0.00    -0.317 OA
HETATM   19  C   UNL     1      34.483  -8.834  -2.644  1.00  0.00     0.143 A 
HETATM   20  C   UNL     1      33.523  -9.416  -1.852  1.00  0.00     0.027 A 
HETATM   21  C   UNL     1      34.184 -10.421  -1.107  1.00  0.00     0.045 A 
ENDBRANCH  14  17
ENDBRANCH  10  13
ENDBRANCH   3   7
BRANCH   1  22
HETATM   22  C   UNL     1      43.119 -16.871   3.482  1.00  0.00     0.138 C 
BRANCH  22  23
HETATM   23  C   UNL     1      43.300 -18.011   2.431  1.00  0.00    -0.004 C 
HETATM   24  C   UNL     1      44.309 -17.521   1.363  1.00  0.00     0.021 C 
HETATM   25  C   UNL     1      41.965 -18.247   1.686  1.00  0.00     0.021 C 
BRANCH  23  26
HETATM   26  C   UNL     1      43.859 -19.278   3.108  1.00  0.00    -0.046 A 
HETATM   27  C   UNL     1      44.020 -20.466   2.375  1.00  0.00     0.027 A 
HETATM   28  C   UNL     1      44.532 -21.595   3.000  1.00  0.00     0.116 A 
HETATM   29  N   UNL     1      44.902 -21.633   4.293  1.00  0.00    -0.273 NA
HETATM   30  C   UNL     1      44.740 -20.493   4.993  1.00  0.00     0.116 A 
HETATM   31  C   UNL     1      44.235 -19.315   4.456  1.00  0.00     0.027 A 
ENDBRANCH  23  26
ENDBRANCH  22  23
ENDBRANCH   1  22
TORSDOF 6
ENDMDL
