MODEL 1
REMARK VINA RESULT:     -10.8      0.000      0.000
REMARK  6 active torsions:
REMARK  status: ('A' for Active; 'I' for Inactive)
REMARK    1  A    between atoms: C_4  and  C_5 
REMARK    2  A    between atoms: C_9  and  C_10 
REMARK       I    between atoms: C_10  and  N_11 
REMARK    3  A    between atoms: N_11  and  N_12 
REMARK       I    between atoms: N_12  and  C_13 
REMARK    4  A    between atoms: C_13  and  C_14 
REMARK    5  A    between atoms: C_14  and  O_15 
REMARK    6  A    between atoms: O_15  and  C_16 
ROOT
HETATM    1  C   UNL     1      45.248 -12.984   8.019  1.00  0.00     0.288 C 
HETATM    2  N   UNL     1      44.845 -14.116   7.335  1.00  0.00    -0.262 N 
HETATM    3  O   UNL     1      46.399 -12.584   7.840  1.00  0.00    -0.264 OA
HETATM    4  H   UNL     1      45.518 -14.488   6.670  1.00  0.00     0.190 HD
ENDROOT
BRANCH   2   5
HETATM    5  N   UNL     1      43.563 -14.652   7.322  1.00  0.00    -0.265 N 
HETATM    6  C   UNL     1      42.917 -15.030   6.162  1.00  0.00     0.260 C 
HETATM    7  O   UNL     1      41.692 -15.146   6.190  1.00  0.00    -0.269 OA
HETATM    8  H   UNL     1      42.949 -14.407   8.096  1.00  0.00     0.190 HD
BRANCH   6   9
HETATM    9  C   UNL     1      43.778 -15.338   4.929  1.00  0.00     0.280 C 
BRANCH   9  10
HETATM   10  O   UNL     1      43.175 -16.218   3.984  1.00  0.00    -0.342 OA
BRANCH  10  11
HETATM   11  C   UNL     1      43.657 -17.499   4.032  1.00  0.00     0.070 A 
HETATM   12  C   UNL     1      43.397 -18.312   2.929  1.00  0.00     0.049 A 
HETATM   13  C   UNL     1      43.792 -19.661   2.922  1.00  0.00    -0.023 A 
HETATM   14  C   UNL     1      44.443 -20.197   4.056  1.00  0.00    -0.026 A 
HETATM   15  C   UNL     1      43.544 -20.493   1.817  1.00  0.00     0.012 A 
HETATM   16  C   UNL     1      44.689 -19.367   5.161  1.00  0.00     0.015 A 
HETATM   17  C   UNL     1      44.816 -21.551   4.060  1.00  0.00     0.012 A 
HETATM   18  C   UNL     1      44.292 -18.027   5.152  1.00  0.00     0.037 A 
HETATM   19  C   UNL     1      44.556 -22.366   2.958  1.00  0.00     0.001 A 
HETATM   20  C   UNL     1      43.924 -21.837   1.836  1.00  0.00     0.001 A 
ENDBRANCH  10  11
ENDBRANCH   9  10
ENDBRANCH   6   9
ENDBRANCH   2   5
BRANCH   1  21
HETATM   21  C   UNL     1      44.376 -12.352   8.973  1.00  0.00     0.121 A 
HETATM   22  N   UNL     1      43.338 -11.565   8.551  1.00  0.00    -0.272 N 
HETATM   23  N   UNL     1      42.715 -10.901   9.532  1.00  0.00    -0.174 NA
HETATM   24  H   UNL     1      43.055 -11.395   7.589  1.00  0.00     0.189 HD
HETATM   25  C   UNL     1      43.296 -11.343  10.656  1.00  0.00     0.089 A 
HETATM   26  C   UNL     1      44.301 -12.302  10.351  1.00  0.00     0.071 A 
BRANCH  25  27
HETATM   27  C   UNL     1      42.941 -10.819  11.971  1.00  0.00    -0.006 A 
HETATM   28  C   UNL     1      43.757  -9.885  12.621  1.00  0.00     0.014 A 
HETATM   29  C   UNL     1      43.378  -9.355  13.857  1.00  0.00     0.001 A 
HETATM   30  C   UNL     1      42.179  -9.749  14.449  1.00  0.00     0.000 A 
HETATM   31  C   UNL     1      41.361 -10.680  13.812  1.00  0.00     0.001 A 
HETATM   32  C   UNL     1      41.743 -11.218  12.581  1.00  0.00     0.014 A 
ENDBRANCH  25  27
ENDBRANCH   1  21
TORSDOF 6
ENDMDL
MODEL 2
REMARK VINA RESULT:     -10.7      0.821      1.504
REMARK  6 active torsions:
REMARK  status: ('A' for Active; 'I' for Inactive)
REMARK    1  A    between atoms: C_4  and  C_5 
REMARK    2  A    between atoms: C_9  and  C_10 
REMARK       I    between atoms: C_10  and  N_11 
REMARK    3  A    between atoms: N_11  and  N_12 
REMARK       I    between atoms: N_12  and  C_13 
REMARK    4  A    between atoms: C_13  and  C_14 
REMARK    5  A    between atoms: C_14  and  O_15 
REMARK    6  A    between atoms: O_15  and  C_16 
ROOT
HETATM    1  C   UNL     1      45.074 -13.254   7.791  1.00  0.00     0.288 C 
HETATM    2  N   UNL     1      44.556 -14.335   7.102  1.00  0.00    -0.262 N 
HETATM    3  O   UNL     1      46.260 -12.975   7.615  1.00  0.00    -0.264 OA
HETATM    4  H   UNL     1      45.188 -14.772   6.436  1.00  0.00     0.190 HD
ENDROOT
BRANCH   2   5
HETATM    5  N   UNL     1      43.225 -14.735   7.086  1.00  0.00    -0.265 N 
HETATM    6  C   UNL     1      42.836 -16.049   6.915  1.00  0.00     0.260 C 
HETATM    7  O   UNL     1      41.680 -16.271   6.554  1.00  0.00    -0.269 OA
HETATM    8  H   UNL     1      42.535 -14.042   6.804  1.00  0.00     0.190 HD
BRANCH   6   9
HETATM    9  C   UNL     1      43.856 -17.148   7.245  1.00  0.00     0.280 C 
BRANCH   9  10
HETATM   10  O   UNL     1      44.883 -17.320   6.272  1.00  0.00    -0.342 OA
BRANCH  10  11
HETATM   11  C   UNL     1      44.507 -18.076   5.195  1.00  0.00     0.070 A 
HETATM   12  C   UNL     1      44.801 -19.439   5.246  1.00  0.00     0.049 A 
HETATM   13  C   UNL     1      44.516 -20.277   4.154  1.00  0.00    -0.023 A 
HETATM   14  C   UNL     1      43.942 -19.722   2.988  1.00  0.00    -0.026 A 
HETATM   15  C   UNL     1      44.800 -21.653   4.191  1.00  0.00     0.012 A 
HETATM   16  C   UNL     1      43.661 -18.347   2.949  1.00  0.00     0.015 A 
HETATM   17  C   UNL     1      43.680 -20.554   1.887  1.00  0.00     0.012 A 
HETATM   18  C   UNL     1      43.948 -17.527   4.044  1.00  0.00     0.037 A 
HETATM   19  C   UNL     1      43.974 -21.918   1.938  1.00  0.00     0.001 A 
HETATM   20  C   UNL     1      44.529 -22.467   3.089  1.00  0.00     0.001 A 
ENDBRANCH  10  11
ENDBRANCH   9  10
ENDBRANCH   6   9
ENDBRANCH   2   5
BRANCH   1  21
HETATM   21  C   UNL     1      44.270 -12.538   8.746  1.00  0.00     0.121 A 
HETATM   22  N   UNL     1      43.340 -11.624   8.326  1.00  0.00    -0.272 N 
HETATM   23  N   UNL     1      42.788 -10.907   9.313  1.00  0.00    -0.174 NA
HETATM   24  H   UNL     1      43.094 -11.405   7.365  1.00  0.00     0.189 HD
HETATM   25  C   UNL     1      43.296 -11.436  10.435  1.00  0.00     0.089 A 
HETATM   26  C   UNL     1      44.182 -12.503  10.124  1.00  0.00     0.071 A 
BRANCH  25  27
HETATM   27  C   UNL     1      42.987 -10.897  11.755  1.00  0.00    -0.006 A 
HETATM   28  C   UNL     1      43.835  -9.968  12.372  1.00  0.00     0.014 A 
HETATM   29  C   UNL     1      43.500  -9.423  13.615  1.00  0.00     0.001 A 
HETATM   30  C   UNL     1      42.314  -9.795  14.246  1.00  0.00     0.000 A 
HETATM   31  C   UNL     1      41.465 -10.721  13.642  1.00  0.00     0.001 A 
HETATM   32  C   UNL     1      41.803 -11.273  12.405  1.00  0.00     0.014 A 
ENDBRANCH  25  27
ENDBRANCH   1  21
TORSDOF 6
ENDMDL
MODEL 3
REMARK VINA RESULT:     -10.1      4.254      7.166
REMARK  6 active torsions:
REMARK  status: ('A' for Active; 'I' for Inactive)
REMARK    1  A    between atoms: C_4  and  C_5 
REMARK    2  A    between atoms: C_9  and  C_10 
REMARK       I    between atoms: C_10  and  N_11 
REMARK    3  A    between atoms: N_11  and  N_12 
REMARK       I    between atoms: N_12  and  C_13 
REMARK    4  A    between atoms: C_13  and  C_14 
REMARK    5  A    between atoms: C_14  and  O_15 
REMARK    6  A    between atoms: O_15  and  C_16 
ROOT
HETATM    1  C   UNL     1      43.955 -14.232   6.696  1.00  0.00     0.288 C 
HETATM    2  N   UNL     1      42.872 -13.420   6.411  1.00  0.00    -0.262 N 
HETATM    3  O   UNL     1      45.056 -13.696   6.828  1.00  0.00    -0.264 OA
HETATM    4  H   UNL     1      43.063 -12.421   6.411  1.00  0.00     0.190 HD
ENDROOT
BRANCH   2   5
HETATM    5  N   UNL     1      41.544 -13.823   6.336  1.00  0.00    -0.265 N 
HETATM    6  C   UNL     1      40.648 -13.294   5.428  1.00  0.00     0.260 C 
HETATM    7  O   UNL     1      39.445 -13.426   5.655  1.00  0.00    -0.269 OA
HETATM    8  H   UNL     1      41.126 -14.205   7.181  1.00  0.00     0.190 HD
BRANCH   6   9
HETATM    9  C   UNL     1      41.213 -12.629   4.166  1.00  0.00     0.280 C 
BRANCH   9  10
HETATM   10  O   UNL     1      40.677 -13.120   2.941  1.00  0.00    -0.342 OA
BRANCH  10  11
HETATM   11  C   UNL     1      40.941 -14.443   2.708  1.00  0.00     0.070 A 
HETATM   12  C   UNL     1      42.281 -14.803   2.567  1.00  0.00     0.049 A 
HETATM   13  C   UNL     1      42.640 -16.126   2.256  1.00  0.00    -0.023 A 
HETATM   14  C   UNL     1      41.626 -17.092   2.067  1.00  0.00    -0.026 A 
HETATM   15  C   UNL     1      43.986 -16.509   2.117  1.00  0.00     0.012 A 
HETATM   16  C   UNL     1      40.282 -16.710   2.202  1.00  0.00     0.015 A 
HETATM   17  C   UNL     1      41.983 -18.408   1.730  1.00  0.00     0.012 A 
HETATM   18  C   UNL     1      39.941 -15.392   2.514  1.00  0.00     0.037 A 
HETATM   19  C   UNL     1      43.323 -18.770   1.589  1.00  0.00     0.001 A 
HETATM   20  C   UNL     1      44.323 -17.823   1.786  1.00  0.00     0.001 A 
ENDBRANCH  10  11
ENDBRANCH   9  10
ENDBRANCH   6   9
ENDBRANCH   2   5
BRANCH   1  21
HETATM   21  C   UNL     1      43.808 -15.662   6.746  1.00  0.00     0.121 A 
HETATM   22  N   UNL     1      43.321 -16.272   7.872  1.00  0.00    -0.272 N 
HETATM   23  N   UNL     1      43.398 -17.608   7.853  1.00  0.00    -0.174 NA
HETATM   24  H   UNL     1      42.984 -15.813   8.714  1.00  0.00     0.189 HD
HETATM   25  C   UNL     1      43.860 -17.898   6.628  1.00  0.00     0.089 A 
HETATM   26  C   UNL     1      44.070 -16.706   5.881  1.00  0.00     0.071 A 
BRANCH  25  27
HETATM   27  C   UNL     1      44.145 -19.267   6.210  1.00  0.00    -0.006 A 
HETATM   28  C   UNL     1      43.724 -20.359   6.981  1.00  0.00     0.014 A 
HETATM   29  C   UNL     1      43.961 -21.665   6.543  1.00  0.00     0.001 A 
HETATM   30  C   UNL     1      44.612 -21.890   5.331  1.00  0.00     0.000 A 
HETATM   31  C   UNL     1      45.036 -20.810   4.558  1.00  0.00     0.001 A 
HETATM   32  C   UNL     1      44.809 -19.505   4.999  1.00  0.00     0.014 A 
ENDBRANCH  25  27
ENDBRANCH   1  21
TORSDOF 6
ENDMDL
MODEL 4
REMARK VINA RESULT:     -10.1      1.560     11.159
REMARK  6 active torsions:
REMARK  status: ('A' for Active; 'I' for Inactive)
REMARK    1  A    between atoms: C_4  and  C_5 
REMARK    2  A    between atoms: C_9  and  C_10 
REMARK       I    between atoms: C_10  and  N_11 
REMARK    3  A    between atoms: N_11  and  N_12 
REMARK       I    between atoms: N_12  and  C_13 
REMARK    4  A    between atoms: C_13  and  C_14 
REMARK    5  A    between atoms: C_14  and  O_15 
REMARK    6  A    between atoms: O_15  and  C_16 
ROOT
HETATM    1  C   UNL     1      42.372 -15.405   5.877  1.00  0.00     0.288 C 
HETATM    2  N   UNL     1      43.184 -14.512   6.550  1.00  0.00    -0.262 N 
HETATM    3  O   UNL     1      41.164 -15.377   6.117  1.00  0.00    -0.264 OA
HETATM    4  H   UNL     1      42.701 -13.841   7.141  1.00  0.00     0.190 HD
ENDROOT
BRANCH   2   5
HETATM    5  N   UNL     1      44.544 -14.319   6.335  1.00  0.00    -0.265 N 
HETATM    6  C   UNL     1      45.323 -13.500   7.129  1.00  0.00     0.260 C 
HETATM    7  O   UNL     1      46.395 -13.101   6.676  1.00  0.00    -0.269 OA
HETATM    8  H   UNL     1      44.888 -14.452   5.386  1.00  0.00     0.190 HD
BRANCH   6   9
HETATM    9  C   UNL     1      44.824 -13.191   8.547  1.00  0.00     0.280 C 
BRANCH   9  10
HETATM   10  O   UNL     1      44.871 -11.814   8.909  1.00  0.00    -0.342 OA
BRANCH  10  11
HETATM   11  C   UNL     1      44.283 -11.535  10.114  1.00  0.00     0.070 A 
HETATM   12  C   UNL     1      43.920 -10.209  10.347  1.00  0.00     0.049 A 
HETATM   13  C   UNL     1      43.376  -9.820  11.584  1.00  0.00    -0.023 A 
HETATM   14  C   UNL     1      43.215 -10.786  12.603  1.00  0.00    -0.026 A 
HETATM   15  C   UNL     1      42.999  -8.489  11.834  1.00  0.00     0.012 A 
HETATM   16  C   UNL     1      43.595 -12.114  12.355  1.00  0.00     0.015 A 
HETATM   17  C   UNL     1      42.695 -10.393  13.848  1.00  0.00     0.012 A 
HETATM   18  C   UNL     1      44.132 -12.486  11.120  1.00  0.00     0.037 A 
HETATM   19  C   UNL     1      42.332  -9.066  14.082  1.00  0.00     0.001 A 
HETATM   20  C   UNL     1      42.479  -8.116  13.076  1.00  0.00     0.001 A 
ENDBRANCH  10  11
ENDBRANCH   9  10
ENDBRANCH   6   9
ENDBRANCH   2   5
BRANCH   1  21
HETATM   21  C   UNL     1      42.936 -16.391   4.994  1.00  0.00     0.121 A 
HETATM   22  N   UNL     1      43.168 -16.092   3.677  1.00  0.00    -0.272 N 
HETATM   23  N   UNL     1      43.530 -17.142   2.929  1.00  0.00    -0.174 NA
HETATM   24  H   UNL     1      43.029 -15.193   3.224  1.00  0.00     0.189 HD
HETATM   25  C   UNL     1      43.639 -18.153   3.803  1.00  0.00     0.089 A 
HETATM   26  C   UNL     1      43.336 -17.706   5.119  1.00  0.00     0.071 A 
BRANCH  25  27
HETATM   27  C   UNL     1      43.965 -19.511   3.381  1.00  0.00    -0.006 A 
HETATM   28  C   UNL     1      44.543 -20.425   4.272  1.00  0.00     0.014 A 
HETATM   29  C   UNL     1      44.803 -21.737   3.868  1.00  0.00     0.001 A 
HETATM   30  C   UNL     1      44.484 -22.147   2.574  1.00  0.00     0.000 A 
HETATM   31  C   UNL     1      43.911 -21.245   1.679  1.00  0.00     0.001 A 
HETATM   32  C   UNL     1      43.659 -19.931   2.079  1.00  0.00     0.014 A 
ENDBRANCH  25  27
ENDBRANCH   1  21
TORSDOF 6
ENDMDL
MODEL 5
REMARK VINA RESULT:      -9.9      5.016      8.890
REMARK  6 active torsions:
REMARK  status: ('A' for Active; 'I' for Inactive)
REMARK    1  A    between atoms: C_4  and  C_5 
REMARK    2  A    between atoms: C_9  and  C_10 
REMARK       I    between atoms: C_10  and  N_11 
REMARK    3  A    between atoms: N_11  and  N_12 
REMARK       I    between atoms: N_12  and  C_13 
REMARK    4  A    between atoms: C_13  and  C_14 
REMARK    5  A    between atoms: C_14  and  O_15 
REMARK    6  A    between atoms: O_15  and  C_16 
ROOT
HETATM    1  C   UNL     1      43.240 -14.529   2.627  1.00  0.00     0.288 C 
HETATM    2  N   UNL     1      42.052 -13.909   2.285  1.00  0.00    -0.262 N 
HETATM    3  O   UNL     1      44.121 -13.840   3.143  1.00  0.00    -0.264 OA
HETATM    4  H   UNL     1      41.973 -12.934   2.564  1.00  0.00     0.190 HD
ENDROOT
BRANCH   2   5
HETATM    5  N   UNL     1      40.912 -14.536   1.799  1.00  0.00    -0.265 N 
HETATM    6  C   UNL     1      39.820 -14.833   2.591  1.00  0.00     0.260 C 
HETATM    7  O   UNL     1      39.028 -15.687   2.193  1.00  0.00    -0.269 OA
HETATM    8  H   UNL     1      41.021 -15.127   0.978  1.00  0.00     0.190 HD
BRANCH   6   9
HETATM    9  C   UNL     1      39.637 -14.034   3.888  1.00  0.00     0.280 C 
BRANCH   9  10
HETATM   10  O   UNL     1      39.639 -14.818   5.078  1.00  0.00    -0.342 OA
BRANCH  10  11
HETATM   11  C   UNL     1      40.885 -15.226   5.472  1.00  0.00     0.070 A 
HETATM   12  C   UNL     1      41.084 -16.599   5.614  1.00  0.00     0.049 A 
HETATM   13  C   UNL     1      42.310 -17.103   6.082  1.00  0.00    -0.023 A 
HETATM   14  C   UNL     1      43.340 -16.201   6.430  1.00  0.00    -0.026 A 
HETATM   15  C   UNL     1      42.529 -18.484   6.225  1.00  0.00     0.012 A 
HETATM   16  C   UNL     1      43.120 -14.822   6.291  1.00  0.00     0.015 A 
HETATM   17  C   UNL     1      44.557 -16.703   6.923  1.00  0.00     0.012 A 
HETATM   18  C   UNL     1      41.898 -14.336   5.822  1.00  0.00     0.037 A 
HETATM   19  C   UNL     1      44.756 -18.077   7.065  1.00  0.00     0.001 A 
HETATM   20  C   UNL     1      43.746 -18.967   6.713  1.00  0.00     0.001 A 
ENDBRANCH  10  11
ENDBRANCH   9  10
ENDBRANCH   6   9
ENDBRANCH   2   5
BRANCH   1  21
HETATM   21  C   UNL     1      43.466 -15.913   2.306  1.00  0.00     0.121 A 
HETATM   22  N   UNL     1      43.175 -16.393   1.056  1.00  0.00    -0.272 N 
HETATM   23  N   UNL     1      43.266 -17.724   0.941  1.00  0.00    -0.174 NA
HETATM   24  H   UNL     1      42.845 -15.854   0.259  1.00  0.00     0.189 HD
HETATM   25  C   UNL     1      43.731 -18.131   2.131  1.00  0.00     0.089 A 
HETATM   26  C   UNL     1      43.929 -17.017   2.993  1.00  0.00     0.071 A 
BRANCH  25  27
HETATM   27  C   UNL     1      43.922 -19.542   2.447  1.00  0.00    -0.006 A 
HETATM   28  C   UNL     1      43.469 -20.544   1.580  1.00  0.00     0.014 A 
HETATM   29  C   UNL     1      43.703 -21.890   1.872  1.00  0.00     0.001 A 
HETATM   30  C   UNL     1      44.397 -22.245   3.028  1.00  0.00     0.000 A 
HETATM   31  C   UNL     1      44.850 -21.256   3.899  1.00  0.00     0.001 A 
HETATM   32  C   UNL     1      44.609 -19.911   3.613  1.00  0.00     0.014 A 
ENDBRANCH  25  27
ENDBRANCH   1  21
TORSDOF 6
ENDMDL
MODEL 6
REMARK VINA RESULT:      -9.9      5.673      8.853
REMARK  6 active torsions:
REMARK  status: ('A' for Active; 'I' for Inactive)
REMARK    1  A    between atoms: C_4  and  C_5 
REMARK    2  A    between atoms: C_9  and  C_10 
REMARK       I    between atoms: C_10  and  N_11 
REMARK    3  A    between atoms: N_11  and  N_12 
REMARK       I    between atoms: N_12  and  C_13 
REMARK    4  A    between atoms: C_13  and  C_14 
REMARK    5  A    between atoms: C_14  and  O_15 
REMARK    6  A    between atoms: O_15  and  C_16 
ROOT
HETATM    1  C   UNL     1      40.555 -16.686   1.744  1.00  0.00     0.288 C 
HETATM    2  N   UNL     1      40.532 -16.626   3.126  1.00  0.00    -0.262 N 
HETATM    3  O   UNL     1      40.584 -17.799   1.218  1.00  0.00    -0.264 OA
HETATM    4  H   UNL     1      40.462 -17.522   3.601  1.00  0.00     0.190 HD
ENDROOT
BRANCH   2   5
HETATM    5  N   UNL     1      40.389 -15.476   3.893  1.00  0.00    -0.265 N 
HETATM    6  C   UNL     1      40.864 -15.370   5.185  1.00  0.00     0.260 C 
HETATM    7  O   UNL     1      40.395 -14.490   5.907  1.00  0.00    -0.269 OA
HETATM    8  H   UNL     1      39.609 -14.862   3.670  1.00  0.00     0.190 HD
BRANCH   6   9
HETATM    9  C   UNL     1      41.988 -16.322   5.617  1.00  0.00     0.280 C 
BRANCH   9  10
HETATM   10  O   UNL     1      43.092 -16.389   4.718  1.00  0.00    -0.342 OA
BRANCH  10  11
HETATM   11  C   UNL     1      43.610 -17.647   4.567  1.00  0.00     0.070 A 
HETATM   12  C   UNL     1      43.342 -18.300   3.364  1.00  0.00     0.049 A 
HETATM   13  C   UNL     1      43.775 -19.620   3.151  1.00  0.00    -0.023 A 
HETATM   14  C   UNL     1      44.472 -20.294   4.180  1.00  0.00    -0.026 A 
HETATM   15  C   UNL     1      43.519 -20.292   1.943  1.00  0.00     0.012 A 
HETATM   16  C   UNL     1      44.725 -19.625   5.388  1.00  0.00     0.015 A 
HETATM   17  C   UNL     1      44.882 -21.622   3.978  1.00  0.00     0.012 A 
HETATM   18  C   UNL     1      44.290 -18.312   5.583  1.00  0.00     0.037 A 
HETATM   19  C   UNL     1      44.614 -22.276   2.775  1.00  0.00     0.001 A 
HETATM   20  C   UNL     1      43.938 -21.611   1.757  1.00  0.00     0.001 A 
ENDBRANCH  10  11
ENDBRANCH   9  10
ENDBRANCH   6   9
ENDBRANCH   2   5
BRANCH   1  21
HETATM   21  C   UNL     1      40.632 -15.484   0.957  1.00  0.00     0.121 A 
HETATM   22  N   UNL     1      39.492 -14.822   0.586  1.00  0.00    -0.272 N 
HETATM   23  N   UNL     1      39.692 -13.824  -0.284  1.00  0.00    -0.174 NA
HETATM   24  H   UNL     1      38.539 -15.057   0.850  1.00  0.00     0.189 HD
HETATM   25  C   UNL     1      41.025 -13.757  -0.414  1.00  0.00     0.089 A 
HETATM   26  C   UNL     1      41.653 -14.741   0.397  1.00  0.00     0.071 A 
BRANCH  25  27
HETATM   27  C   UNL     1      41.668 -12.822  -1.331  1.00  0.00    -0.006 A 
HETATM   28  C   UNL     1      41.577 -12.992  -2.718  1.00  0.00     0.014 A 
HETATM   29  C   UNL     1      42.156 -12.060  -3.584  1.00  0.00     0.001 A 
HETATM   30  C   UNL     1      42.824 -10.949  -3.071  1.00  0.00     0.000 A 
HETATM   31  C   UNL     1      42.922 -10.771  -1.692  1.00  0.00     0.001 A 
HETATM   32  C   UNL     1      42.352 -11.707  -0.826  1.00  0.00     0.014 A 
ENDBRANCH  25  27
ENDBRANCH   1  21
TORSDOF 6
ENDMDL
MODEL 7
REMARK VINA RESULT:      -9.9      7.759     11.467
REMARK  6 active torsions:
REMARK  status: ('A' for Active; 'I' for Inactive)
REMARK    1  A    between atoms: C_4  and  C_5 
REMARK    2  A    between atoms: C_9  and  C_10 
REMARK       I    between atoms: C_10  and  N_11 
REMARK    3  A    between atoms: N_11  and  N_12 
REMARK       I    between atoms: N_12  and  C_13 
REMARK    4  A    between atoms: C_13  and  C_14 
REMARK    5  A    between atoms: C_14  and  O_15 
REMARK    6  A    between atoms: O_15  and  C_16 
ROOT
HETATM    1  C   UNL     1      40.987 -15.393  -2.667  1.00  0.00     0.288 C 
HETATM    2  N   UNL     1      41.385 -15.515  -1.348  1.00  0.00    -0.262 N 
HETATM    3  O   UNL     1      41.849 -15.498  -3.539  1.00  0.00    -0.264 OA
HETATM    4  H   UNL     1      42.360 -15.762  -1.207  1.00  0.00     0.190 HD
ENDROOT
BRANCH   2   5
HETATM    5  N   UNL     1      40.547 -15.535  -0.239  1.00  0.00    -0.265 N 
HETATM    6  C   UNL     1      40.925 -16.064   0.980  1.00  0.00     0.260 C 
HETATM    7  O   UNL     1      40.041 -16.372   1.779  1.00  0.00    -0.269 OA
HETATM    8  H   UNL     1      39.545 -15.530  -0.413  1.00  0.00     0.190 HD
BRANCH   6   9
HETATM    9  C   UNL     1      42.427 -16.177   1.278  1.00  0.00     0.280 C 
BRANCH   9  10
HETATM   10  O   UNL     1      43.026 -17.404   0.870  1.00  0.00    -0.342 OA
BRANCH  10  11
HETATM   11  C   UNL     1      43.500 -18.162   1.906  1.00  0.00     0.070 A 
HETATM   12  C   UNL     1      43.667 -19.526   1.666  1.00  0.00     0.049 A 
HETATM   13  C   UNL     1      44.082 -20.391   2.693  1.00  0.00    -0.023 A 
HETATM   14  C   UNL     1      44.312 -19.869   3.986  1.00  0.00    -0.026 A 
HETATM   15  C   UNL     1      44.261 -21.767   2.467  1.00  0.00     0.012 A 
HETATM   16  C   UNL     1      44.131 -18.496   4.213  1.00  0.00     0.015 A 
HETATM   17  C   UNL     1      44.702 -20.737   5.020  1.00  0.00     0.012 A 
HETATM   18  C   UNL     1      43.720 -17.648   3.181  1.00  0.00     0.037 A 
HETATM   19  C   UNL     1      44.869 -22.102   4.780  1.00  0.00     0.001 A 
HETATM   20  C   UNL     1      44.653 -22.616   3.506  1.00  0.00     0.001 A 
ENDBRANCH  10  11
ENDBRANCH   9  10
ENDBRANCH   6   9
ENDBRANCH   2   5
BRANCH   1  21
HETATM   21  C   UNL     1      39.625 -15.066  -2.996  1.00  0.00     0.121 A 
HETATM   22  N   UNL     1      38.756 -16.042  -3.407  1.00  0.00    -0.272 N 
HETATM   23  N   UNL     1      37.578 -15.583  -3.847  1.00  0.00    -0.174 NA
HETATM   24  H   UNL     1      38.946 -17.039  -3.468  1.00  0.00     0.189 HD
HETATM   25  C   UNL     1      37.631 -14.261  -3.625  1.00  0.00     0.089 A 
HETATM   26  C   UNL     1      38.875 -13.907  -3.034  1.00  0.00     0.071 A 
BRANCH  25  27
HETATM   27  C   UNL     1      36.551 -13.364  -4.020  1.00  0.00    -0.006 A 
HETATM   28  C   UNL     1      35.536 -13.793  -4.886  1.00  0.00     0.014 A 
HETATM   29  C   UNL     1      34.481 -12.939  -5.216  1.00  0.00     0.001 A 
HETATM   30  C   UNL     1      34.427 -11.653  -4.679  1.00  0.00     0.000 A 
HETATM   31  C   UNL     1      35.432 -11.216  -3.818  1.00  0.00     0.001 A 
HETATM   32  C   UNL     1      36.492 -12.065  -3.495  1.00  0.00     0.014 A 
ENDBRANCH  25  27
ENDBRANCH   1  21
TORSDOF 6
ENDMDL
MODEL 8
REMARK VINA RESULT:      -9.8      2.386      3.336
REMARK  6 active torsions:
REMARK  status: ('A' for Active; 'I' for Inactive)
REMARK    1  A    between atoms: C_4  and  C_5 
REMARK    2  A    between atoms: C_9  and  C_10 
REMARK       I    between atoms: C_10  and  N_11 
REMARK    3  A    between atoms: N_11  and  N_12 
REMARK       I    between atoms: N_12  and  C_13 
REMARK    4  A    between atoms: C_13  and  C_14 
REMARK    5  A    between atoms: C_14  and  O_15 
REMARK    6  A    between atoms: O_15  and  C_16 
ROOT
HETATM    1  C   UNL     1      39.569 -11.666   6.209  1.00  0.00     0.288 C 
HETATM    2  N   UNL     1      39.531 -12.997   5.836  1.00  0.00    -0.262 N 
HETATM    3  O   UNL     1      38.902 -10.866   5.552  1.00  0.00    -0.264 OA
HETATM    4  H   UNL     1      38.884 -13.222   5.085  1.00  0.00     0.190 HD
ENDROOT
BRANCH   2   5
HETATM    5  N   UNL     1      40.124 -14.054   6.516  1.00  0.00    -0.265 N 
HETATM    6  C   UNL     1      40.596 -15.186   5.881  1.00  0.00     0.260 C 
HETATM    7  O   UNL     1      40.766 -16.202   6.555  1.00  0.00    -0.269 OA
HETATM    8  H   UNL     1      39.863 -14.186   7.491  1.00  0.00     0.190 HD
BRANCH   6   9
HETATM    9  C   UNL     1      40.935 -15.083   4.388  1.00  0.00     0.280 C 
BRANCH   9  10
HETATM   10  O   UNL     1      42.297 -15.347   4.064  1.00  0.00    -0.342 OA
BRANCH  10  11
HETATM   11  C   UNL     1      42.509 -16.584   3.518  1.00  0.00     0.070 A 
HETATM   12  C   UNL     1      43.359 -17.444   4.214  1.00  0.00     0.049 A 
HETATM   13  C   UNL     1      43.688 -18.707   3.691  1.00  0.00    -0.023 A 
HETATM   14  C   UNL     1      43.165 -19.094   2.437  1.00  0.00    -0.026 A 
HETATM   15  C   UNL     1      44.538 -19.588   4.382  1.00  0.00     0.012 A 
HETATM   16  C   UNL     1      42.319 -18.213   1.746  1.00  0.00     0.015 A 
HETATM   17  C   UNL     1      43.515 -20.345   1.902  1.00  0.00     0.012 A 
HETATM   18  C   UNL     1      41.998 -16.962   2.280  1.00  0.00     0.037 A 
HETATM   19  C   UNL     1      44.365 -21.206   2.598  1.00  0.00     0.001 A 
HETATM   20  C   UNL     1      44.873 -20.830   3.837  1.00  0.00     0.001 A 
ENDBRANCH  10  11
ENDBRANCH   9  10
ENDBRANCH   6   9
ENDBRANCH   2   5
BRANCH   1  21
HETATM   21  C   UNL     1      40.430 -11.225   7.274  1.00  0.00     0.121 A 
HETATM   22  N   UNL     1      41.733 -10.887   7.019  1.00  0.00    -0.272 N 
HETATM   23  N   UNL     1      42.468 -10.662   8.115  1.00  0.00    -0.174 NA
HETATM   24  H   UNL     1      42.187 -10.860   6.111  1.00  0.00     0.189 HD
HETATM   25  C   UNL     1      41.595 -10.756   9.128  1.00  0.00     0.089 A 
HETATM   26  C   UNL     1      40.293 -11.046   8.636  1.00  0.00     0.071 A 
BRANCH  25  27
HETATM   27  C   UNL     1      42.008 -10.631  10.522  1.00  0.00    -0.006 A 
HETATM   28  C   UNL     1      41.188 -11.087  11.562  1.00  0.00     0.014 A 
HETATM   29  C   UNL     1      41.619 -11.005  12.889  1.00  0.00     0.001 A 
HETATM   30  C   UNL     1      42.874 -10.475  13.186  1.00  0.00     0.000 A 
HETATM   31  C   UNL     1      43.697 -10.017  12.159  1.00  0.00     0.001 A 
HETATM   32  C   UNL     1      43.263 -10.089  10.833  1.00  0.00     0.014 A 
ENDBRANCH  25  27
ENDBRANCH   1  21
TORSDOF 6
ENDMDL
MODEL 9
REMARK VINA RESULT:      -9.7      4.680      8.064
REMARK  6 active torsions:
REMARK  status: ('A' for Active; 'I' for Inactive)
REMARK    1  A    between atoms: C_4  and  C_5 
REMARK    2  A    between atoms: C_9  and  C_10 
REMARK       I    between atoms: C_10  and  N_11 
REMARK    3  A    between atoms: N_11  and  N_12 
REMARK       I    between atoms: N_12  and  C_13 
REMARK    4  A    between atoms: C_13  and  C_14 
REMARK    5  A    between atoms: C_14  and  O_15 
REMARK    6  A    between atoms: O_15  and  C_16 
ROOT
HETATM    1  C   UNL     1      40.256 -13.698   5.352  1.00  0.00     0.288 C 
HETATM    2  N   UNL     1      41.497 -13.326   5.834  1.00  0.00    -0.262 N 
HETATM    3  O   UNL     1      39.299 -13.643   6.126  1.00  0.00    -0.264 OA
HETATM    4  H   UNL     1      41.506 -12.958   6.781  1.00  0.00     0.190 HD
ENDROOT
BRANCH   2   5
HETATM    5  N   UNL     1      42.666 -13.218   5.089  1.00  0.00    -0.265 N 
HETATM    6  C   UNL     1      43.769 -14.021   5.298  1.00  0.00     0.260 C 
HETATM    7  O   UNL     1      44.857 -13.638   4.868  1.00  0.00    -0.269 OA
HETATM    8  H   UNL     1      42.866 -12.313   4.668  1.00  0.00     0.190 HD
BRANCH   6   9
HETATM    9  C   UNL     1      43.552 -15.368   6.002  1.00  0.00     0.280 C 
BRANCH   9  10
HETATM   10  O   UNL     1      42.701 -16.275   5.307  1.00  0.00    -0.342 OA
BRANCH  10  11
HETATM   11  C   UNL     1      43.306 -17.453   4.962  1.00  0.00     0.070 A 
HETATM   12  C   UNL     1      42.964 -18.000   3.726  1.00  0.00     0.049 A 
HETATM   13  C   UNL     1      43.483 -19.242   3.322  1.00  0.00    -0.023 A 
HETATM   14  C   UNL     1      44.345 -19.948   4.192  1.00  0.00    -0.026 A 
HETATM   15  C   UNL     1      43.155 -19.806   2.077  1.00  0.00     0.012 A 
HETATM   16  C   UNL     1      44.671 -19.387   5.437  1.00  0.00     0.015 A 
HETATM   17  C   UNL     1      44.844 -21.201   3.799  1.00  0.00     0.012 A 
HETATM   18  C   UNL     1      44.150 -18.150   5.823  1.00  0.00     0.037 A 
HETATM   19  C   UNL     1      44.503 -21.749   2.562  1.00  0.00     0.001 A 
HETATM   20  C   UNL     1      43.663 -21.051   1.700  1.00  0.00     0.001 A 
ENDBRANCH  10  11
ENDBRANCH   9  10
ENDBRANCH   6   9
ENDBRANCH   2   5
BRANCH   1  21
HETATM   21  C   UNL     1      40.110 -14.215   4.018  1.00  0.00     0.121 A 
HETATM   22  N   UNL     1      40.234 -15.558   3.775  1.00  0.00    -0.272 N 
HETATM   23  N   UNL     1      40.249 -15.884   2.477  1.00  0.00    -0.174 NA
HETATM   24  H   UNL     1      40.378 -16.290   4.465  1.00  0.00     0.189 HD
HETATM   25  C   UNL     1      40.025 -14.726   1.839  1.00  0.00     0.089 A 
HETATM   26  C   UNL     1      39.869 -13.666   2.774  1.00  0.00     0.071 A 
BRANCH  25  27
HETATM   27  C   UNL     1      40.020 -14.632   0.383  1.00  0.00    -0.006 A 
HETATM   28  C   UNL     1      39.056 -13.867  -0.288  1.00  0.00     0.014 A 
HETATM   29  C   UNL     1      39.094 -13.746  -1.679  1.00  0.00     0.001 A 
HETATM   30  C   UNL     1      40.097 -14.381  -2.411  1.00  0.00     0.000 A 
HETATM   31  C   UNL     1      41.059 -15.146  -1.753  1.00  0.00     0.001 A 
HETATM   32  C   UNL     1      41.017 -15.276  -0.363  1.00  0.00     0.014 A 
ENDBRANCH  25  27
ENDBRANCH   1  21
TORSDOF 6
ENDMDL
MODEL 10
REMARK VINA RESULT:      -9.5      4.688      6.873
REMARK  6 active torsions:
REMARK  status: ('A' for Active; 'I' for Inactive)
REMARK    1  A    between atoms: C_4  and  C_5 
REMARK    2  A    between atoms: C_9  and  C_10 
REMARK       I    between atoms: C_10  and  N_11 
REMARK    3  A    between atoms: N_11  and  N_12 
REMARK       I    between atoms: N_12  and  C_13 
REMARK    4  A    between atoms: C_13  and  C_14 
REMARK    5  A    between atoms: C_14  and  O_15 
REMARK    6  A    between atoms: O_15  and  C_16 
ROOT
HETATM    1  C   UNL     1      43.553 -14.063   5.338  1.00  0.00     0.288 C 
HETATM    2  N   UNL     1      43.060 -14.666   6.481  1.00  0.00    -0.262 N 
HETATM    3  O   UNL     1      44.709 -13.640   5.365  1.00  0.00    -0.264 OA
HETATM    4  H   UNL     1      43.728 -14.781   7.237  1.00  0.00     0.190 HD
ENDROOT
BRANCH   2   5
HETATM    5  N   UNL     1      41.828 -15.297   6.607  1.00  0.00    -0.265 N 
HETATM    6  C   UNL     1      41.692 -16.667   6.718  1.00  0.00     0.260 C 
HETATM    7  O   UNL     1      40.596 -17.165   6.463  1.00  0.00    -0.269 OA
HETATM    8  H   UNL     1      41.017 -14.814   6.226  1.00  0.00     0.190 HD
BRANCH   6   9
HETATM    9  C   UNL     1      42.904 -17.470   7.210  1.00  0.00     0.280 C 
BRANCH   9  10
HETATM   10  O   UNL     1      44.047 -17.406   6.361  1.00  0.00    -0.342 OA
BRANCH  10  11
HETATM   11  C   UNL     1      43.936 -18.158   5.222  1.00  0.00     0.070 A 
HETATM   12  C   UNL     1      44.312 -19.499   5.312  1.00  0.00     0.049 A 
HETATM   13  C   UNL     1      44.298 -20.326   4.176  1.00  0.00    -0.023 A 
HETATM   14  C   UNL     1      43.916 -19.782   2.929  1.00  0.00    -0.026 A 
HETATM   15  C   UNL     1      44.668 -21.680   4.249  1.00  0.00     0.012 A 
HETATM   16  C   UNL     1      43.550 -18.429   2.854  1.00  0.00     0.015 A 
HETATM   17  C   UNL     1      43.927 -20.601   1.788  1.00  0.00     0.012 A 
HETATM   18  C   UNL     1      43.567 -17.619   3.993  1.00  0.00     0.037 A 
HETATM   19  C   UNL     1      44.303 -21.942   1.876  1.00  0.00     0.001 A 
HETATM   20  C   UNL     1      44.669 -22.482   3.105  1.00  0.00     0.001 A 
ENDBRANCH  10  11
ENDBRANCH   9  10
ENDBRANCH   6   9
ENDBRANCH   2   5
BRANCH   1  21
HETATM   21  C   UNL     1      42.710 -13.863   4.190  1.00  0.00     0.121 A 
HETATM   22  N   UNL     1      43.215 -13.305   3.045  1.00  0.00    -0.272 N 
HETATM   23  N   UNL     1      42.293 -13.015   2.119  1.00  0.00    -0.174 NA
HETATM   24  H   UNL     1      44.182 -13.041   2.873  1.00  0.00     0.189 HD
HETATM   25  C   UNL     1      41.147 -13.491   2.629  1.00  0.00     0.089 A 
HETATM   26  C   UNL     1      41.379 -14.086   3.899  1.00  0.00     0.071 A 
BRANCH  25  27
HETATM   27  C   UNL     1      39.868 -13.326   1.947  1.00  0.00    -0.006 A 
HETATM   28  C   UNL     1      39.087 -14.436   1.599  1.00  0.00     0.014 A 
HETATM   29  C   UNL     1      37.841 -14.260   0.991  1.00  0.00     0.001 A 
HETATM   30  C   UNL     1      37.363 -12.975   0.733  1.00  0.00     0.000 A 
HETATM   31  C   UNL     1      38.133 -11.865   1.073  1.00  0.00     0.001 A 
HETATM   32  C   UNL     1      39.383 -12.039   1.672  1.00  0.00     0.014 A 
ENDBRANCH  25  27
ENDBRANCH   1  21
TORSDOF 6
ENDMDL
