MODEL 1
REMARK VINA RESULT:      -9.9      0.000      0.000
REMARK  6 active torsions:
REMARK  status: ('A' for Active; 'I' for Inactive)
REMARK    1  A    between atoms: C_4  and  C_5 
REMARK    2  A    between atoms: N_8  and  C_9 
REMARK    3  A    between atoms: C_12  and  N_13 
REMARK       I    between atoms: N_13  and  C_14 
REMARK       I    between atoms: C_14  and  N_15 
REMARK    4  A    between atoms: N_15  and  C_16 
REMARK    5  A    between atoms: C_19  and  O_20 
REMARK    6  A    between atoms: O_20  and  C_21 
ROOT
HETATM    1  C   UNL     1      41.447 -15.492   3.672  1.00  0.00     0.161 C 
HETATM    2  C   UNL     1      42.107 -14.373   4.462  1.00  0.00     0.179 C 
HETATM    3  C   UNL     1      41.083 -13.953   5.508  1.00  0.00     0.177 C 
HETATM    4  C   UNL     1      40.867 -12.462   5.271  1.00  0.00     0.141 C 
HETATM    5  C   UNL     1      42.012 -12.077   4.332  1.00  0.00     0.196 C 
HETATM    6  O   UNL     1      42.362 -13.253   3.598  1.00  0.00    -0.379 OA
HETATM    7  O   UNL     1      39.890 -14.722   5.251  1.00  0.00    -0.379 OA
HETATM    8  C   UNL     1      40.336 -15.933   4.608  1.00  0.00     0.198 C 
ENDROOT
BRANCH   4   9
HETATM    9  N   UNL     1      40.801 -11.617   6.460  1.00  0.00    -0.334 N 
HETATM   10  C   UNL     1      39.736 -10.801   6.705  1.00  0.00     0.321 C 
HETATM   11  N   UNL     1      39.588 -10.329   7.973  1.00  0.00    -0.309 N 
HETATM   12  O   UNL     1      38.861 -10.579   5.872  1.00  0.00    -0.247 OA
HETATM   13  H   UNL     1      38.646  -9.990   8.127  1.00  0.00     0.170 HD
HETATM   14  H   UNL     1      41.216 -12.015   7.289  1.00  0.00     0.164 HD
BRANCH  11  15
HETATM   15  C   UNL     1      40.450 -10.327   9.080  1.00  0.00     0.036 A 
HETATM   16  C   UNL     1      41.699  -9.705   9.090  1.00  0.00     0.032 A 
HETATM   17  C   UNL     1      42.502  -9.757  10.235  1.00  0.00     0.039 A 
HETATM   18  C   UNL     1      42.066 -10.435  11.375  1.00  0.00     0.076 A 
HETATM   19  C   UNL     1      40.801 -11.022  11.382  1.00  0.00     0.039 A 
HETATM   20  C   UNL     1      39.991 -10.953  10.244  1.00  0.00     0.032 A 
BRANCH  18  21
HETATM   21  O   UNL     1      42.923 -10.408  12.455  1.00  0.00    -0.311 OA
BRANCH  21  22
HETATM   22  C   UNL     1      42.553  -9.640  13.531  1.00  0.00     0.076 A 
HETATM   23  C   UNL     1      42.339  -8.272  13.366  1.00  0.00     0.037 A 
HETATM   24  C   UNL     1      41.923  -7.505  14.454  1.00  0.00     0.003 A 
HETATM   25  C   UNL     1      41.717  -8.109  15.696  1.00  0.00     0.000 A 
HETATM   26  C   UNL     1      41.913  -9.483  15.849  1.00  0.00     0.003 A 
HETATM   27  C   UNL     1      42.317 -10.255  14.761  1.00  0.00     0.037 A 
ENDBRANCH  21  22
ENDBRANCH  18  21
ENDBRANCH  11  15
ENDBRANCH   4   9
BRANCH   1  28
HETATM   28  N   UNL     1      42.381 -16.509   3.261  1.00  0.00    -0.273 N 
HETATM   29  N   UNL     1      43.423 -16.232   2.460  1.00  0.00     0.005 NA
HETATM   30  N   UNL     1      44.084 -17.366   2.262  1.00  0.00    -0.158 NA
HETATM   31  C   UNL     1      43.457 -18.364   2.968  1.00  0.00     0.101 A 
HETATM   32  C   UNL     1      42.386 -17.821   3.640  1.00  0.00     0.142 A 
BRANCH  31  33
HETATM   33  C   UNL     1      43.883 -19.752   2.984  1.00  0.00    -0.005 A 
HETATM   34  C   UNL     1      43.684 -20.555   1.853  1.00  0.00     0.014 A 
HETATM   35  C   UNL     1      44.079 -21.896   1.851  1.00  0.00     0.001 A 
HETATM   36  C   UNL     1      44.674 -22.450   2.982  1.00  0.00     0.000 A 
HETATM   37  C   UNL     1      44.875 -21.666   4.115  1.00  0.00     0.001 A 
HETATM   38  C   UNL     1      44.484 -20.324   4.117  1.00  0.00     0.014 A 
ENDBRANCH  31  33
ENDBRANCH   1  28
TORSDOF 6
ENDMDL
MODEL 2
REMARK VINA RESULT:      -9.9      2.105     11.590
REMARK  6 active torsions:
REMARK  status: ('A' for Active; 'I' for Inactive)
REMARK    1  A    between atoms: C_4  and  C_5 
REMARK    2  A    between atoms: N_8  and  C_9 
REMARK    3  A    between atoms: C_12  and  N_13 
REMARK       I    between atoms: N_13  and  C_14 
REMARK       I    between atoms: C_14  and  N_15 
REMARK    4  A    between atoms: N_15  and  C_16 
REMARK    5  A    between atoms: C_19  and  O_20 
REMARK    6  A    between atoms: O_20  and  C_21 
ROOT
HETATM    1  C   UNL     1      40.436  -9.784   6.876  1.00  0.00     0.161 C 
HETATM    2  C   UNL     1      40.423 -11.302   6.972  1.00  0.00     0.179 C 
HETATM    3  C   UNL     1      40.979 -11.799   5.644  1.00  0.00     0.177 C 
HETATM    4  C   UNL     1      39.893 -12.708   5.078  1.00  0.00     0.141 C 
HETATM    5  C   UNL     1      38.947 -12.918   6.262  1.00  0.00     0.196 C 
HETATM    6  O   UNL     1      39.070 -11.769   7.103  1.00  0.00    -0.379 OA
HETATM    7  O   UNL     1      41.194 -10.633   4.823  1.00  0.00    -0.379 OA
HETATM    8  C   UNL     1      41.414  -9.543   5.741  1.00  0.00     0.198 C 
ENDROOT
BRANCH   4   9
HETATM    9  N   UNL     1      40.340 -13.963   4.481  1.00  0.00    -0.334 N 
HETATM   10  C   UNL     1      39.954 -14.342   3.229  1.00  0.00     0.321 C 
HETATM   11  N   UNL     1      40.678 -15.321   2.621  1.00  0.00    -0.309 N 
HETATM   12  O   UNL     1      39.073 -13.762   2.600  1.00  0.00    -0.247 OA
HETATM   13  H   UNL     1      40.512 -15.329   1.621  1.00  0.00     0.170 HD
HETATM   14  H   UNL     1      41.280 -14.240   4.725  1.00  0.00     0.164 HD
BRANCH  11  15
HETATM   15  C   UNL     1      41.646 -16.213   3.108  1.00  0.00     0.036 A 
HETATM   16  C   UNL     1      41.371 -17.233   4.021  1.00  0.00     0.032 A 
HETATM   17  C   UNL     1      42.397 -18.076   4.463  1.00  0.00     0.039 A 
HETATM   18  C   UNL     1      43.704 -17.902   4.002  1.00  0.00     0.076 A 
HETATM   19  C   UNL     1      43.973 -16.910   3.059  1.00  0.00     0.039 A 
HETATM   20  C   UNL     1      42.943 -16.081   2.603  1.00  0.00     0.032 A 
BRANCH  18  21
HETATM   21  O   UNL     1      44.635 -18.798   4.484  1.00  0.00    -0.311 OA
BRANCH  21  22
HETATM   22  C   UNL     1      44.566 -20.087   4.014  1.00  0.00     0.076 A 
HETATM   23  C   UNL     1      44.369 -20.320   2.654  1.00  0.00     0.037 A 
HETATM   24  C   UNL     1      44.341 -21.631   2.178  1.00  0.00     0.003 A 
HETATM   25  C   UNL     1      44.517 -22.698   3.062  1.00  0.00     0.000 A 
HETATM   26  C   UNL     1      44.735 -22.457   4.419  1.00  0.00     0.003 A 
HETATM   27  C   UNL     1      44.776 -21.147   4.897  1.00  0.00     0.037 A 
ENDBRANCH  21  22
ENDBRANCH  18  21
ENDBRANCH  11  15
ENDBRANCH   4   9
BRANCH   1  28
HETATM   28  N   UNL     1      40.742  -9.150   8.133  1.00  0.00    -0.273 N 
HETATM   29  N   UNL     1      40.404  -7.875   8.385  1.00  0.00     0.005 NA
HETATM   30  N   UNL     1      40.824  -7.586   9.610  1.00  0.00    -0.158 NA
HETATM   31  C   UNL     1      41.418  -8.706  10.141  1.00  0.00     0.101 A 
HETATM   32  C   UNL     1      41.341  -9.724   9.218  1.00  0.00     0.142 A 
BRANCH  31  33
HETATM   33  C   UNL     1      42.015  -8.771  11.462  1.00  0.00    -0.005 A 
HETATM   34  C   UNL     1      42.964  -9.761  11.751  1.00  0.00     0.014 A 
HETATM   35  C   UNL     1      43.544  -9.846  13.019  1.00  0.00     0.001 A 
HETATM   36  C   UNL     1      43.177  -8.946  14.017  1.00  0.00     0.000 A 
HETATM   37  C   UNL     1      42.232  -7.960  13.748  1.00  0.00     0.001 A 
HETATM   38  C   UNL     1      41.654  -7.870  12.478  1.00  0.00     0.014 A 
ENDBRANCH  31  33
ENDBRANCH   1  28
TORSDOF 6
ENDMDL
MODEL 3
REMARK VINA RESULT:      -9.8      2.310     11.288
REMARK  6 active torsions:
REMARK  status: ('A' for Active; 'I' for Inactive)
REMARK    1  A    between atoms: C_4  and  C_5 
REMARK    2  A    between atoms: N_8  and  C_9 
REMARK    3  A    between atoms: C_12  and  N_13 
REMARK       I    between atoms: N_13  and  C_14 
REMARK       I    between atoms: C_14  and  N_15 
REMARK    4  A    between atoms: N_15  and  C_16 
REMARK    5  A    between atoms: C_19  and  O_20 
REMARK    6  A    between atoms: O_20  and  C_21 
ROOT
HETATM    1  C   UNL     1      40.457 -11.082   5.806  1.00  0.00     0.161 C 
HETATM    2  C   UNL     1      40.866 -12.543   5.714  1.00  0.00     0.179 C 
HETATM    3  C   UNL     1      40.922 -12.859   4.226  1.00  0.00     0.177 C 
HETATM    4  C   UNL     1      39.965 -14.031   4.036  1.00  0.00     0.141 C 
HETATM    5  C   UNL     1      39.686 -14.502   5.464  1.00  0.00     0.196 C 
HETATM    6  O   UNL     1      39.856 -13.369   6.318  1.00  0.00    -0.379 OA
HETATM    7  O   UNL     1      40.474 -11.675   3.535  1.00  0.00    -0.379 OA
HETATM    8  C   UNL     1      40.777 -10.571   4.413  1.00  0.00     0.198 C 
ENDROOT
BRANCH   4   9
HETATM    9  N   UNL     1      40.421 -15.109   3.162  1.00  0.00    -0.334 N 
HETATM   10  C   UNL     1      39.956 -15.247   1.888  1.00  0.00     0.321 C 
HETATM   11  N   UNL     1      40.674 -16.037   1.043  1.00  0.00    -0.309 N 
HETATM   12  O   UNL     1      39.003 -14.607   1.453  1.00  0.00    -0.247 OA
HETATM   13  H   UNL     1      40.431 -15.851   0.077  1.00  0.00     0.170 HD
HETATM   14  H   UNL     1      41.388 -15.372   3.280  1.00  0.00     0.164 HD
BRANCH  11  15
HETATM   15  C   UNL     1      41.716 -16.949   1.268  1.00  0.00     0.036 A 
HETATM   16  C   UNL     1      43.068 -16.606   1.237  1.00  0.00     0.032 A 
HETATM   17  C   UNL     1      44.047 -17.580   1.465  1.00  0.00     0.039 A 
HETATM   18  C   UNL     1      43.682 -18.904   1.718  1.00  0.00     0.076 A 
HETATM   19  C   UNL     1      42.330 -19.241   1.789  1.00  0.00     0.039 A 
HETATM   20  C   UNL     1      41.354 -18.263   1.581  1.00  0.00     0.032 A 
BRANCH  18  21
HETATM   21  O   UNL     1      44.722 -19.780   1.949  1.00  0.00    -0.311 OA
BRANCH  21  22
HETATM   22  C   UNL     1      44.654 -20.548   3.084  1.00  0.00     0.076 A 
HETATM   23  C   UNL     1      44.661 -21.938   2.983  1.00  0.00     0.037 A 
HETATM   24  C   UNL     1      44.633 -22.713   4.143  1.00  0.00     0.003 A 
HETATM   25  C   UNL     1      44.603 -22.094   5.395  1.00  0.00     0.000 A 
HETATM   26  C   UNL     1      44.616 -20.701   5.490  1.00  0.00     0.003 A 
HETATM   27  C   UNL     1      44.657 -19.924   4.333  1.00  0.00     0.037 A 
ENDBRANCH  21  22
ENDBRANCH  18  21
ENDBRANCH  11  15
ENDBRANCH   4   9
BRANCH   1  28
HETATM   28  N   UNL     1      41.091 -10.394   6.902  1.00  0.00    -0.273 N 
HETATM   29  N   UNL     1      41.538  -9.133   6.784  1.00  0.00     0.005 NA
HETATM   30  N   UNL     1      42.069  -8.789   7.950  1.00  0.00    -0.158 NA
HETATM   31  C   UNL     1      41.933  -9.845   8.818  1.00  0.00     0.101 A 
HETATM   32  C   UNL     1      41.277 -10.866   8.170  1.00  0.00     0.142 A 
BRANCH  31  33
HETATM   33  C   UNL     1      42.411  -9.848  10.189  1.00  0.00    -0.005 A 
HETATM   34  C   UNL     1      43.463 -10.698  10.559  1.00  0.00     0.014 A 
HETATM   35  C   UNL     1      43.931 -10.723  11.875  1.00  0.00     0.001 A 
HETATM   36  C   UNL     1      43.350  -9.902  12.839  1.00  0.00     0.000 A 
HETATM   37  C   UNL     1      42.302  -9.056  12.489  1.00  0.00     0.001 A 
HETATM   38  C   UNL     1      41.835  -9.027  11.172  1.00  0.00     0.014 A 
ENDBRANCH  31  33
ENDBRANCH   1  28
TORSDOF 6
ENDMDL
MODEL 4
REMARK VINA RESULT:      -9.5      5.669      9.692
REMARK  6 active torsions:
REMARK  status: ('A' for Active; 'I' for Inactive)
REMARK    1  A    between atoms: C_4  and  C_5 
REMARK    2  A    between atoms: N_8  and  C_9 
REMARK    3  A    between atoms: C_12  and  N_13 
REMARK       I    between atoms: N_13  and  C_14 
REMARK       I    between atoms: C_14  and  N_15 
REMARK    4  A    between atoms: N_15  and  C_16 
REMARK    5  A    between atoms: C_19  and  O_20 
REMARK    6  A    between atoms: O_20  and  C_21 
ROOT
HETATM    1  C   UNL     1      43.080 -15.336   5.584  1.00  0.00     0.161 C 
HETATM    2  C   UNL     1      41.729 -15.342   4.886  1.00  0.00     0.179 C 
HETATM    3  C   UNL     1      41.649 -14.017   4.141  1.00  0.00     0.177 C 
HETATM    4  C   UNL     1      40.383 -13.346   4.665  1.00  0.00     0.141 C 
HETATM    5  C   UNL     1      39.669 -14.468   5.421  1.00  0.00     0.196 C 
HETATM    6  O   UNL     1      40.676 -15.380   5.864  1.00  0.00    -0.379 OA
HETATM    7  O   UNL     1      42.838 -13.276   4.484  1.00  0.00    -0.379 OA
HETATM    8  C   UNL     1      43.833 -14.266   4.815  1.00  0.00     0.198 C 
ENDROOT
BRANCH   4   9
HETATM    9  N   UNL     1      39.530 -12.699   3.672  1.00  0.00    -0.334 N 
HETATM   10  C   UNL     1      38.833 -11.561   3.954  1.00  0.00     0.321 C 
HETATM   11  N   UNL     1      38.358 -10.842   2.901  1.00  0.00    -0.309 N 
HETATM   12  O   UNL     1      38.723 -11.113   5.092  1.00  0.00    -0.247 OA
HETATM   13  H   UNL     1      38.122  -9.898   3.184  1.00  0.00     0.170 HD
HETATM   14  H   UNL     1      39.866 -12.753   2.722  1.00  0.00     0.164 HD
BRANCH  11  15
HETATM   15  C   UNL     1      38.242 -11.141   1.535  1.00  0.00     0.036 A 
HETATM   16  C   UNL     1      37.221 -11.925   0.997  1.00  0.00     0.032 A 
HETATM   17  C   UNL     1      37.182 -12.183  -0.378  1.00  0.00     0.039 A 
HETATM   18  C   UNL     1      38.166 -11.666  -1.223  1.00  0.00     0.076 A 
HETATM   19  C   UNL     1      39.165 -10.848  -0.693  1.00  0.00     0.039 A 
HETATM   20  C   UNL     1      39.190 -10.575   0.678  1.00  0.00     0.032 A 
BRANCH  18  21
HETATM   21  O   UNL     1      38.024 -11.962  -2.562  1.00  0.00    -0.311 OA
BRANCH  21  22
HETATM   22  C   UNL     1      38.452 -13.197  -2.980  1.00  0.00     0.076 A 
HETATM   23  C   UNL     1      37.525 -14.139  -3.424  1.00  0.00     0.037 A 
HETATM   24  C   UNL     1      37.969 -15.378  -3.885  1.00  0.00     0.003 A 
HETATM   25  C   UNL     1      39.336 -15.665  -3.906  1.00  0.00     0.000 A 
HETATM   26  C   UNL     1      40.261 -14.710  -3.480  1.00  0.00     0.003 A 
HETATM   27  C   UNL     1      39.820 -13.466  -3.029  1.00  0.00     0.037 A 
ENDBRANCH  21  22
ENDBRANCH  18  21
ENDBRANCH  11  15
ENDBRANCH   4   9
BRANCH   1  28
HETATM   28  N   UNL     1      43.688 -16.641   5.631  1.00  0.00    -0.273 N 
HETATM   29  N   UNL     1      44.576 -16.975   6.582  1.00  0.00     0.005 NA
HETATM   30  N   UNL     1      44.953 -18.227   6.351  1.00  0.00    -0.158 NA
HETATM   31  C   UNL     1      44.275 -18.689   5.249  1.00  0.00     0.101 A 
HETATM   32  C   UNL     1      43.436 -17.695   4.800  1.00  0.00     0.142 A 
BRANCH  31  33
HETATM   33  C   UNL     1      44.437 -20.015   4.681  1.00  0.00    -0.005 A 
HETATM   34  C   UNL     1      44.346 -20.195   3.294  1.00  0.00     0.014 A 
HETATM   35  C   UNL     1      44.490 -21.465   2.728  1.00  0.00     0.001 A 
HETATM   36  C   UNL     1      44.721 -22.571   3.543  1.00  0.00     0.000 A 
HETATM   37  C   UNL     1      44.809 -22.409   4.923  1.00  0.00     0.001 A 
HETATM   38  C   UNL     1      44.669 -21.139   5.490  1.00  0.00     0.014 A 
ENDBRANCH  31  33
ENDBRANCH   1  28
TORSDOF 6
ENDMDL
MODEL 5
REMARK VINA RESULT:      -9.5      1.450      2.042
REMARK  6 active torsions:
REMARK  status: ('A' for Active; 'I' for Inactive)
REMARK    1  A    between atoms: C_4  and  C_5 
REMARK    2  A    between atoms: N_8  and  C_9 
REMARK    3  A    between atoms: C_12  and  N_13 
REMARK       I    between atoms: N_13  and  C_14 
REMARK       I    between atoms: C_14  and  N_15 
REMARK    4  A    between atoms: N_15  and  C_16 
REMARK    5  A    between atoms: C_19  and  O_20 
REMARK    6  A    between atoms: O_20  and  C_21 
ROOT
HETATM    1  C   UNL     1      43.125 -14.809   3.022  1.00  0.00     0.161 C 
HETATM    2  C   UNL     1      42.613 -14.725   4.452  1.00  0.00     0.179 C 
HETATM    3  C   UNL     1      41.724 -13.489   4.494  1.00  0.00     0.177 C 
HETATM    4  C   UNL     1      42.319 -12.615   5.593  1.00  0.00     0.141 C 
HETATM    5  C   UNL     1      43.295 -13.550   6.309  1.00  0.00     0.196 C 
HETATM    6  O   UNL     1      43.716 -14.525   5.352  1.00  0.00    -0.379 OA
HETATM    7  O   UNL     1      41.816 -12.868   3.196  1.00  0.00    -0.379 OA
HETATM    8  C   UNL     1      42.138 -13.930   2.276  1.00  0.00     0.198 C 
ENDROOT
BRANCH   4   9
HETATM    9  N   UNL     1      41.371 -11.980   6.505  1.00  0.00    -0.334 N 
HETATM   10  C   UNL     1      40.087 -12.423   6.631  1.00  0.00     0.321 C 
HETATM   11  N   UNL     1      39.392 -12.020   7.729  1.00  0.00    -0.309 N 
HETATM   12  O   UNL     1      39.589 -13.246   5.868  1.00  0.00    -0.247 OA
HETATM   13  H   UNL     1      38.584 -12.611   7.885  1.00  0.00     0.170 HD
HETATM   14  H   UNL     1      41.774 -11.631   7.362  1.00  0.00     0.164 HD
BRANCH  11  15
HETATM   15  C   UNL     1      39.649 -11.034   8.694  1.00  0.00     0.036 A 
HETATM   16  C   UNL     1      39.661  -9.665   8.421  1.00  0.00     0.032 A 
HETATM   17  C   UNL     1      39.935  -8.746   9.440  1.00  0.00     0.039 A 
HETATM   18  C   UNL     1      40.206  -9.188  10.737  1.00  0.00     0.076 A 
HETATM   19  C   UNL     1      40.155 -10.553  11.021  1.00  0.00     0.039 A 
HETATM   20  C   UNL     1      39.862 -11.468  10.006  1.00  0.00     0.032 A 
BRANCH  18  21
HETATM   21  O   UNL     1      40.442  -8.201  11.671  1.00  0.00    -0.311 OA
BRANCH  21  22
HETATM   22  C   UNL     1      41.167  -8.551  12.783  1.00  0.00     0.076 A 
HETATM   23  C   UNL     1      40.522  -8.716  14.008  1.00  0.00     0.037 A 
HETATM   24  C   UNL     1      41.258  -9.112  15.125  1.00  0.00     0.003 A 
HETATM   25  C   UNL     1      42.630  -9.346  15.010  1.00  0.00     0.000 A 
HETATM   26  C   UNL     1      43.266  -9.199  13.775  1.00  0.00     0.003 A 
HETATM   27  C   UNL     1      42.531  -8.815  12.654  1.00  0.00     0.037 A 
ENDBRANCH  21  22
ENDBRANCH  18  21
ENDBRANCH  11  15
ENDBRANCH   4   9
BRANCH   1  28
HETATM   28  N   UNL     1      43.256 -16.166   2.556  1.00  0.00    -0.273 N 
HETATM   29  N   UNL     1      43.002 -16.505   1.282  1.00  0.00     0.005 NA
HETATM   30  N   UNL     1      43.205 -17.813   1.171  1.00  0.00    -0.158 NA
HETATM   31  C   UNL     1      43.612 -18.294   2.392  1.00  0.00     0.101 A 
HETATM   32  C   UNL     1      43.682 -17.244   3.278  1.00  0.00     0.142 A 
BRANCH  31  33
HETATM   33  C   UNL     1      43.914 -19.687   2.665  1.00  0.00    -0.005 A 
HETATM   34  C   UNL     1      44.522 -20.044   3.877  1.00  0.00     0.014 A 
HETATM   35  C   UNL     1      44.830 -21.378   4.156  1.00  0.00     0.001 A 
HETATM   36  C   UNL     1      44.539 -22.372   3.224  1.00  0.00     0.000 A 
HETATM   37  C   UNL     1      43.940 -22.034   2.014  1.00  0.00     0.001 A 
HETATM   38  C   UNL     1      43.628 -20.700   1.735  1.00  0.00     0.014 A 
ENDBRANCH  31  33
ENDBRANCH   1  28
TORSDOF 6
ENDMDL
MODEL 6
REMARK VINA RESULT:      -9.4      2.478     11.446
REMARK  6 active torsions:
REMARK  status: ('A' for Active; 'I' for Inactive)
REMARK    1  A    between atoms: C_4  and  C_5 
REMARK    2  A    between atoms: N_8  and  C_9 
REMARK    3  A    between atoms: C_12  and  N_13 
REMARK       I    between atoms: N_13  and  C_14 
REMARK       I    between atoms: C_14  and  N_15 
REMARK    4  A    between atoms: N_15  and  C_16 
REMARK    5  A    between atoms: C_19  and  O_20 
REMARK    6  A    between atoms: O_20  and  C_21 
ROOT
HETATM    1  C   UNL     1      40.929 -10.097   7.368  1.00  0.00     0.161 C 
HETATM    2  C   UNL     1      40.815 -11.532   6.877  1.00  0.00     0.179 C 
HETATM    3  C   UNL     1      40.955 -11.457   5.363  1.00  0.00     0.177 C 
HETATM    4  C   UNL     1      39.686 -12.103   4.818  1.00  0.00     0.141 C 
HETATM    5  C   UNL     1      39.073 -12.783   6.043  1.00  0.00     0.196 C 
HETATM    6  O   UNL     1      39.510 -12.050   7.190  1.00  0.00    -0.379 OA
HETATM    7  O   UNL     1      41.042 -10.058   5.024  1.00  0.00    -0.379 OA
HETATM    8  C   UNL     1      41.588  -9.406   6.188  1.00  0.00     0.198 C 
ENDROOT
BRANCH   4   9
HETATM    9  N   UNL     1      39.852 -13.014   3.689  1.00  0.00    -0.334 N 
HETATM   10  C   UNL     1      39.764 -12.584   2.398  1.00  0.00     0.321 C 
HETATM   11  N   UNL     1      40.271 -13.397   1.431  1.00  0.00    -0.309 N 
HETATM   12  O   UNL     1      39.360 -11.464   2.095  1.00  0.00    -0.247 OA
HETATM   13  H   UNL     1      40.425 -12.885   0.570  1.00  0.00     0.170 HD
HETATM   14  H   UNL     1      40.525 -13.753   3.833  1.00  0.00     0.164 HD
BRANCH  11  15
HETATM   15  C   UNL     1      40.691 -14.736   1.456  1.00  0.00     0.036 A 
HETATM   16  C   UNL     1      39.870 -15.800   1.830  1.00  0.00     0.032 A 
HETATM   17  C   UNL     1      40.371 -17.107   1.835  1.00  0.00     0.039 A 
HETATM   18  C   UNL     1      41.695 -17.358   1.473  1.00  0.00     0.076 A 
HETATM   19  C   UNL     1      42.506 -16.301   1.059  1.00  0.00     0.039 A 
HETATM   20  C   UNL     1      41.999 -14.998   1.035  1.00  0.00     0.032 A 
BRANCH  18  21
HETATM   21  O   UNL     1      42.083 -18.682   1.491  1.00  0.00    -0.311 OA
BRANCH  21  22
HETATM   22  C   UNL     1      42.969 -19.062   2.468  1.00  0.00     0.076 A 
HETATM   23  C   UNL     1      42.893 -18.487   3.736  1.00  0.00     0.037 A 
HETATM   24  C   UNL     1      43.770 -18.908   4.736  1.00  0.00     0.003 A 
HETATM   25  C   UNL     1      44.712 -19.903   4.464  1.00  0.00     0.000 A 
HETATM   26  C   UNL     1      44.769 -20.489   3.199  1.00  0.00     0.003 A 
HETATM   27  C   UNL     1      43.886 -20.080   2.200  1.00  0.00     0.037 A 
ENDBRANCH  21  22
ENDBRANCH  18  21
ENDBRANCH  11  15
ENDBRANCH   4   9
BRANCH   1  28
HETATM   28  N   UNL     1      41.610  -9.994   8.634  1.00  0.00    -0.273 N 
HETATM   29  N   UNL     1      42.894 -10.358   8.779  1.00  0.00     0.005 NA
HETATM   30  N   UNL     1      43.225 -10.151  10.048  1.00  0.00    -0.158 NA
HETATM   31  C   UNL     1      42.134  -9.631  10.701  1.00  0.00     0.101 A 
HETATM   32  C   UNL     1      41.104  -9.492   9.799  1.00  0.00     0.142 A 
BRANCH  31  33
HETATM   33  C   UNL     1      42.108  -9.289  12.112  1.00  0.00    -0.005 A 
HETATM   34  C   UNL     1      43.213  -9.586  12.922  1.00  0.00     0.014 A 
HETATM   35  C   UNL     1      43.204  -9.274  14.284  1.00  0.00     0.001 A 
HETATM   36  C   UNL     1      42.089  -8.666  14.854  1.00  0.00     0.000 A 
HETATM   37  C   UNL     1      40.981  -8.369  14.065  1.00  0.00     0.001 A 
HETATM   38  C   UNL     1      40.990  -8.677  12.701  1.00  0.00     0.014 A 
ENDBRANCH  31  33
ENDBRANCH   1  28
TORSDOF 6
ENDMDL
MODEL 7
REMARK VINA RESULT:      -9.1      1.568      2.247
REMARK  6 active torsions:
REMARK  status: ('A' for Active; 'I' for Inactive)
REMARK    1  A    between atoms: C_4  and  C_5 
REMARK    2  A    between atoms: N_8  and  C_9 
REMARK    3  A    between atoms: C_12  and  N_13 
REMARK       I    between atoms: N_13  and  C_14 
REMARK       I    between atoms: C_14  and  N_15 
REMARK    4  A    between atoms: N_15  and  C_16 
REMARK    5  A    between atoms: C_19  and  O_20 
REMARK    6  A    between atoms: O_20  and  C_21 
ROOT
HETATM    1  C   UNL     1      41.268 -15.421   2.031  1.00  0.00     0.161 C 
HETATM    2  C   UNL     1      41.837 -14.432   3.037  1.00  0.00     0.179 C 
HETATM    3  C   UNL     1      40.633 -13.859   3.771  1.00  0.00     0.177 C 
HETATM    4  C   UNL     1      40.729 -12.350   3.566  1.00  0.00     0.141 C 
HETATM    5  C   UNL     1      42.141 -12.151   3.014  1.00  0.00     0.196 C 
HETATM    6  O   UNL     1      42.501 -13.362   2.344  1.00  0.00    -0.379 OA
HETATM    7  O   UNL     1      39.461 -14.419   3.144  1.00  0.00    -0.379 OA
HETATM    8  C   UNL     1      39.880 -15.681   2.587  1.00  0.00     0.198 C 
ENDROOT
BRANCH   4   9
HETATM    9  N   UNL     1      40.454 -11.516   4.732  1.00  0.00    -0.334 N 
HETATM   10  C   UNL     1      39.803 -10.322   4.626  1.00  0.00     0.321 C 
HETATM   11  N   UNL     1      39.283  -9.790   5.765  1.00  0.00    -0.309 N 
HETATM   12  O   UNL     1      39.573  -9.783   3.547  1.00  0.00    -0.247 OA
HETATM   13  H   UNL     1      38.589  -9.082   5.552  1.00  0.00     0.170 HD
HETATM   14  H   UNL     1      40.249 -12.024   5.581  1.00  0.00     0.164 HD
BRANCH  11  15
HETATM   15  C   UNL     1      39.463 -10.111   7.120  1.00  0.00     0.036 A 
HETATM   16  C   UNL     1      39.329 -11.401   7.635  1.00  0.00     0.032 A 
HETATM   17  C   UNL     1      39.518 -11.635   9.002  1.00  0.00     0.039 A 
HETATM   18  C   UNL     1      39.834 -10.583   9.863  1.00  0.00     0.076 A 
HETATM   19  C   UNL     1      40.007  -9.300   9.344  1.00  0.00     0.039 A 
HETATM   20  C   UNL     1      39.838  -9.071   7.975  1.00  0.00     0.032 A 
BRANCH  18  21
HETATM   21  O   UNL     1      40.019 -10.924  11.187  1.00  0.00    -0.311 OA
BRANCH  21  22
HETATM   22  C   UNL     1      41.213 -10.572  11.764  1.00  0.00     0.076 A 
HETATM   23  C   UNL     1      42.411 -11.026  11.213  1.00  0.00     0.037 A 
HETATM   24  C   UNL     1      43.622 -10.631  11.780  1.00  0.00     0.003 A 
HETATM   25  C   UNL     1      43.630  -9.781  12.888  1.00  0.00     0.000 A 
HETATM   26  C   UNL     1      42.428  -9.313  13.422  1.00  0.00     0.003 A 
HETATM   27  C   UNL     1      41.215  -9.696  12.850  1.00  0.00     0.037 A 
ENDBRANCH  21  22
ENDBRANCH  18  21
ENDBRANCH  11  15
ENDBRANCH   4   9
BRANCH   1  28
HETATM   28  N   UNL     1      42.112 -16.574   1.846  1.00  0.00    -0.273 N 
HETATM   29  N   UNL     1      42.826 -16.757   0.723  1.00  0.00     0.005 NA
HETATM   30  N   UNL     1      43.487 -17.900   0.855  1.00  0.00    -0.158 NA
HETATM   31  C   UNL     1      43.197 -18.431   2.088  1.00  0.00     0.101 A 
HETATM   32  C   UNL     1      42.345 -17.574   2.747  1.00  0.00     0.142 A 
BRANCH  31  33
HETATM   33  C   UNL     1      43.723 -19.689   2.586  1.00  0.00    -0.005 A 
HETATM   34  C   UNL     1      43.633 -20.843   1.796  1.00  0.00     0.014 A 
HETATM   35  C   UNL     1      44.125 -22.066   2.260  1.00  0.00     0.001 A 
HETATM   36  C   UNL     1      44.710 -22.150   3.522  1.00  0.00     0.000 A 
HETATM   37  C   UNL     1      44.803 -21.014   4.320  1.00  0.00     0.001 A 
HETATM   38  C   UNL     1      44.315 -19.789   3.856  1.00  0.00     0.014 A 
ENDBRANCH  31  33
ENDBRANCH   1  28
TORSDOF 6
ENDMDL
MODEL 8
REMARK VINA RESULT:      -9.0      5.664     10.573
REMARK  6 active torsions:
REMARK  status: ('A' for Active; 'I' for Inactive)
REMARK    1  A    between atoms: C_4  and  C_5 
REMARK    2  A    between atoms: N_8  and  C_9 
REMARK    3  A    between atoms: C_12  and  N_13 
REMARK       I    between atoms: N_13  and  C_14 
REMARK       I    between atoms: C_14  and  N_15 
REMARK    4  A    between atoms: N_15  and  C_16 
REMARK    5  A    between atoms: C_19  and  O_20 
REMARK    6  A    between atoms: O_20  and  C_21 
ROOT
HETATM    1  C   UNL     1      38.669 -12.755   0.049  1.00  0.00     0.161 C 
HETATM    2  C   UNL     1      39.957 -12.934   0.837  1.00  0.00     0.179 C 
HETATM    3  C   UNL     1      39.666 -14.033   1.849  1.00  0.00     0.177 C 
HETATM    4  C   UNL     1      39.963 -13.405   3.207  1.00  0.00     0.141 C 
HETATM    5  C   UNL     1      40.704 -12.115   2.853  1.00  0.00     0.196 C 
HETATM    6  O   UNL     1      40.262 -11.724   1.551  1.00  0.00    -0.379 OA
HETATM    7  O   UNL     1      38.273 -14.375   1.701  1.00  0.00    -0.379 OA
HETATM    8  C   UNL     1      37.934 -14.051   0.338  1.00  0.00     0.198 C 
ENDROOT
BRANCH   4   9
HETATM    9  N   UNL     1      40.694 -14.234   4.162  1.00  0.00    -0.334 N 
HETATM   10  C   UNL     1      40.393 -14.234   5.492  1.00  0.00     0.321 C 
HETATM   11  N   UNL     1      40.865 -15.269   6.240  1.00  0.00    -0.309 N 
HETATM   12  O   UNL     1      39.632 -13.418   6.003  1.00  0.00    -0.247 OA
HETATM   13  H   UNL     1      40.365 -15.342   7.118  1.00  0.00     0.170 HD
HETATM   14  H   UNL     1      40.995 -15.129   3.806  1.00  0.00     0.164 HD
BRANCH  11  15
HETATM   15  C   UNL     1      41.815 -16.267   5.969  1.00  0.00     0.036 A 
HETATM   16  C   UNL     1      41.489 -17.543   5.508  1.00  0.00     0.032 A 
HETATM   17  C   UNL     1      42.498 -18.484   5.270  1.00  0.00     0.039 A 
HETATM   18  C   UNL     1      43.836 -18.159   5.497  1.00  0.00     0.076 A 
HETATM   19  C   UNL     1      44.167 -16.871   5.920  1.00  0.00     0.039 A 
HETATM   20  C   UNL     1      43.160 -15.926   6.137  1.00  0.00     0.032 A 
BRANCH  18  21
HETATM   21  O   UNL     1      44.752 -19.150   5.212  1.00  0.00    -0.311 OA
BRANCH  21  22
HETATM   22  C   UNL     1      44.477 -19.969   4.146  1.00  0.00     0.076 A 
HETATM   23  C   UNL     1      44.035 -19.420   2.944  1.00  0.00     0.037 A 
HETATM   24  C   UNL     1      43.797 -20.255   1.852  1.00  0.00     0.003 A 
HETATM   25  C   UNL     1      44.008 -21.631   1.967  1.00  0.00     0.000 A 
HETATM   26  C   UNL     1      44.470 -22.172   3.167  1.00  0.00     0.003 A 
HETATM   27  C   UNL     1      44.721 -21.339   4.257  1.00  0.00     0.037 A 
ENDBRANCH  21  22
ENDBRANCH  18  21
ENDBRANCH  11  15
ENDBRANCH   4   9
BRANCH   1  28
HETATM   28  N   UNL     1      38.903 -12.446  -1.339  1.00  0.00    -0.273 N 
HETATM   29  N   UNL     1      38.147 -12.969  -2.319  1.00  0.00     0.005 NA
HETATM   30  N   UNL     1      38.612 -12.503  -3.471  1.00  0.00    -0.158 NA
HETATM   31  C   UNL     1      39.663 -11.658  -3.205  1.00  0.00     0.101 A 
HETATM   32  C   UNL     1      39.836 -11.586  -1.842  1.00  0.00     0.142 A 
BRANCH  31  33
HETATM   33  C   UNL     1      40.438 -10.967  -4.220  1.00  0.00    -0.005 A 
HETATM   34  C   UNL     1      39.788 -10.378  -5.313  1.00  0.00     0.014 A 
HETATM   35  C   UNL     1      40.516  -9.716  -6.305  1.00  0.00     0.001 A 
HETATM   36  C   UNL     1      41.905  -9.640  -6.220  1.00  0.00     0.000 A 
HETATM   37  C   UNL     1      42.566 -10.225  -5.143  1.00  0.00     0.001 A 
HETATM   38  C   UNL     1      41.838 -10.884  -4.147  1.00  0.00     0.014 A 
ENDBRANCH  31  33
ENDBRANCH   1  28
TORSDOF 6
ENDMDL
MODEL 9
REMARK VINA RESULT:      -8.9      4.781      8.037
REMARK  6 active torsions:
REMARK  status: ('A' for Active; 'I' for Inactive)
REMARK    1  A    between atoms: C_4  and  C_5 
REMARK    2  A    between atoms: N_8  and  C_9 
REMARK    3  A    between atoms: C_12  and  N_13 
REMARK       I    between atoms: N_13  and  C_14 
REMARK       I    between atoms: C_14  and  N_15 
REMARK    4  A    between atoms: N_15  and  C_16 
REMARK    5  A    between atoms: C_19  and  O_20 
REMARK    6  A    between atoms: O_20  and  C_21 
ROOT
HETATM    1  C   UNL     1      43.195 -15.522   6.365  1.00  0.00     0.161 C 
HETATM    2  C   UNL     1      42.152 -14.971   5.405  1.00  0.00     0.179 C 
HETATM    3  C   UNL     1      42.315 -13.458   5.450  1.00  0.00     0.177 C 
HETATM    4  C   UNL     1      40.943 -12.926   5.851  1.00  0.00     0.141 C 
HETATM    5  C   UNL     1      40.026 -14.139   5.690  1.00  0.00     0.196 C 
HETATM    6  O   UNL     1      40.835 -15.302   5.878  1.00  0.00    -0.379 OA
HETATM    7  O   UNL     1      43.319 -13.179   6.447  1.00  0.00    -0.379 OA
HETATM    8  C   UNL     1      44.154 -14.353   6.500  1.00  0.00     0.198 C 
ENDROOT
BRANCH   4   9
HETATM    9  N   UNL     1      40.462 -11.753   5.128  1.00  0.00    -0.334 N 
HETATM   10  C   UNL     1      39.615 -10.850   5.701  1.00  0.00     0.321 C 
HETATM   11  N   UNL     1      39.501  -9.632   5.104  1.00  0.00    -0.309 N 
HETATM   12  O   UNL     1      39.057 -11.051   6.776  1.00  0.00    -0.247 OA
HETATM   13  H   UNL     1      39.098  -8.953   5.739  1.00  0.00     0.170 HD
HETATM   14  H   UNL     1      41.128 -11.345   4.487  1.00  0.00     0.164 HD
BRANCH  11  15
HETATM   15  C   UNL     1      39.921  -9.157   3.852  1.00  0.00     0.036 A 
HETATM   16  C   UNL     1      39.292  -9.479   2.649  1.00  0.00     0.032 A 
HETATM   17  C   UNL     1      39.780  -8.969   1.441  1.00  0.00     0.039 A 
HETATM   18  C   UNL     1      40.903  -8.139   1.425  1.00  0.00     0.076 A 
HETATM   19  C   UNL     1      41.510  -7.783   2.631  1.00  0.00     0.039 A 
HETATM   20  C   UNL     1      41.009  -8.278   3.838  1.00  0.00     0.032 A 
BRANCH  18  21
HETATM   21  O   UNL     1      41.290  -7.674   0.186  1.00  0.00    -0.311 OA
BRANCH  21  22
HETATM   22  C   UNL     1      41.882  -8.574  -0.665  1.00  0.00     0.076 A 
HETATM   23  C   UNL     1      43.069  -9.203  -0.294  1.00  0.00     0.037 A 
HETATM   24  C   UNL     1      43.644 -10.146  -1.145  1.00  0.00     0.003 A 
HETATM   25  C   UNL     1      43.025 -10.460  -2.358  1.00  0.00     0.000 A 
HETATM   26  C   UNL     1      41.825  -9.841  -2.714  1.00  0.00     0.003 A 
HETATM   27  C   UNL     1      41.242  -8.907  -1.860  1.00  0.00     0.037 A 
ENDBRANCH  21  22
ENDBRANCH  18  21
ENDBRANCH  11  15
ENDBRANCH   4   9
BRANCH   1  28
HETATM   28  N   UNL     1      43.762 -16.768   5.915  1.00  0.00    -0.273 N 
HETATM   29  N   UNL     1      44.839 -17.311   6.507  1.00  0.00     0.005 NA
HETATM   30  N   UNL     1      45.117 -18.440   5.867  1.00  0.00    -0.158 NA
HETATM   31  C   UNL     1      44.187 -18.615   4.871  1.00  0.00     0.101 A 
HETATM   32  C   UNL     1      43.293 -17.570   4.914  1.00  0.00     0.142 A 
BRANCH  31  33
HETATM   33  C   UNL     1      44.175 -19.734   3.946  1.00  0.00    -0.005 A 
HETATM   34  C   UNL     1      44.729 -20.963   4.331  1.00  0.00     0.014 A 
HETATM   35  C   UNL     1      44.736 -22.049   3.453  1.00  0.00     0.001 A 
HETATM   36  C   UNL     1      44.193 -21.920   2.177  1.00  0.00     0.000 A 
HETATM   37  C   UNL     1      43.642 -20.705   1.778  1.00  0.00     0.001 A 
HETATM   38  C   UNL     1      43.631 -19.618   2.657  1.00  0.00     0.014 A 
ENDBRANCH  31  33
ENDBRANCH   1  28
TORSDOF 6
ENDMDL
MODEL 10
REMARK VINA RESULT:      -8.6      4.258      7.172
REMARK  6 active torsions:
REMARK  status: ('A' for Active; 'I' for Inactive)
REMARK    1  A    between atoms: C_4  and  C_5 
REMARK    2  A    between atoms: N_8  and  C_9 
REMARK    3  A    between atoms: C_12  and  N_13 
REMARK       I    between atoms: N_13  and  C_14 
REMARK       I    between atoms: C_14  and  N_15 
REMARK    4  A    between atoms: N_15  and  C_16 
REMARK    5  A    between atoms: C_19  and  O_20 
REMARK    6  A    between atoms: O_20  and  C_21 
ROOT
HETATM    1  C   UNL     1      42.700 -15.177   5.316  1.00  0.00     0.161 C 
HETATM    2  C   UNL     1      41.465 -14.413   4.863  1.00  0.00     0.179 C 
HETATM    3  C   UNL     1      41.691 -12.974   5.306  1.00  0.00     0.177 C 
HETATM    4  C   UNL     1      40.490 -12.641   6.185  1.00  0.00     0.141 C 
HETATM    5  C   UNL     1      39.517 -13.790   5.916  1.00  0.00     0.196 C 
HETATM    6  O   UNL     1      40.303 -14.923   5.539  1.00  0.00    -0.379 OA
HETATM    7  O   UNL     1      42.927 -12.959   6.048  1.00  0.00    -0.379 OA
HETATM    8  C   UNL     1      43.704 -14.061   5.537  1.00  0.00     0.198 C 
ENDROOT
BRANCH   4   9
HETATM    9  N   UNL     1      39.883 -11.328   5.987  1.00  0.00    -0.334 N 
HETATM   10  C   UNL     1      40.592 -10.174   6.157  1.00  0.00     0.321 C 
HETATM   11  N   UNL     1      40.072  -9.036   5.621  1.00  0.00    -0.309 N 
HETATM   12  O   UNL     1      41.712 -10.149   6.660  1.00  0.00    -0.247 OA
HETATM   13  H   UNL     1      40.780  -8.316   5.540  1.00  0.00     0.170 HD
HETATM   14  H   UNL     1      39.192 -11.284   5.252  1.00  0.00     0.164 HD
BRANCH  11  15
HETATM   15  C   UNL     1      38.805  -8.740   5.094  1.00  0.00     0.036 A 
HETATM   16  C   UNL     1      37.817  -8.046   5.793  1.00  0.00     0.032 A 
HETATM   17  C   UNL     1      36.575  -7.798   5.196  1.00  0.00     0.039 A 
HETATM   18  C   UNL     1      36.310  -8.248   3.901  1.00  0.00     0.076 A 
HETATM   19  C   UNL     1      37.311  -8.907   3.186  1.00  0.00     0.039 A 
HETATM   20  C   UNL     1      38.557  -9.136   3.776  1.00  0.00     0.032 A 
BRANCH  18  21
HETATM   21  O   UNL     1      35.065  -7.934   3.399  1.00  0.00    -0.311 OA
BRANCH  21  22
HETATM   22  C   UNL     1      34.089  -8.894   3.498  1.00  0.00     0.076 A 
HETATM   23  C   UNL     1      33.433  -9.094   4.712  1.00  0.00     0.037 A 
HETATM   24  C   UNL     1      32.414 -10.043   4.796  1.00  0.00     0.003 A 
HETATM   25  C   UNL     1      32.053 -10.780   3.666  1.00  0.00     0.000 A 
HETATM   26  C   UNL     1      32.699 -10.560   2.448  1.00  0.00     0.003 A 
HETATM   27  C   UNL     1      33.710  -9.604   2.358  1.00  0.00     0.037 A 
ENDBRANCH  21  22
ENDBRANCH  18  21
ENDBRANCH  11  15
ENDBRANCH   4   9
BRANCH   1  28
HETATM   28  N   UNL     1      43.085 -16.213   4.390  1.00  0.00    -0.273 N 
HETATM   29  N   UNL     1      43.349 -15.947   3.100  1.00  0.00     0.005 NA
HETATM   30  N   UNL     1      43.665 -17.096   2.515  1.00  0.00    -0.158 NA
HETATM   31  C   UNL     1      43.616 -18.092   3.459  1.00  0.00     0.101 A 
HETATM   32  C   UNL     1      43.281 -17.534   4.672  1.00  0.00     0.142 A 
BRANCH  31  33
HETATM   33  C   UNL     1      43.886 -19.493   3.190  1.00  0.00    -0.005 A 
HETATM   34  C   UNL     1      44.563 -20.268   4.141  1.00  0.00     0.014 A 
HETATM   35  C   UNL     1      44.841 -21.616   3.898  1.00  0.00     0.001 A 
HETATM   36  C   UNL     1      44.449 -22.204   2.697  1.00  0.00     0.000 A 
HETATM   37  C   UNL     1      43.780 -21.446   1.740  1.00  0.00     0.001 A 
HETATM   38  C   UNL     1      43.498 -20.099   1.984  1.00  0.00     0.014 A 
ENDBRANCH  31  33
ENDBRANCH   1  28
TORSDOF 6
ENDMDL
