MODEL 1
REMARK VINA RESULT:      -9.1      0.000      0.000
REMARK  2 active torsions:
REMARK  status: ('A' for Active; 'I' for Inactive)
REMARK    1  A    between atoms: N_4  and  C_5 
REMARK    2  A    between atoms: C_15  and  C_16 
REMARK       I    between atoms: C_16  and  N_17 
ROOT
HETATM    1  C   UNL     1      43.388 -14.141   4.708  1.00  0.00     0.073 C 
HETATM    2  C   UNL     1      43.218 -15.352   3.868  1.00  0.00     0.069 C 
HETATM    3  N   UNL     1      43.486 -16.569   4.367  1.00  0.00    -0.170 NA
HETATM    4  N   UNL     1      43.291 -17.434   3.325  1.00  0.00    -0.216 N 
HETATM    5  C   UNL     1      42.683 -16.772   2.271  1.00  0.00     0.145 C 
HETATM    6  C   UNL     1      42.726 -15.426   2.554  1.00  0.00     0.087 C 
HETATM    7  N   UNL     1      42.101 -17.264   1.153  1.00  0.00    -0.349 N 
HETATM    8  C   UNL     1      41.501 -16.364   0.288  1.00  0.00     0.111 C 
HETATM    9  C   UNL     1      41.517 -15.020   0.441  1.00  0.00     0.099 C 
HETATM   10  C   UNL     1      42.261 -14.434   1.601  1.00  0.00     0.205 C 
HETATM   11  O   UNL     1      42.471 -13.236   1.742  1.00  0.00    -0.286 OA
HETATM   12  H   UNL     1      41.884 -18.251   1.014  1.00  0.00     0.167 HD
ENDROOT
BRANCH   9  13
HETATM   13  C   UNL     1      40.853 -14.243  -0.638  1.00  0.00     0.264 C 
HETATM   14  N   UNL     1      39.675 -13.570  -0.364  1.00  0.00    -0.309 N 
HETATM   15  C   UNL     1      38.962 -13.400   0.937  1.00  0.00     0.093 C 
HETATM   16  C   UNL     1      38.869 -12.955  -1.358  1.00  0.00     0.044 A 
HETATM   17  C   UNL     1      37.919 -12.281   0.720  1.00  0.00     0.066 C 
HETATM   18  C   UNL     1      38.283 -14.695   1.389  1.00  0.00     0.033 C 
HETATM   19  C   UNL     1      37.819 -12.248  -0.769  1.00  0.00    -0.029 A 
HETATM   20  C   UNL     1      36.880 -11.565  -1.530  1.00  0.00     0.009 A 
HETATM   21  C   UNL     1      36.990 -11.620  -2.920  1.00  0.00     0.001 A 
HETATM   22  C   UNL     1      38.036 -12.333  -3.519  1.00  0.00     0.002 A 
HETATM   23  C   UNL     1      38.986 -13.001  -2.739  1.00  0.00     0.030 A 
HETATM   24  O   UNL     1      41.363 -14.315  -1.760  1.00  0.00    -0.267 OA
ENDBRANCH   9  13
BRANCH   4  25
HETATM   25  C   UNL     1      43.734 -18.783   3.419  1.00  0.00     0.060 A 
HETATM   26  C   UNL     1      44.210 -19.263   4.648  1.00  0.00     0.031 A 
HETATM   27  C   UNL     1      44.678 -20.575   4.759  1.00  0.00     0.002 A 
HETATM   28  C   UNL     1      44.692 -21.408   3.644  1.00  0.00     0.000 A 
HETATM   29  C   UNL     1      44.242 -20.931   2.413  1.00  0.00     0.002 A 
HETATM   30  C   UNL     1      43.767 -19.622   2.297  1.00  0.00     0.031 A 
ENDBRANCH   4  25
TORSDOF 2
ENDMDL
MODEL 2
REMARK VINA RESULT:      -9.0      2.019      8.393
REMARK  2 active torsions:
REMARK  status: ('A' for Active; 'I' for Inactive)
REMARK    1  A    between atoms: N_4  and  C_5 
REMARK    2  A    between atoms: C_15  and  C_16 
REMARK       I    between atoms: C_16  and  N_17 
ROOT
HETATM    1  C   UNL     1      42.955 -11.801  -1.531  1.00  0.00     0.073 C 
HETATM    2  C   UNL     1      41.683 -12.551  -1.396  1.00  0.00     0.069 C 
HETATM    3  N   UNL     1      40.875 -12.716  -2.455  1.00  0.00    -0.170 NA
HETATM    4  N   UNL     1      39.782 -13.382  -1.970  1.00  0.00    -0.216 N 
HETATM    5  C   UNL     1      40.031 -13.823  -0.682  1.00  0.00     0.145 C 
HETATM    6  C   UNL     1      41.190 -13.214  -0.258  1.00  0.00     0.087 C 
HETATM    7  N   UNL     1      39.348 -14.704   0.085  1.00  0.00    -0.349 N 
HETATM    8  C   UNL     1      39.870 -15.017   1.329  1.00  0.00     0.111 C 
HETATM    9  C   UNL     1      40.976 -14.451   1.866  1.00  0.00     0.099 C 
HETATM   10  C   UNL     1      41.685 -13.381   1.097  1.00  0.00     0.205 C 
HETATM   11  O   UNL     1      42.592 -12.697   1.555  1.00  0.00    -0.286 OA
HETATM   12  H   UNL     1      38.608 -15.309  -0.269  1.00  0.00     0.167 HD
ENDROOT
BRANCH   9  13
HETATM   13  C   UNL     1      41.325 -14.901   3.238  1.00  0.00     0.264 C 
HETATM   14  N   UNL     1      42.137 -16.009   3.404  1.00  0.00    -0.309 N 
HETATM   15  C   UNL     1      42.848 -16.825   2.374  1.00  0.00     0.093 C 
HETATM   16  C   UNL     1      42.381 -16.628   4.659  1.00  0.00     0.044 A 
HETATM   17  C   UNL     1      43.871 -17.695   3.138  1.00  0.00     0.066 C 
HETATM   18  C   UNL     1      41.881 -17.700   1.574  1.00  0.00     0.033 C 
HETATM   19  C   UNL     1      43.337 -17.637   4.530  1.00  0.00    -0.029 A 
HETATM   20  C   UNL     1      43.741 -18.403   5.614  1.00  0.00     0.009 A 
HETATM   21  C   UNL     1      43.149 -18.160   6.853  1.00  0.00     0.001 A 
HETATM   22  C   UNL     1      42.184 -17.154   6.990  1.00  0.00     0.002 A 
HETATM   23  C   UNL     1      41.799 -16.377   5.892  1.00  0.00     0.030 A 
HETATM   24  O   UNL     1      40.789 -14.292   4.170  1.00  0.00    -0.267 OA
ENDBRANCH   9  13
BRANCH   4  25
HETATM   25  C   UNL     1      38.604 -13.498  -2.761  1.00  0.00     0.060 A 
HETATM   26  C   UNL     1      38.259 -14.747  -3.299  1.00  0.00     0.031 A 
HETATM   27  C   UNL     1      37.124 -14.880  -4.102  1.00  0.00     0.002 A 
HETATM   28  C   UNL     1      36.337 -13.768  -4.388  1.00  0.00     0.000 A 
HETATM   29  C   UNL     1      36.685 -12.518  -3.877  1.00  0.00     0.002 A 
HETATM   30  C   UNL     1      37.816 -12.379  -3.068  1.00  0.00     0.031 A 
ENDBRANCH   4  25
TORSDOF 2
ENDMDL
MODEL 3
REMARK VINA RESULT:      -9.0      1.229      1.986
REMARK  2 active torsions:
REMARK  status: ('A' for Active; 'I' for Inactive)
REMARK    1  A    between atoms: N_4  and  C_5 
REMARK    2  A    between atoms: C_15  and  C_16 
REMARK       I    between atoms: C_16  and  N_17 
ROOT
HETATM    1  C   UNL     1      43.483 -14.204   5.188  1.00  0.00     0.073 C 
HETATM    2  C   UNL     1      43.078 -15.404   4.415  1.00  0.00     0.069 C 
HETATM    3  N   UNL     1      43.569 -16.613   4.727  1.00  0.00    -0.170 NA
HETATM    4  N   UNL     1      43.050 -17.464   3.790  1.00  0.00    -0.216 N 
HETATM    5  C   UNL     1      42.067 -16.817   3.060  1.00  0.00     0.145 C 
HETATM    6  C   UNL     1      42.143 -15.478   3.367  1.00  0.00     0.087 C 
HETATM    7  N   UNL     1      41.142 -17.319   2.209  1.00  0.00    -0.349 N 
HETATM    8  C   UNL     1      40.224 -16.438   1.663  1.00  0.00     0.111 C 
HETATM    9  C   UNL     1      40.228 -15.099   1.858  1.00  0.00     0.099 C 
HETATM   10  C   UNL     1      41.314 -14.495   2.693  1.00  0.00     0.205 C 
HETATM   11  O   UNL     1      41.502 -13.290   2.801  1.00  0.00    -0.286 OA
HETATM   12  H   UNL     1      40.938 -18.313   2.115  1.00  0.00     0.167 HD
ENDROOT
BRANCH   9  13
HETATM   13  C   UNL     1      39.178 -14.340   1.130  1.00  0.00     0.264 C 
HETATM   14  N   UNL     1      39.337 -14.088  -0.221  1.00  0.00    -0.309 N 
HETATM   15  C   UNL     1      40.404 -14.559  -1.155  1.00  0.00     0.093 C 
HETATM   16  C   UNL     1      38.492 -13.223  -0.966  1.00  0.00     0.044 A 
HETATM   17  C   UNL     1      39.890 -14.273  -2.583  1.00  0.00     0.066 C 
HETATM   18  C   UNL     1      41.735 -13.848  -0.903  1.00  0.00     0.033 C 
HETATM   19  C   UNL     1      38.819 -13.268  -2.323  1.00  0.00    -0.029 A 
HETATM   20  C   UNL     1      38.144 -12.501  -3.262  1.00  0.00     0.009 A 
HETATM   21  C   UNL     1      37.132 -11.650  -2.818  1.00  0.00     0.001 A 
HETATM   22  C   UNL     1      36.802 -11.593  -1.457  1.00  0.00     0.002 A 
HETATM   23  C   UNL     1      37.479 -12.386  -0.524  1.00  0.00     0.030 A 
HETATM   24  O   UNL     1      38.245 -13.902   1.810  1.00  0.00    -0.267 OA
ENDBRANCH   9  13
BRANCH   4  25
HETATM   25  C   UNL     1      43.563 -18.785   3.657  1.00  0.00     0.060 A 
HETATM   26  C   UNL     1      44.159 -19.403   4.767  1.00  0.00     0.031 A 
HETATM   27  C   UNL     1      44.697 -20.687   4.654  1.00  0.00     0.002 A 
HETATM   28  C   UNL     1      44.660 -21.354   3.433  1.00  0.00     0.000 A 
HETATM   29  C   UNL     1      44.090 -20.738   2.319  1.00  0.00     0.002 A 
HETATM   30  C   UNL     1      43.545 -19.456   2.427  1.00  0.00     0.031 A 
ENDBRANCH   4  25
TORSDOF 2
ENDMDL
MODEL 4
REMARK VINA RESULT:      -8.9      2.389      8.065
REMARK  2 active torsions:
REMARK  status: ('A' for Active; 'I' for Inactive)
REMARK    1  A    between atoms: N_4  and  C_5 
REMARK    2  A    between atoms: C_15  and  C_16 
REMARK       I    between atoms: C_16  and  N_17 
ROOT
HETATM    1  C   UNL     1      42.477 -11.505  -0.084  1.00  0.00     0.073 C 
HETATM    2  C   UNL     1      41.760 -12.764  -0.406  1.00  0.00     0.069 C 
HETATM    3  N   UNL     1      41.038 -12.866  -1.532  1.00  0.00    -0.170 NA
HETATM    4  N   UNL     1      40.470 -14.110  -1.481  1.00  0.00    -0.216 N 
HETATM    5  C   UNL     1      41.032 -14.842  -0.450  1.00  0.00     0.145 C 
HETATM    6  C   UNL     1      41.776 -13.972   0.313  1.00  0.00     0.087 C 
HETATM    7  N   UNL     1      40.953 -16.166  -0.177  1.00  0.00    -0.349 N 
HETATM    8  C   UNL     1      41.682 -16.648   0.896  1.00  0.00     0.111 C 
HETATM    9  C   UNL     1      42.413 -15.882   1.739  1.00  0.00     0.099 C 
HETATM   10  C   UNL     1      42.421 -14.398   1.542  1.00  0.00     0.205 C 
HETATM   11  O   UNL     1      42.914 -13.606   2.336  1.00  0.00    -0.286 OA
HETATM   12  H   UNL     1      40.576 -16.857  -0.825  1.00  0.00     0.167 HD
ENDROOT
BRANCH   9  13
HETATM   13  C   UNL     1      43.074 -16.606   2.855  1.00  0.00     0.264 C 
HETATM   14  N   UNL     1      42.478 -16.617   4.105  1.00  0.00    -0.309 N 
HETATM   15  C   UNL     1      41.154 -16.072   4.528  1.00  0.00     0.093 C 
HETATM   16  C   UNL     1      43.109 -17.119   5.274  1.00  0.00     0.044 A 
HETATM   17  C   UNL     1      40.861 -16.672   5.921  1.00  0.00     0.066 C 
HETATM   18  C   UNL     1      41.158 -14.543   4.584  1.00  0.00     0.033 C 
HETATM   19  C   UNL     1      42.220 -17.115   6.351  1.00  0.00    -0.029 A 
HETATM   20  C   UNL     1      42.600 -17.548   7.613  1.00  0.00     0.009 A 
HETATM   21  C   UNL     1      43.916 -17.972   7.799  1.00  0.00     0.001 A 
HETATM   22  C   UNL     1      44.817 -17.972   6.726  1.00  0.00     0.002 A 
HETATM   23  C   UNL     1      44.415 -17.550   5.455  1.00  0.00     0.030 A 
HETATM   24  O   UNL     1      44.180 -17.098   2.613  1.00  0.00    -0.267 OA
ENDBRANCH   9  13
BRANCH   4  25
HETATM   25  C   UNL     1      39.430 -14.461  -2.387  1.00  0.00     0.060 A 
HETATM   26  C   UNL     1      39.663 -15.461  -3.344  1.00  0.00     0.031 A 
HETATM   27  C   UNL     1      38.668 -15.803  -4.263  1.00  0.00     0.002 A 
HETATM   28  C   UNL     1      37.444 -15.140  -4.246  1.00  0.00     0.000 A 
HETATM   29  C   UNL     1      37.213 -14.130  -3.313  1.00  0.00     0.002 A 
HETATM   30  C   UNL     1      38.202 -13.787  -2.387  1.00  0.00     0.031 A 
ENDBRANCH   4  25
TORSDOF 2
ENDMDL
MODEL 5
REMARK VINA RESULT:      -8.9      2.206      8.659
REMARK  2 active torsions:
REMARK  status: ('A' for Active; 'I' for Inactive)
REMARK    1  A    between atoms: N_4  and  C_5 
REMARK    2  A    between atoms: C_15  and  C_16 
REMARK       I    between atoms: C_16  and  N_17 
ROOT
HETATM    1  C   UNL     1      42.209 -10.773   0.182  1.00  0.00     0.073 C 
HETATM    2  C   UNL     1      40.972 -11.347   0.765  1.00  0.00     0.069 C 
HETATM    3  N   UNL     1      39.767 -10.885   0.394  1.00  0.00    -0.170 NA
HETATM    4  N   UNL     1      38.868 -11.576   1.160  1.00  0.00    -0.216 N 
HETATM    5  C   UNL     1      39.507 -12.612   1.818  1.00  0.00     0.145 C 
HETATM    6  C   UNL     1      40.861 -12.420   1.667  1.00  0.00     0.087 C 
HETATM    7  N   UNL     1      38.991 -13.672   2.483  1.00  0.00    -0.349 N 
HETATM    8  C   UNL     1      39.877 -14.606   2.994  1.00  0.00     0.111 C 
HETATM    9  C   UNL     1      41.225 -14.501   2.942  1.00  0.00     0.099 C 
HETATM   10  C   UNL     1      41.830 -13.278   2.325  1.00  0.00     0.205 C 
HETATM   11  O   UNL     1      43.024 -13.010   2.371  1.00  0.00    -0.286 OA
HETATM   12  H   UNL     1      38.009 -13.942   2.444  1.00  0.00     0.167 HD
ENDROOT
BRANCH   9  13
HETATM   13  C   UNL     1      41.980 -15.597   3.601  1.00  0.00     0.264 C 
HETATM   14  N   UNL     1      42.592 -16.564   2.823  1.00  0.00    -0.309 N 
HETATM   15  C   UNL     1      42.714 -16.647   1.337  1.00  0.00     0.093 C 
HETATM   16  C   UNL     1      43.179 -17.745   3.350  1.00  0.00     0.044 A 
HETATM   17  C   UNL     1      43.783 -17.723   1.046  1.00  0.00     0.066 C 
HETATM   18  C   UNL     1      41.382 -17.011   0.676  1.00  0.00     0.033 C 
HETATM   19  C   UNL     1      43.828 -18.461   2.342  1.00  0.00    -0.029 A 
HETATM   20  C   UNL     1      44.472 -19.664   2.600  1.00  0.00     0.009 A 
HETATM   21  C   UNL     1      44.439 -20.166   3.900  1.00  0.00     0.001 A 
HETATM   22  C   UNL     1      43.783 -19.458   4.916  1.00  0.00     0.002 A 
HETATM   23  C   UNL     1      43.154 -18.238   4.645  1.00  0.00     0.030 A 
HETATM   24  O   UNL     1      41.946 -15.623   4.835  1.00  0.00    -0.267 OA
ENDBRANCH   9  13
BRANCH   4  25
HETATM   25  C   UNL     1      37.508 -11.160   1.220  1.00  0.00     0.060 A 
HETATM   26  C   UNL     1      36.554 -11.820   0.429  1.00  0.00     0.031 A 
HETATM   27  C   UNL     1      35.219 -11.411   0.448  1.00  0.00     0.002 A 
HETATM   28  C   UNL     1      34.829 -10.333   1.239  1.00  0.00     0.000 A 
HETATM   29  C   UNL     1      35.774  -9.657   2.009  1.00  0.00     0.002 A 
HETATM   30  C   UNL     1      37.111 -10.065   2.000  1.00  0.00     0.031 A 
ENDBRANCH   4  25
TORSDOF 2
ENDMDL
MODEL 6
REMARK VINA RESULT:      -8.8      2.050      2.913
REMARK  2 active torsions:
REMARK  status: ('A' for Active; 'I' for Inactive)
REMARK    1  A    between atoms: N_4  and  C_5 
REMARK    2  A    between atoms: C_15  and  C_16 
REMARK       I    between atoms: C_16  and  N_17 
ROOT
HETATM    1  C   UNL     1      40.097 -14.506   4.534  1.00  0.00     0.073 C 
HETATM    2  C   UNL     1      40.770 -15.418   3.578  1.00  0.00     0.069 C 
HETATM    3  N   UNL     1      41.346 -16.550   4.008  1.00  0.00    -0.170 NA
HETATM    4  N   UNL     1      41.919 -17.106   2.896  1.00  0.00    -0.216 N 
HETATM    5  C   UNL     1      41.491 -16.436   1.762  1.00  0.00     0.145 C 
HETATM    6  C   UNL     1      40.847 -15.294   2.179  1.00  0.00     0.087 C 
HETATM    7  N   UNL     1      41.607 -16.773   0.456  1.00  0.00    -0.349 N 
HETATM    8  C   UNL     1      41.017 -15.939  -0.479  1.00  0.00     0.111 C 
HETATM    9  C   UNL     1      40.396 -14.773  -0.190  1.00  0.00     0.099 C 
HETATM   10  C   UNL     1      40.360 -14.307   1.232  1.00  0.00     0.205 C 
HETATM   11  O   UNL     1      39.969 -13.200   1.579  1.00  0.00    -0.286 OA
HETATM   12  H   UNL     1      41.901 -17.694   0.132  1.00  0.00     0.167 HD
ENDROOT
BRANCH   9  13
HETATM   13  C   UNL     1      39.881 -14.013  -1.358  1.00  0.00     0.264 C 
HETATM   14  N   UNL     1      40.730 -13.160  -2.042  1.00  0.00    -0.309 N 
HETATM   15  C   UNL     1      42.193 -12.929  -1.855  1.00  0.00     0.093 C 
HETATM   16  C   UNL     1      40.296 -12.257  -3.049  1.00  0.00     0.044 A 
HETATM   17  C   UNL     1      42.676 -12.157  -3.102  1.00  0.00     0.066 C 
HETATM   18  C   UNL     1      42.486 -12.138  -0.578  1.00  0.00     0.033 C 
HETATM   19  C   UNL     1      41.390 -11.625  -3.643  1.00  0.00    -0.029 A 
HETATM   20  C   UNL     1      41.231 -10.684  -4.651  1.00  0.00     0.009 A 
HETATM   21  C   UNL     1      39.936 -10.357  -5.051  1.00  0.00     0.001 A 
HETATM   22  C   UNL     1      38.832 -10.981  -4.456  1.00  0.00     0.002 A 
HETATM   23  C   UNL     1      39.009 -11.941  -3.453  1.00  0.00     0.030 A 
HETATM   24  O   UNL     1      38.676 -14.132  -1.604  1.00  0.00    -0.267 OA
ENDBRANCH   9  13
BRANCH   4  25
HETATM   25  C   UNL     1      42.839 -18.184   3.025  1.00  0.00     0.060 A 
HETATM   26  C   UNL     1      42.930 -19.134   1.996  1.00  0.00     0.031 A 
HETATM   27  C   UNL     1      43.804 -20.217   2.112  1.00  0.00     0.002 A 
HETATM   28  C   UNL     1      44.577 -20.371   3.260  1.00  0.00     0.000 A 
HETATM   29  C   UNL     1      44.476 -19.444   4.297  1.00  0.00     0.002 A 
HETATM   30  C   UNL     1      43.608 -18.355   4.185  1.00  0.00     0.031 A 
ENDBRANCH   4  25
TORSDOF 2
ENDMDL
MODEL 7
REMARK VINA RESULT:      -8.8      1.907      8.663
REMARK  2 active torsions:
REMARK  status: ('A' for Active; 'I' for Inactive)
REMARK    1  A    between atoms: N_4  and  C_5 
REMARK    2  A    between atoms: C_15  and  C_16 
REMARK       I    between atoms: C_16  and  N_17 
ROOT
HETATM    1  C   UNL     1      40.582 -12.882  -2.510  1.00  0.00     0.073 C 
HETATM    2  C   UNL     1      39.762 -12.951  -1.276  1.00  0.00     0.069 C 
HETATM    3  N   UNL     1      38.697 -12.151  -1.121  1.00  0.00    -0.170 NA
HETATM    4  N   UNL     1      38.222 -12.426   0.133  1.00  0.00    -0.216 N 
HETATM    5  C   UNL     1      38.852 -13.550   0.639  1.00  0.00     0.145 C 
HETATM    6  C   UNL     1      39.909 -13.837  -0.193  1.00  0.00     0.087 C 
HETATM    7  N   UNL     1      38.545 -14.310   1.717  1.00  0.00    -0.349 N 
HETATM    8  C   UNL     1      39.318 -15.434   1.954  1.00  0.00     0.111 C 
HETATM    9  C   UNL     1      40.404 -15.791   1.230  1.00  0.00     0.099 C 
HETATM   10  C   UNL     1      40.846 -14.903   0.108  1.00  0.00     0.205 C 
HETATM   11  O   UNL     1      41.899 -15.047  -0.502  1.00  0.00    -0.286 OA
HETATM   12  H   UNL     1      37.667 -14.238   2.229  1.00  0.00     0.167 HD
ENDROOT
BRANCH   9  13
HETATM   13  C   UNL     1      41.114 -17.009   1.696  1.00  0.00     0.264 C 
HETATM   14  N   UNL     1      41.991 -16.918   2.763  1.00  0.00    -0.309 N 
HETATM   15  C   UNL     1      42.294 -15.751   3.644  1.00  0.00     0.093 C 
HETATM   16  C   UNL     1      42.852 -17.973   3.168  1.00  0.00     0.044 A 
HETATM   17  C   UNL     1      43.062 -16.311   4.861  1.00  0.00     0.066 C 
HETATM   18  C   UNL     1      43.124 -14.690   2.918  1.00  0.00     0.033 C 
HETATM   19  C   UNL     1      43.522 -17.634   4.345  1.00  0.00    -0.029 A 
HETATM   20  C   UNL     1      44.433 -18.495   4.941  1.00  0.00     0.009 A 
HETATM   21  C   UNL     1      44.691 -19.716   4.320  1.00  0.00     0.001 A 
HETATM   22  C   UNL     1      44.029 -20.062   3.135  1.00  0.00     0.002 A 
HETATM   23  C   UNL     1      43.100 -19.192   2.556  1.00  0.00     0.030 A 
HETATM   24  O   UNL     1      40.934 -18.037   1.035  1.00  0.00    -0.267 OA
ENDBRANCH   9  13
BRANCH   4  25
HETATM   25  C   UNL     1      37.252 -11.576   0.736  1.00  0.00     0.060 A 
HETATM   26  C   UNL     1      35.926 -11.615   0.277  1.00  0.00     0.031 A 
HETATM   27  C   UNL     1      34.963 -10.770   0.832  1.00  0.00     0.002 A 
HETATM   28  C   UNL     1      35.318  -9.869   1.832  1.00  0.00     0.000 A 
HETATM   29  C   UNL     1      36.637  -9.807   2.278  1.00  0.00     0.002 A 
HETATM   30  C   UNL     1      37.605 -10.654   1.731  1.00  0.00     0.031 A 
ENDBRANCH   4  25
TORSDOF 2
ENDMDL
MODEL 8
REMARK VINA RESULT:      -8.7      2.839      3.716
REMARK  2 active torsions:
REMARK  status: ('A' for Active; 'I' for Inactive)
REMARK    1  A    between atoms: N_4  and  C_5 
REMARK    2  A    between atoms: C_15  and  C_16 
REMARK       I    between atoms: C_16  and  N_17 
ROOT
HETATM    1  C   UNL     1      44.969 -14.103   6.916  1.00  0.00     0.073 C 
HETATM    2  C   UNL     1      44.262 -15.246   6.288  1.00  0.00     0.069 C 
HETATM    3  N   UNL     1      44.480 -16.498   6.716  1.00  0.00    -0.170 NA
HETATM    4  N   UNL     1      43.733 -17.294   5.891  1.00  0.00    -0.216 N 
HETATM    5  C   UNL     1      42.887 -16.512   5.122  1.00  0.00     0.145 C 
HETATM    6  C   UNL     1      43.282 -15.204   5.280  1.00  0.00     0.087 C 
HETATM    7  N   UNL     1      41.829 -16.867   4.356  1.00  0.00    -0.349 N 
HETATM    8  C   UNL     1      41.109 -15.856   3.743  1.00  0.00     0.111 C 
HETATM    9  C   UNL     1      41.428 -14.542   3.793  1.00  0.00     0.099 C 
HETATM   10  C   UNL     1      42.665 -14.127   4.527  1.00  0.00     0.205 C 
HETATM   11  O   UNL     1      43.128 -12.993   4.499  1.00  0.00    -0.286 OA
HETATM   12  H   UNL     1      41.400 -17.791   4.376  1.00  0.00     0.167 HD
ENDROOT
BRANCH   9  13
HETATM   13  C   UNL     1      40.543 -13.636   3.016  1.00  0.00     0.264 C 
HETATM   14  N   UNL     1      39.889 -12.604   3.666  1.00  0.00    -0.309 N 
HETATM   15  C   UNL     1      40.002 -12.155   5.086  1.00  0.00     0.093 C 
HETATM   16  C   UNL     1      38.887 -11.800   3.060  1.00  0.00     0.044 A 
HETATM   17  C   UNL     1      39.330 -10.767   5.159  1.00  0.00     0.066 C 
HETATM   18  C   UNL     1      39.331 -13.137   6.048  1.00  0.00     0.033 C 
HETATM   19  C   UNL     1      38.506 -10.765   3.915  1.00  0.00    -0.029 A 
HETATM   20  C   UNL     1      37.529  -9.845   3.558  1.00  0.00     0.009 A 
HETATM   21  C   UNL     1      36.906  -9.990   2.320  1.00  0.00     0.001 A 
HETATM   22  C   UNL     1      37.276 -11.031   1.458  1.00  0.00     0.002 A 
HETATM   23  C   UNL     1      38.275 -11.939   1.823  1.00  0.00     0.030 A 
HETATM   24  O   UNL     1      40.378 -13.917   1.825  1.00  0.00    -0.267 OA
ENDBRANCH   9  13
BRANCH   4  25
HETATM   25  C   UNL     1      43.924 -18.705   5.887  1.00  0.00     0.060 A 
HETATM   26  C   UNL     1      43.543 -19.451   7.013  1.00  0.00     0.031 A 
HETATM   27  C   UNL     1      43.747 -20.832   7.045  1.00  0.00     0.002 A 
HETATM   28  C   UNL     1      44.349 -21.474   5.966  1.00  0.00     0.000 A 
HETATM   29  C   UNL     1      44.752 -20.737   4.853  1.00  0.00     0.002 A 
HETATM   30  C   UNL     1      44.544 -19.356   4.812  1.00  0.00     0.031 A 
ENDBRANCH   4  25
TORSDOF 2
ENDMDL
MODEL 9
REMARK VINA RESULT:      -8.7      2.017      2.469
REMARK  2 active torsions:
REMARK  status: ('A' for Active; 'I' for Inactive)
REMARK    1  A    between atoms: N_4  and  C_5 
REMARK    2  A    between atoms: C_15  and  C_16 
REMARK       I    between atoms: C_16  and  N_17 
ROOT
HETATM    1  C   UNL     1      40.648 -16.336   6.259  1.00  0.00     0.073 C 
HETATM    2  C   UNL     1      41.386 -16.732   5.035  1.00  0.00     0.069 C 
HETATM    3  N   UNL     1      41.765 -18.006   4.852  1.00  0.00    -0.170 NA
HETATM    4  N   UNL     1      42.467 -18.005   3.677  1.00  0.00    -0.216 N 
HETATM    5  C   UNL     1      42.312 -16.788   3.037  1.00  0.00     0.145 C 
HETATM    6  C   UNL     1      41.718 -15.927   3.931  1.00  0.00     0.087 C 
HETATM    7  N   UNL     1      42.621 -16.424   1.770  1.00  0.00    -0.349 N 
HETATM    8  C   UNL     1      42.288 -15.141   1.368  1.00  0.00     0.111 C 
HETATM    9  C   UNL     1      41.742 -14.198   2.171  1.00  0.00     0.099 C 
HETATM   10  C   UNL     1      41.504 -14.527   3.612  1.00  0.00     0.205 C 
HETATM   11  O   UNL     1      41.167 -13.704   4.453  1.00  0.00    -0.286 OA
HETATM   12  H   UNL     1      42.876 -17.085   1.037  1.00  0.00     0.167 HD
ENDROOT
BRANCH   9  13
HETATM   13  C   UNL     1      41.516 -12.872   1.541  1.00  0.00     0.264 C 
HETATM   14  N   UNL     1      40.221 -12.420   1.356  1.00  0.00    -0.309 N 
HETATM   15  C   UNL     1      38.932 -13.032   1.796  1.00  0.00     0.093 C 
HETATM   16  C   UNL     1      39.891 -11.260   0.605  1.00  0.00     0.044 A 
HETATM   17  C   UNL     1      37.853 -11.938   1.635  1.00  0.00     0.066 C 
HETATM   18  C   UNL     1      38.578 -14.271   0.970  1.00  0.00     0.033 C 
HETATM   19  C   UNL     1      38.526 -10.986   0.703  1.00  0.00    -0.029 A 
HETATM   20  C   UNL     1      37.948  -9.907   0.048  1.00  0.00     0.009 A 
HETATM   21  C   UNL     1      38.765  -9.102  -0.745  1.00  0.00     0.001 A 
HETATM   22  C   UNL     1      40.135  -9.374  -0.855  1.00  0.00     0.002 A 
HETATM   23  C   UNL     1      40.706 -10.454  -0.174  1.00  0.00     0.030 A 
HETATM   24  O   UNL     1      42.520 -12.276   1.138  1.00  0.00    -0.267 OA
ENDBRANCH   9  13
BRANCH   4  25
HETATM   25  C   UNL     1      43.240 -19.140   3.302  1.00  0.00     0.060 A 
HETATM   26  C   UNL     1      42.942 -19.808   2.105  1.00  0.00     0.031 A 
HETATM   27  C   UNL     1      43.667 -20.941   1.730  1.00  0.00     0.002 A 
HETATM   28  C   UNL     1      44.680 -21.425   2.553  1.00  0.00     0.000 A 
HETATM   29  C   UNL     1      44.968 -20.781   3.756  1.00  0.00     0.002 A 
HETATM   30  C   UNL     1      44.250 -19.643   4.134  1.00  0.00     0.031 A 
ENDBRANCH   4  25
TORSDOF 2
ENDMDL
MODEL 10
REMARK VINA RESULT:      -8.6      1.926      2.533
REMARK  2 active torsions:
REMARK  status: ('A' for Active; 'I' for Inactive)
REMARK    1  A    between atoms: N_4  and  C_5 
REMARK    2  A    between atoms: C_15  and  C_16 
REMARK       I    between atoms: C_16  and  N_17 
ROOT
HETATM    1  C   UNL     1      40.919 -16.028   6.268  1.00  0.00     0.073 C 
HETATM    2  C   UNL     1      41.316 -16.671   4.992  1.00  0.00     0.069 C 
HETATM    3  N   UNL     1      41.979 -17.838   4.996  1.00  0.00    -0.170 NA
HETATM    4  N   UNL     1      42.240 -18.106   3.680  1.00  0.00    -0.216 N 
HETATM    5  C   UNL     1      41.536 -17.230   2.872  1.00  0.00     0.145 C 
HETATM    6  C   UNL     1      41.027 -16.243   3.684  1.00  0.00     0.087 C 
HETATM    7  N   UNL     1      41.306 -17.267   1.538  1.00  0.00    -0.349 N 
HETATM    8  C   UNL     1      40.497 -16.283   0.996  1.00  0.00     0.111 C 
HETATM    9  C   UNL     1      39.978 -15.243   1.687  1.00  0.00     0.099 C 
HETATM   10  C   UNL     1      40.316 -15.101   3.139  1.00  0.00     0.205 C 
HETATM   11  O   UNL     1      40.032 -14.118   3.813  1.00  0.00    -0.286 OA
HETATM   12  H   UNL     1      41.501 -18.078   0.952  1.00  0.00     0.167 HD
ENDROOT
BRANCH   9  13
HETATM   13  C   UNL     1      39.180 -14.276   0.890  1.00  0.00     0.264 C 
HETATM   14  N   UNL     1      39.831 -13.294   0.164  1.00  0.00    -0.309 N 
HETATM   15  C   UNL     1      41.295 -13.084  -0.046  1.00  0.00     0.093 C 
HETATM   16  C   UNL     1      39.165 -12.217  -0.480  1.00  0.00     0.044 A 
HETATM   17  C   UNL     1      41.428 -12.075  -1.208  1.00  0.00     0.066 C 
HETATM   18  C   UNL     1      41.981 -12.555   1.215  1.00  0.00     0.033 C 
HETATM   19  C   UNL     1      40.066 -11.465  -1.236  1.00  0.00    -0.029 A 
HETATM   20  C   UNL     1      39.663 -10.348  -1.953  1.00  0.00     0.009 A 
HETATM   21  C   UNL     1      38.324  -9.966  -1.885  1.00  0.00     0.001 A 
HETATM   22  C   UNL     1      37.414 -10.710  -1.123  1.00  0.00     0.002 A 
HETATM   23  C   UNL     1      37.831 -11.845  -0.420  1.00  0.00     0.030 A 
HETATM   24  O   UNL     1      37.952 -14.361   0.990  1.00  0.00    -0.267 OA
ENDBRANCH   9  13
BRANCH   4  25
HETATM   25  C   UNL     1      43.157 -19.135   3.325  1.00  0.00     0.060 A 
HETATM   26  C   UNL     1      42.985 -19.818   2.112  1.00  0.00     0.031 A 
HETATM   27  C   UNL     1      43.855 -20.852   1.755  1.00  0.00     0.002 A 
HETATM   28  C   UNL     1      44.887 -21.223   2.612  1.00  0.00     0.000 A 
HETATM   29  C   UNL     1      45.051 -20.565   3.830  1.00  0.00     0.002 A 
HETATM   30  C   UNL     1      44.189 -19.525   4.190  1.00  0.00     0.031 A 
ENDBRANCH   4  25
TORSDOF 2
ENDMDL
