MODEL 1
REMARK VINA RESULT:     -10.4      0.000      0.000
REMARK  8 active torsions:
REMARK  status: ('A' for Active; 'I' for Inactive)
REMARK    1  A    between atoms: C_2  and  N_3 
REMARK    2  A    between atoms: N_7  and  C_8 
REMARK    3  A    between atoms: C_8  and  C_9 
REMARK    4  A    between atoms: C_10  and  C_11 
REMARK    5  A    between atoms: C_16  and  C_17 
REMARK       I    between atoms: C_17  and  N_18 
REMARK    6  A    between atoms: N_18  and  C_19 
REMARK    7  A    between atoms: C_21  and  O_22 
REMARK    8  A    between atoms: O_22  and  C_23 
ROOT
HETATM    1  C   UNL     1      41.799 -11.690   6.476  1.00  0.00     0.256 C 
HETATM    2  N   UNL     1      41.925 -13.065   6.377  1.00  0.00    -0.323 N 
HETATM    3  O   UNL     1      41.434 -10.939   5.579  1.00  0.00    -0.267 OA
HETATM    4  H   UNL     1      42.233 -13.580   7.184  1.00  0.00     0.169 HD
ENDROOT
BRANCH   1   5
HETATM    5  C   UNL     1      42.134 -11.071   7.807  1.00  0.00     0.033 A 
HETATM    6  C   UNL     1      43.250 -11.573   8.501  1.00  0.00     0.034 A 
HETATM    7  C   UNL     1      43.648 -11.063   9.757  1.00  0.00     0.056 A 
HETATM    8  C   UNL     1      42.888 -10.023  10.336  1.00  0.00    -0.015 A 
HETATM    9  C   UNL     1      41.779  -9.516   9.634  1.00  0.00     0.011 A 
HETATM   10  C   UNL     1      41.402 -10.036   8.392  1.00  0.00     0.017 A 
BRANCH   7  11
HETATM   11  C   UNL     1      44.843 -11.701  10.443  1.00  0.00     0.418 C 
HETATM   12  F   UNL     1      45.572 -12.521   9.634  1.00  0.00    -0.166 F 
HETATM   13  F   UNL     1      45.714 -10.777  10.932  1.00  0.00    -0.166 F 
HETATM   14  F   UNL     1      44.488 -12.478  11.504  1.00  0.00    -0.166 F 
ENDBRANCH   7  11
BRANCH   8  15
HETATM   15  C   UNL     1      43.197  -9.448  11.704  1.00  0.00     0.312 C 
BRANCH  15  16
HETATM   16  N   UNL     1      42.669 -10.273  12.802  1.00  0.00     0.096 N 
HETATM   17  C   UNL     1      41.222 -10.545  12.710  1.00  0.00     0.300 C 
HETATM   18  C   UNL     1      40.317  -9.327  12.982  1.00  0.00     0.265 C 
HETATM   19  N   UNL     1      40.651  -8.698  14.330  1.00  0.00    -0.068 N 
HETATM   20  H   UNL     1      40.416  -9.396  15.048  1.00  0.00     0.280 HD
HETATM   21  C   UNL     1      42.150  -8.429  14.474  1.00  0.00     0.265 C 
HETATM   22  C   UNL     1      42.977  -9.682  14.120  1.00  0.00     0.300 C 
BRANCH  19  23
HETATM   23  C   UNL     1      39.858  -7.443  14.622  1.00  0.00     0.230 C 
HETATM   24  C   UNL     1      38.483  -7.494  13.985  1.00  0.00     0.034 C 
ENDBRANCH  19  23
ENDBRANCH  15  16
ENDBRANCH   8  15
ENDBRANCH   1   5
BRANCH   2  25
HETATM   25  C   UNL     1      41.606 -13.881   5.268  1.00  0.00     0.037 A 
HETATM   26  C   UNL     1      42.539 -14.616   4.537  1.00  0.00     0.067 A 
HETATM   27  C   UNL     1      42.137 -15.328   3.396  1.00  0.00     0.084 A 
HETATM   28  C   UNL     1      40.789 -15.374   3.012  1.00  0.00    -0.028 A 
HETATM   29  C   UNL     1      40.343 -16.188   1.832  1.00  0.00     0.051 C 
HETATM   30  C   UNL     1      39.852 -14.670   3.774  1.00  0.00     0.012 A 
HETATM   31  C   UNL     1      40.260 -13.922   4.881  1.00  0.00     0.030 A 
BRANCH  27  32
HETATM   32  O   UNL     1      43.034 -16.067   2.654  1.00  0.00    -0.310 OA
BRANCH  32  33
HETATM   33  C   UNL     1      43.451 -17.290   3.137  1.00  0.00     0.076 A 
HETATM   34  C   UNL     1      43.443 -18.338   2.208  1.00  0.00     0.047 A 
HETATM   35  C   UNL     1      43.866 -19.584   2.631  1.00  0.00    -0.020 A 
HETATM   36  C   UNL     1      44.292 -19.784   3.941  1.00  0.00     0.041 A 
HETATM   37  C   UNL     1      43.960 -20.875   1.874  1.00  0.00     0.144 A 
HETATM   38  N   UNL     1      44.647 -21.111   4.119  1.00  0.00    -0.326 N 
HETATM   39  C   UNL     1      44.334 -18.768   4.871  1.00  0.00     0.033 A 
HETATM   40  C   UNL     1      44.479 -21.838   2.947  1.00  0.00     0.226 A 
HETATM   41  H   UNL     1      44.984 -21.525   4.975  1.00  0.00     0.169 HD
HETATM   42  O   UNL     1      44.706 -23.029   2.809  1.00  0.00    -0.273 OA
HETATM   43  C   UNL     1      43.922 -17.499   4.452  1.00  0.00     0.039 A 
ENDBRANCH  32  33
ENDBRANCH  27  32
ENDBRANCH   2  25
TORSDOF 8
ENDMDL
MODEL 2
REMARK VINA RESULT:     -10.2      2.197      4.458
REMARK  8 active torsions:
REMARK  status: ('A' for Active; 'I' for Inactive)
REMARK    1  A    between atoms: C_2  and  N_3 
REMARK    2  A    between atoms: N_7  and  C_8 
REMARK    3  A    between atoms: C_8  and  C_9 
REMARK    4  A    between atoms: C_10  and  C_11 
REMARK    5  A    between atoms: C_16  and  C_17 
REMARK       I    between atoms: C_17  and  N_18 
REMARK    6  A    between atoms: N_18  and  C_19 
REMARK    7  A    between atoms: C_21  and  O_22 
REMARK    8  A    between atoms: O_22  and  C_23 
ROOT
HETATM    1  C   UNL     1      44.018 -13.981   6.481  1.00  0.00     0.256 C 
HETATM    2  N   UNL     1      43.601 -15.253   6.833  1.00  0.00    -0.323 N 
HETATM    3  O   UNL     1      44.691 -13.696   5.497  1.00  0.00    -0.267 OA
HETATM    4  H   UNL     1      43.049 -15.365   7.666  1.00  0.00     0.169 HD
ENDROOT
BRANCH   1   5
HETATM    5  C   UNL     1      43.600 -12.853   7.386  1.00  0.00     0.033 A 
HETATM    6  C   UNL     1      44.295 -12.692   8.598  1.00  0.00     0.034 A 
HETATM    7  C   UNL     1      43.979 -11.668   9.517  1.00  0.00     0.056 A 
HETATM    8  C   UNL     1      42.920 -10.786   9.210  1.00  0.00    -0.015 A 
HETATM    9  C   UNL     1      42.233 -10.943   7.992  1.00  0.00     0.011 A 
HETATM   10  C   UNL     1      42.562 -11.965   7.096  1.00  0.00     0.017 A 
BRANCH   7  11
HETATM   11  C   UNL     1      44.763 -11.605  10.817  1.00  0.00     0.418 C 
HETATM   12  F   UNL     1      45.413 -10.422  11.012  1.00  0.00    -0.166 F 
HETATM   13  F   UNL     1      43.973 -11.789  11.909  1.00  0.00    -0.166 F 
HETATM   14  F   UNL     1      45.734 -12.557  10.893  1.00  0.00    -0.166 F 
ENDBRANCH   7  11
BRANCH   8  15
HETATM   15  C   UNL     1      42.465  -9.692  10.156  1.00  0.00     0.312 C 
BRANCH  15  16
HETATM   16  N   UNL     1      41.025  -9.759  10.456  1.00  0.00     0.096 N 
HETATM   17  C   UNL     1      40.450  -8.488  10.935  1.00  0.00     0.300 C 
HETATM   18  C   UNL     1      40.886  -8.076  12.355  1.00  0.00     0.265 C 
HETATM   19  N   UNL     1      40.601  -9.194  13.352  1.00  0.00    -0.068 N 
HETATM   20  H   UNL     1      39.578  -9.306  13.386  1.00  0.00     0.280 HD
HETATM   21  C   UNL     1      41.158 -10.536  12.873  1.00  0.00     0.265 C 
HETATM   22  C   UNL     1      40.724 -10.833  11.423  1.00  0.00     0.300 C 
BRANCH  19  23
HETATM   23  C   UNL     1      41.084  -8.891  14.753  1.00  0.00     0.230 C 
HETATM   24  C   UNL     1      42.175  -9.853  15.184  1.00  0.00     0.034 C 
ENDBRANCH  19  23
ENDBRANCH  15  16
ENDBRANCH   8  15
ENDBRANCH   1   5
BRANCH   2  25
HETATM   25  C   UNL     1      43.803 -16.454   6.117  1.00  0.00     0.037 A 
HETATM   26  C   UNL     1      43.007 -16.882   5.054  1.00  0.00     0.067 A 
HETATM   27  C   UNL     1      43.235 -18.134   4.463  1.00  0.00     0.084 A 
HETATM   28  C   UNL     1      44.303 -18.944   4.876  1.00  0.00    -0.028 A 
HETATM   29  C   UNL     1      44.592 -20.255   4.203  1.00  0.00     0.051 C 
HETATM   30  C   UNL     1      45.123 -18.490   5.913  1.00  0.00     0.012 A 
HETATM   31  C   UNL     1      44.866 -17.266   6.534  1.00  0.00     0.030 A 
BRANCH  27  32
HETATM   32  O   UNL     1      42.468 -18.583   3.408  1.00  0.00    -0.310 OA
BRANCH  32  33
HETATM   33  C   UNL     1      42.019 -17.673   2.475  1.00  0.00     0.076 A 
HETATM   34  C   UNL     1      40.819 -17.025   2.795  1.00  0.00     0.047 A 
HETATM   35  C   UNL     1      40.328 -16.090   1.904  1.00  0.00    -0.020 A 
HETATM   36  C   UNL     1      41.013 -15.800   0.727  1.00  0.00     0.041 A 
HETATM   37  C   UNL     1      39.085 -15.255   1.975  1.00  0.00     0.144 A 
HETATM   38  N   UNL     1      40.314 -14.848   0.003  1.00  0.00    -0.326 N 
HETATM   39  C   UNL     1      42.208 -16.402   0.397  1.00  0.00     0.033 A 
HETATM   40  C   UNL     1      39.152 -14.468   0.662  1.00  0.00     0.226 A 
HETATM   41  H   UNL     1      40.586 -14.465  -0.890  1.00  0.00     0.169 HD
HETATM   42  O   UNL     1      38.339 -13.652   0.258  1.00  0.00    -0.273 OA
HETATM   43  C   UNL     1      42.723 -17.340   1.296  1.00  0.00     0.039 A 
ENDBRANCH  32  33
ENDBRANCH  27  32
ENDBRANCH   2  25
TORSDOF 8
ENDMDL
MODEL 3
REMARK VINA RESULT:     -10.1      2.645      4.477
REMARK  8 active torsions:
REMARK  status: ('A' for Active; 'I' for Inactive)
REMARK    1  A    between atoms: C_2  and  N_3 
REMARK    2  A    between atoms: N_7  and  C_8 
REMARK    3  A    between atoms: C_8  and  C_9 
REMARK    4  A    between atoms: C_10  and  C_11 
REMARK    5  A    between atoms: C_16  and  C_17 
REMARK       I    between atoms: C_17  and  N_18 
REMARK    6  A    between atoms: N_18  and  C_19 
REMARK    7  A    between atoms: C_21  and  O_22 
REMARK    8  A    between atoms: O_22  and  C_23 
ROOT
HETATM    1  C   UNL     1      44.719 -13.957   7.493  1.00  0.00     0.256 C 
HETATM    2  N   UNL     1      43.983 -15.121   7.631  1.00  0.00    -0.323 N 
HETATM    3  O   UNL     1      45.553 -13.738   6.621  1.00  0.00    -0.267 OA
HETATM    4  H   UNL     1      43.323 -15.187   8.387  1.00  0.00     0.169 HD
ENDROOT
BRANCH   1   5
HETATM    5  C   UNL     1      44.462 -12.867   8.498  1.00  0.00     0.033 A 
HETATM    6  C   UNL     1      43.357 -12.024   8.283  1.00  0.00     0.034 A 
HETATM    7  C   UNL     1      43.031 -10.970   9.165  1.00  0.00     0.056 A 
HETATM    8  C   UNL     1      43.853 -10.752  10.292  1.00  0.00    -0.015 A 
HETATM    9  C   UNL     1      44.952 -11.603  10.510  1.00  0.00     0.011 A 
HETATM   10  C   UNL     1      45.257 -12.641   9.624  1.00  0.00     0.017 A 
BRANCH   7  11
HETATM   11  C   UNL     1      41.840 -10.091   8.823  1.00  0.00     0.418 C 
HETATM   12  F   UNL     1      41.771  -8.944   9.557  1.00  0.00    -0.166 F 
HETATM   13  F   UNL     1      41.837  -9.707   7.517  1.00  0.00    -0.166 F 
HETATM   14  F   UNL     1      40.648 -10.715   9.032  1.00  0.00    -0.166 F 
ENDBRANCH   7  11
BRANCH   8  15
HETATM   15  C   UNL     1      43.623  -9.613  11.266  1.00  0.00     0.312 C 
BRANCH  15  16
HETATM   16  N   UNL     1      43.300 -10.079  12.624  1.00  0.00     0.096 N 
HETATM   17  C   UNL     1      42.156 -11.008  12.687  1.00  0.00     0.300 C 
HETATM   18  C   UNL     1      40.783 -10.361  12.414  1.00  0.00     0.265 C 
HETATM   19  N   UNL     1      40.552  -9.175  13.344  1.00  0.00    -0.068 N 
HETATM   20  H   UNL     1      40.507  -9.553  14.300  1.00  0.00     0.280 HD
HETATM   21  C   UNL     1      41.734  -8.204  13.328  1.00  0.00     0.265 C 
HETATM   22  C   UNL     1      43.068  -8.947  13.544  1.00  0.00     0.300 C 
BRANCH  19  23
HETATM   23  C   UNL     1      39.259  -8.439  13.071  1.00  0.00     0.230 C 
HETATM   24  C   UNL     1      38.378  -9.204  12.102  1.00  0.00     0.034 C 
ENDBRANCH  19  23
ENDBRANCH  15  16
ENDBRANCH   8  15
ENDBRANCH   1   5
BRANCH   2  25
HETATM   25  C   UNL     1      43.991 -16.251   6.783  1.00  0.00     0.037 A 
HETATM   26  C   UNL     1      42.977 -16.564   5.877  1.00  0.00     0.067 A 
HETATM   27  C   UNL     1      43.034 -17.757   5.140  1.00  0.00     0.084 A 
HETATM   28  C   UNL     1      44.137 -18.617   5.243  1.00  0.00    -0.028 A 
HETATM   29  C   UNL     1      44.235 -19.861   4.408  1.00  0.00     0.051 C 
HETATM   30  C   UNL     1      45.170 -18.276   6.121  1.00  0.00     0.012 A 
HETATM   31  C   UNL     1      45.090 -17.113   6.891  1.00  0.00     0.030 A 
BRANCH  27  32
HETATM   32  O   UNL     1      42.050 -18.092   4.234  1.00  0.00    -0.310 OA
BRANCH  32  33
HETATM   33  C   UNL     1      42.050 -17.486   2.994  1.00  0.00     0.076 A 
HETATM   34  C   UNL     1      41.010 -16.575   2.771  1.00  0.00     0.047 A 
HETATM   35  C   UNL     1      40.967 -15.925   1.552  1.00  0.00    -0.020 A 
HETATM   36  C   UNL     1      41.935 -16.169   0.581  1.00  0.00     0.041 A 
HETATM   37  C   UNL     1      39.985 -14.918   1.034  1.00  0.00     0.144 A 
HETATM   38  N   UNL     1      41.665 -15.413  -0.547  1.00  0.00    -0.326 N 
HETATM   39  C   UNL     1      42.983 -17.041   0.781  1.00  0.00     0.033 A 
HETATM   40  C   UNL     1      40.523 -14.642  -0.375  1.00  0.00     0.226 A 
HETATM   41  H   UNL     1      42.205 -15.405  -1.399  1.00  0.00     0.169 HD
HETATM   42  O   UNL     1      40.043 -13.884  -1.203  1.00  0.00    -0.273 OA
HETATM   43  C   UNL     1      43.046 -17.695   2.016  1.00  0.00     0.039 A 
ENDBRANCH  32  33
ENDBRANCH  27  32
ENDBRANCH   2  25
TORSDOF 8
ENDMDL
MODEL 4
REMARK VINA RESULT:      -9.5      7.042     11.487
REMARK  8 active torsions:
REMARK  status: ('A' for Active; 'I' for Inactive)
REMARK    1  A    between atoms: C_2  and  N_3 
REMARK    2  A    between atoms: N_7  and  C_8 
REMARK    3  A    between atoms: C_8  and  C_9 
REMARK    4  A    between atoms: C_10  and  C_11 
REMARK    5  A    between atoms: C_16  and  C_17 
REMARK       I    between atoms: C_17  and  N_18 
REMARK    6  A    between atoms: N_18  and  C_19 
REMARK    7  A    between atoms: C_21  and  O_22 
REMARK    8  A    between atoms: O_22  and  C_23 
ROOT
HETATM    1  C   UNL     1      41.711 -14.267   0.083  1.00  0.00     0.256 C 
HETATM    2  N   UNL     1      41.952 -13.758   1.347  1.00  0.00    -0.323 N 
HETATM    3  O   UNL     1      41.331 -15.404  -0.170  1.00  0.00    -0.267 OA
HETATM    4  H   UNL     1      42.261 -12.805   1.433  1.00  0.00     0.169 HD
ENDROOT
BRANCH   1   5
HETATM    5  C   UNL     1      41.931 -13.334  -1.078  1.00  0.00     0.033 A 
HETATM    6  C   UNL     1      42.401 -12.038  -0.798  1.00  0.00     0.034 A 
HETATM    7  C   UNL     1      42.637 -11.087  -1.815  1.00  0.00     0.056 A 
HETATM    8  C   UNL     1      42.379 -11.451  -3.155  1.00  0.00    -0.015 A 
HETATM    9  C   UNL     1      41.919 -12.751  -3.432  1.00  0.00     0.011 A 
HETATM   10  C   UNL     1      41.691 -13.677  -2.410  1.00  0.00     0.017 A 
BRANCH   7  11
HETATM   11  C   UNL     1      43.106  -9.701  -1.406  1.00  0.00     0.418 C 
HETATM   12  F   UNL     1      42.151  -8.736  -1.530  1.00  0.00    -0.166 F 
HETATM   13  F   UNL     1      43.526  -9.657  -0.112  1.00  0.00    -0.166 F 
HETATM   14  F   UNL     1      44.154  -9.258  -2.155  1.00  0.00    -0.166 F 
ENDBRANCH   7  11
BRANCH   8  15
HETATM   15  C   UNL     1      42.544 -10.485  -4.312  1.00  0.00     0.312 C 
BRANCH  15  16
HETATM   16  N   UNL     1      41.317  -9.724  -4.600  1.00  0.00     0.096 N 
HETATM   17  C   UNL     1      40.587 -10.186  -5.795  1.00  0.00     0.300 C 
HETATM   18  C   UNL     1      41.281  -9.876  -7.137  1.00  0.00     0.265 C 
HETATM   19  N   UNL     1      41.592  -8.388  -7.251  1.00  0.00    -0.068 N 
HETATM   20  H   UNL     1      40.687  -7.898  -7.275  1.00  0.00     0.280 HD
HETATM   21  C   UNL     1      42.324  -7.865  -6.013  1.00  0.00     0.265 C 
HETATM   22  C   UNL     1      41.593  -8.278  -4.718  1.00  0.00     0.300 C 
BRANCH  19  23
HETATM   23  C   UNL     1      42.353  -8.025  -8.507  1.00  0.00     0.230 C 
HETATM   24  C   UNL     1      42.608  -9.244  -9.373  1.00  0.00     0.034 C 
ENDBRANCH  19  23
ENDBRANCH  15  16
ENDBRANCH   8  15
ENDBRANCH   1   5
BRANCH   2  25
HETATM   25  C   UNL     1      41.755 -14.405   2.588  1.00  0.00     0.037 A 
HETATM   26  C   UNL     1      42.756 -15.061   3.303  1.00  0.00     0.067 A 
HETATM   27  C   UNL     1      42.443 -15.751   4.485  1.00  0.00     0.084 A 
HETATM   28  C   UNL     1      41.140 -15.734   5.005  1.00  0.00    -0.028 A 
HETATM   29  C   UNL     1      40.813 -16.414   6.303  1.00  0.00     0.051 C 
HETATM   30  C   UNL     1      40.150 -15.040   4.306  1.00  0.00     0.012 A 
HETATM   31  C   UNL     1      40.452 -14.394   3.105  1.00  0.00     0.030 A 
BRANCH  27  32
HETATM   32  O   UNL     1      43.411 -16.405   5.216  1.00  0.00    -0.310 OA
BRANCH  32  33
HETATM   33  C   UNL     1      43.793 -17.674   4.833  1.00  0.00     0.076 A 
HETATM   34  C   UNL     1      43.314 -18.096   3.587  1.00  0.00     0.047 A 
HETATM   35  C   UNL     1      43.677 -19.353   3.143  1.00  0.00    -0.020 A 
HETATM   36  C   UNL     1      44.499 -20.170   3.915  1.00  0.00     0.041 A 
HETATM   37  C   UNL     1      43.318 -20.065   1.873  1.00  0.00     0.144 A 
HETATM   38  N   UNL     1      44.703 -21.375   3.263  1.00  0.00    -0.326 N 
HETATM   39  C   UNL     1      45.005 -19.774   5.133  1.00  0.00     0.033 A 
HETATM   40  C   UNL     1      44.036 -21.408   2.045  1.00  0.00     0.226 A 
HETATM   41  H   UNL     1      45.254 -22.148   3.605  1.00  0.00     0.169 HD
HETATM   42  O   UNL     1      44.031 -22.343   1.261  1.00  0.00    -0.273 OA
HETATM   43  C   UNL     1      44.657 -18.498   5.587  1.00  0.00     0.039 A 
ENDBRANCH  32  33
ENDBRANCH  27  32
ENDBRANCH   2  25
TORSDOF 8
ENDMDL
MODEL 5
REMARK VINA RESULT:      -9.4      1.481      2.013
REMARK  8 active torsions:
REMARK  status: ('A' for Active; 'I' for Inactive)
REMARK    1  A    between atoms: C_2  and  N_3 
REMARK    2  A    between atoms: N_7  and  C_8 
REMARK    3  A    between atoms: C_8  and  C_9 
REMARK    4  A    between atoms: C_10  and  C_11 
REMARK    5  A    between atoms: C_16  and  C_17 
REMARK       I    between atoms: C_17  and  N_18 
REMARK    6  A    between atoms: N_18  and  C_19 
REMARK    7  A    between atoms: C_21  and  O_22 
REMARK    8  A    between atoms: O_22  and  C_23 
ROOT
HETATM    1  C   UNL     1      43.024 -13.074   5.823  1.00  0.00     0.256 C 
HETATM    2  N   UNL     1      41.989 -12.959   4.912  1.00  0.00    -0.323 N 
HETATM    3  O   UNL     1      44.000 -13.807   5.708  1.00  0.00    -0.267 OA
HETATM    4  H   UNL     1      41.239 -12.321   5.113  1.00  0.00     0.169 HD
ENDROOT
BRANCH   1   5
HETATM    5  C   UNL     1      42.942 -12.215   7.057  1.00  0.00     0.033 A 
HETATM    6  C   UNL     1      43.936 -12.381   8.039  1.00  0.00     0.034 A 
HETATM    7  C   UNL     1      43.948 -11.627   9.233  1.00  0.00     0.056 A 
HETATM    8  C   UNL     1      42.918 -10.685   9.449  1.00  0.00    -0.015 A 
HETATM    9  C   UNL     1      41.932 -10.514   8.460  1.00  0.00     0.011 A 
HETATM   10  C   UNL     1      41.938 -11.272   7.285  1.00  0.00     0.017 A 
BRANCH   7  11
HETATM   11  C   UNL     1      45.041 -11.911  10.248  1.00  0.00     0.418 C 
HETATM   12  F   UNL     1      45.702 -10.796  10.674  1.00  0.00    -0.166 F 
HETATM   13  F   UNL     1      44.565 -12.521  11.367  1.00  0.00    -0.166 F 
HETATM   14  F   UNL     1      46.013 -12.731   9.760  1.00  0.00    -0.166 F 
ENDBRANCH   7  11
BRANCH   8  15
HETATM   15  C   UNL     1      42.809  -9.869  10.722  1.00  0.00     0.312 C 
BRANCH  15  16
HETATM   16  N   UNL     1      41.414  -9.640  11.135  1.00  0.00     0.096 N 
HETATM   17  C   UNL     1      41.210  -8.396  11.901  1.00  0.00     0.300 C 
HETATM   18  C   UNL     1      41.794  -8.413  13.328  1.00  0.00     0.265 C 
HETATM   19  N   UNL     1      41.267  -9.609  14.112  1.00  0.00    -0.068 N 
HETATM   20  H   UNL     1      40.253  -9.470  14.219  1.00  0.00     0.280 HD
HETATM   21  C   UNL     1      41.435 -10.916  13.335  1.00  0.00     0.265 C 
HETATM   22  C   UNL     1      40.882 -10.785  11.900  1.00  0.00     0.300 C 
BRANCH  19  23
HETATM   23  C   UNL     1      41.868  -9.736  15.495  1.00  0.00     0.230 C 
HETATM   24  C   UNL     1      41.686  -8.462  16.298  1.00  0.00     0.034 C 
ENDBRANCH  19  23
ENDBRANCH  15  16
ENDBRANCH   8  15
ENDBRANCH   1   5
BRANCH   2  25
HETATM   25  C   UNL     1      41.871 -13.599   3.657  1.00  0.00     0.037 A 
HETATM   26  C   UNL     1      41.611 -14.959   3.488  1.00  0.00     0.067 A 
HETATM   27  C   UNL     1      41.599 -15.519   2.201  1.00  0.00     0.084 A 
HETATM   28  C   UNL     1      41.776 -14.717   1.064  1.00  0.00    -0.028 A 
HETATM   29  C   UNL     1      41.699 -15.299  -0.319  1.00  0.00     0.051 C 
HETATM   30  C   UNL     1      41.994 -13.348   1.239  1.00  0.00     0.012 A 
HETATM   31  C   UNL     1      42.054 -12.799   2.522  1.00  0.00     0.030 A 
BRANCH  27  32
HETATM   32  O   UNL     1      41.341 -16.858   2.000  1.00  0.00    -0.310 OA
BRANCH  32  33
HETATM   33  C   UNL     1      42.241 -17.790   2.475  1.00  0.00     0.076 A 
HETATM   34  C   UNL     1      42.285 -18.998   1.767  1.00  0.00     0.047 A 
HETATM   35  C   UNL     1      43.180 -19.964   2.187  1.00  0.00    -0.020 A 
HETATM   36  C   UNL     1      44.014 -19.735   3.279  1.00  0.00     0.041 A 
HETATM   37  C   UNL     1      43.443 -21.334   1.638  1.00  0.00     0.144 A 
HETATM   38  N   UNL     1      44.800 -20.852   3.507  1.00  0.00    -0.326 N 
HETATM   39  C   UNL     1      44.010 -18.548   3.978  1.00  0.00     0.033 A 
HETATM   40  C   UNL     1      44.528 -21.856   2.587  1.00  0.00     0.226 A 
HETATM   41  H   UNL     1      45.486 -20.954   4.240  1.00  0.00     0.169 HD
HETATM   42  O   UNL     1      45.064 -22.952   2.549  1.00  0.00    -0.273 OA
HETATM   43  C   UNL     1      43.120 -17.557   3.555  1.00  0.00     0.039 A 
ENDBRANCH  32  33
ENDBRANCH  27  32
ENDBRANCH   2  25
TORSDOF 8
ENDMDL
MODEL 6
REMARK VINA RESULT:      -9.2      1.734      2.400
REMARK  8 active torsions:
REMARK  status: ('A' for Active; 'I' for Inactive)
REMARK    1  A    between atoms: C_2  and  N_3 
REMARK    2  A    between atoms: N_7  and  C_8 
REMARK    3  A    between atoms: C_8  and  C_9 
REMARK    4  A    between atoms: C_10  and  C_11 
REMARK    5  A    between atoms: C_16  and  C_17 
REMARK       I    between atoms: C_17  and  N_18 
REMARK    6  A    between atoms: N_18  and  C_19 
REMARK    7  A    between atoms: C_21  and  O_22 
REMARK    8  A    between atoms: O_22  and  C_23 
ROOT
HETATM    1  C   UNL     1      41.516 -12.156   5.787  1.00  0.00     0.256 C 
HETATM    2  N   UNL     1      40.210 -12.201   5.332  1.00  0.00    -0.323 N 
HETATM    3  O   UNL     1      42.495 -12.600   5.196  1.00  0.00    -0.267 OA
HETATM    4  H   UNL     1      39.486 -11.802   5.904  1.00  0.00     0.169 HD
ENDROOT
BRANCH   1   5
HETATM    5  C   UNL     1      41.749 -11.497   7.120  1.00  0.00     0.033 A 
HETATM    6  C   UNL     1      42.989 -11.711   7.749  1.00  0.00     0.034 A 
HETATM    7  C   UNL     1      43.306 -11.141   9.001  1.00  0.00     0.056 A 
HETATM    8  C   UNL     1      42.337 -10.340   9.645  1.00  0.00    -0.015 A 
HETATM    9  C   UNL     1      41.102 -10.120   9.008  1.00  0.00     0.011 A 
HETATM   10  C   UNL     1      40.808 -10.695   7.768  1.00  0.00     0.017 A 
BRANCH   7  11
HETATM   11  C   UNL     1      44.657 -11.465   9.615  1.00  0.00     0.418 C 
HETATM   12  F   UNL     1      45.448 -12.248   8.828  1.00  0.00    -0.166 F 
HETATM   13  F   UNL     1      45.383 -10.348   9.891  1.00  0.00    -0.166 F 
HETATM   14  F   UNL     1      44.551 -12.142  10.792  1.00  0.00    -0.166 F 
ENDBRANCH   7  11
BRANCH   8  15
HETATM   15  C   UNL     1      42.558  -9.731  11.016  1.00  0.00     0.312 C 
BRANCH  15  16
HETATM   16  N   UNL     1      42.117 -10.613  12.109  1.00  0.00     0.096 N 
HETATM   17  C   UNL     1      40.691 -10.473  12.459  1.00  0.00     0.300 C 
HETATM   18  C   UNL     1      40.326  -9.153  13.168  1.00  0.00     0.265 C 
HETATM   19  N   UNL     1      41.196  -8.946  14.402  1.00  0.00    -0.068 N 
HETATM   20  H   UNL     1      40.959  -9.700  15.061  1.00  0.00     0.280 HD
HETATM   21  C   UNL     1      42.683  -9.113  14.084  1.00  0.00     0.265 C 
HETATM   22  C   UNL     1      42.943 -10.428  13.319  1.00  0.00     0.300 C 
BRANCH  19  23
HETATM   23  C   UNL     1      40.951  -7.625  15.098  1.00  0.00     0.230 C 
HETATM   24  C   UNL     1      40.131  -7.807  16.361  1.00  0.00     0.034 C 
ENDBRANCH  19  23
ENDBRANCH  15  16
ENDBRANCH   8  15
ENDBRANCH   1   5
BRANCH   2  25
HETATM   25  C   UNL     1      39.746 -12.699   4.092  1.00  0.00     0.037 A 
HETATM   26  C   UNL     1      39.785 -14.041   3.718  1.00  0.00     0.067 A 
HETATM   27  C   UNL     1      39.382 -14.426   2.429  1.00  0.00     0.084 A 
HETATM   28  C   UNL     1      38.867 -13.486   1.525  1.00  0.00    -0.028 A 
HETATM   29  C   UNL     1      38.371 -13.901   0.169  1.00  0.00     0.051 C 
HETATM   30  C   UNL     1      38.790 -12.148   1.922  1.00  0.00     0.012 A 
HETATM   31  C   UNL     1      39.237 -11.759   3.186  1.00  0.00     0.030 A 
BRANCH  27  32
HETATM   32  O   UNL     1      39.405 -15.745   2.030  1.00  0.00    -0.310 OA
BRANCH  32  33
HETATM   33  C   UNL     1      40.612 -16.413   2.004  1.00  0.00     0.076 A 
HETATM   34  C   UNL     1      40.946 -17.098   3.178  1.00  0.00     0.047 A 
HETATM   35  C   UNL     1      42.137 -17.800   3.204  1.00  0.00    -0.020 A 
HETATM   36  C   UNL     1      42.972 -17.825   2.091  1.00  0.00     0.041 A 
HETATM   37  C   UNL     1      42.751 -18.610   4.306  1.00  0.00     0.144 A 
HETATM   38  N   UNL     1      44.101 -18.576   2.372  1.00  0.00    -0.326 N 
HETATM   39  C   UNL     1      42.659 -17.181   0.914  1.00  0.00     0.033 A 
HETATM   40  C   UNL     1      44.062 -19.079   3.666  1.00  0.00     0.226 A 
HETATM   41  H   UNL     1      44.870 -18.750   1.742  1.00  0.00     0.169 HD
HETATM   42  O   UNL     1      44.922 -19.769   4.188  1.00  0.00    -0.273 OA
HETATM   43  C   UNL     1      41.450 -16.479   0.869  1.00  0.00     0.039 A 
ENDBRANCH  32  33
ENDBRANCH  27  32
ENDBRANCH   2  25
TORSDOF 8
ENDMDL
MODEL 7
REMARK VINA RESULT:      -9.1      2.884      4.981
REMARK  8 active torsions:
REMARK  status: ('A' for Active; 'I' for Inactive)
REMARK    1  A    between atoms: C_2  and  N_3 
REMARK    2  A    between atoms: N_7  and  C_8 
REMARK    3  A    between atoms: C_8  and  C_9 
REMARK    4  A    between atoms: C_10  and  C_11 
REMARK    5  A    between atoms: C_16  and  C_17 
REMARK       I    between atoms: C_17  and  N_18 
REMARK    6  A    between atoms: N_18  and  C_19 
REMARK    7  A    between atoms: C_21  and  O_22 
REMARK    8  A    between atoms: O_22  and  C_23 
ROOT
HETATM    1  C   UNL     1      43.942 -13.895   6.497  1.00  0.00     0.256 C 
HETATM    2  N   UNL     1      43.431 -15.151   6.776  1.00  0.00    -0.323 N 
HETATM    3  O   UNL     1      44.781 -13.638   5.641  1.00  0.00    -0.267 OA
HETATM    4  H   UNL     1      42.743 -15.241   7.503  1.00  0.00     0.169 HD
ENDROOT
BRANCH   1   5
HETATM    5  C   UNL     1      43.413 -12.749   7.317  1.00  0.00     0.033 A 
HETATM    6  C   UNL     1      42.261 -12.088   6.853  1.00  0.00     0.034 A 
HETATM    7  C   UNL     1      41.687 -11.000   7.547  1.00  0.00     0.056 A 
HETATM    8  C   UNL     1      42.301 -10.558   8.740  1.00  0.00    -0.015 A 
HETATM    9  C   UNL     1      43.446 -11.228   9.206  1.00  0.00     0.011 A 
HETATM   10  C   UNL     1      43.999 -12.303   8.504  1.00  0.00     0.017 A 
BRANCH   7  11
HETATM   11  C   UNL     1      40.467 -10.327   6.941  1.00  0.00     0.418 C 
HETATM   12  F   UNL     1      39.308 -10.579   7.613  1.00  0.00    -0.166 F 
HETATM   13  F   UNL     1      40.592  -8.973   6.892  1.00  0.00    -0.166 F 
HETATM   14  F   UNL     1      40.226 -10.728   5.662  1.00  0.00    -0.166 F 
ENDBRANCH   7  11
BRANCH   8  15
HETATM   15  C   UNL     1      41.796  -9.363   9.526  1.00  0.00     0.312 C 
BRANCH  15  16
HETATM   16  N   UNL     1      40.517  -9.626  10.205  1.00  0.00     0.096 N 
HETATM   17  C   UNL     1      40.065  -8.530  11.083  1.00  0.00     0.300 C 
HETATM   18  C   UNL     1      40.891  -8.350  12.372  1.00  0.00     0.265 C 
HETATM   19  N   UNL     1      40.962  -9.657  13.153  1.00  0.00    -0.068 N 
HETATM   20  H   UNL     1      40.002  -9.873  13.455  1.00  0.00     0.280 HD
HETATM   21  C   UNL     1      41.400 -10.825  12.267  1.00  0.00     0.265 C 
HETATM   22  C   UNL     1      40.561 -10.887  10.973  1.00  0.00     0.300 C 
BRANCH  19  23
HETATM   23  C   UNL     1      41.832  -9.576  14.388  1.00  0.00     0.230 C 
HETATM   24  C   UNL     1      43.279  -9.292  14.029  1.00  0.00     0.034 C 
ENDBRANCH  19  23
ENDBRANCH  15  16
ENDBRANCH   8  15
ENDBRANCH   1   5
BRANCH   2  25
HETATM   25  C   UNL     1      43.713 -16.363   6.105  1.00  0.00     0.037 A 
HETATM   26  C   UNL     1      42.997 -16.842   5.009  1.00  0.00     0.067 A 
HETATM   27  C   UNL     1      43.298 -18.101   4.466  1.00  0.00     0.084 A 
HETATM   28  C   UNL     1      44.363 -18.865   4.964  1.00  0.00    -0.028 A 
HETATM   29  C   UNL     1      44.732 -20.183   4.345  1.00  0.00     0.051 C 
HETATM   30  C   UNL     1      45.104 -18.361   6.036  1.00  0.00     0.012 A 
HETATM   31  C   UNL     1      44.773 -17.130   6.607  1.00  0.00     0.030 A 
BRANCH  27  32
HETATM   32  O   UNL     1      42.611 -18.600   3.379  1.00  0.00    -0.310 OA
BRANCH  32  33
HETATM   33  C   UNL     1      42.123 -17.720   2.436  1.00  0.00     0.076 A 
HETATM   34  C   UNL     1      40.940 -17.058   2.786  1.00  0.00     0.047 A 
HETATM   35  C   UNL     1      40.413 -16.151   1.887  1.00  0.00    -0.020 A 
HETATM   36  C   UNL     1      41.047 -15.903   0.672  1.00  0.00     0.041 A 
HETATM   37  C   UNL     1      39.175 -15.310   1.984  1.00  0.00     0.144 A 
HETATM   38  N   UNL     1      40.319 -14.973  -0.052  1.00  0.00    -0.326 N 
HETATM   39  C   UNL     1      42.224 -16.520   0.310  1.00  0.00     0.033 A 
HETATM   40  C   UNL     1      39.187 -14.567   0.643  1.00  0.00     0.226 A 
HETATM   41  H   UNL     1      40.552 -14.622  -0.969  1.00  0.00     0.169 HD
HETATM   42  O   UNL     1      38.359 -13.762   0.248  1.00  0.00    -0.273 OA
HETATM   43  C   UNL     1      42.776 -17.429   1.218  1.00  0.00     0.039 A 
ENDBRANCH  32  33
ENDBRANCH  27  32
ENDBRANCH   2  25
TORSDOF 8
ENDMDL
MODEL 8
REMARK VINA RESULT:      -9.1      6.537     11.183
REMARK  8 active torsions:
REMARK  status: ('A' for Active; 'I' for Inactive)
REMARK    1  A    between atoms: C_2  and  N_3 
REMARK    2  A    between atoms: N_7  and  C_8 
REMARK    3  A    between atoms: C_8  and  C_9 
REMARK    4  A    between atoms: C_10  and  C_11 
REMARK    5  A    between atoms: C_16  and  C_17 
REMARK       I    between atoms: C_17  and  N_18 
REMARK    6  A    between atoms: N_18  and  C_19 
REMARK    7  A    between atoms: C_21  and  O_22 
REMARK    8  A    between atoms: O_22  and  C_23 
ROOT
HETATM    1  C   UNL     1      41.858 -17.030   1.751  1.00  0.00     0.256 C 
HETATM    2  N   UNL     1      42.979 -17.808   1.517  1.00  0.00    -0.323 N 
HETATM    3  O   UNL     1      41.026 -17.221   2.631  1.00  0.00    -0.267 OA
HETATM    4  H   UNL     1      43.594 -17.553   0.764  1.00  0.00     0.169 HD
ENDROOT
BRANCH   1   5
HETATM    5  C   UNL     1      41.652 -15.845   0.846  1.00  0.00     0.033 A 
HETATM    6  C   UNL     1      41.293 -16.095  -0.491  1.00  0.00     0.034 A 
HETATM    7  C   UNL     1      41.080 -15.053  -1.421  1.00  0.00     0.056 A 
HETATM    8  C   UNL     1      41.245 -13.718  -0.991  1.00  0.00    -0.015 A 
HETATM    9  C   UNL     1      41.594 -13.472   0.349  1.00  0.00     0.011 A 
HETATM   10  C   UNL     1      41.802 -14.518   1.254  1.00  0.00     0.017 A 
BRANCH   7  11
HETATM   11  C   UNL     1      40.735 -15.429  -2.852  1.00  0.00     0.418 C 
HETATM   12  F   UNL     1      41.742 -15.199  -3.741  1.00  0.00    -0.166 F 
HETATM   13  F   UNL     1      40.410 -16.744  -2.978  1.00  0.00    -0.166 F 
HETATM   14  F   UNL     1      39.671 -14.732  -3.337  1.00  0.00    -0.166 F 
ENDBRANCH   7  11
BRANCH   8  15
HETATM   15  C   UNL     1      41.097 -12.533  -1.925  1.00  0.00     0.312 C 
BRANCH  15  16
HETATM   16  N   UNL     1      41.617 -11.283  -1.347  1.00  0.00     0.096 N 
HETATM   17  C   UNL     1      40.644 -10.174  -1.337  1.00  0.00     0.300 C 
HETATM   18  C   UNL     1      40.323  -9.583  -2.725  1.00  0.00     0.265 C 
HETATM   19  N   UNL     1      41.601  -9.158  -3.438  1.00  0.00    -0.068 N 
HETATM   20  H   UNL     1      42.007  -8.390  -2.886  1.00  0.00     0.280 HD
HETATM   21  C   UNL     1      42.647 -10.274  -3.442  1.00  0.00     0.265 C 
HETATM   22  C   UNL     1      42.854 -10.848  -2.025  1.00  0.00     0.300 C 
BRANCH  19  23
HETATM   23  C   UNL     1      41.366  -8.648  -4.843  1.00  0.00     0.230 C 
HETATM   24  C   UNL     1      42.287  -9.325  -5.840  1.00  0.00     0.034 C 
ENDBRANCH  19  23
ENDBRANCH  15  16
ENDBRANCH   8  15
ENDBRANCH   1   5
BRANCH   2  25
HETATM   25  C   UNL     1      43.426 -18.921   2.264  1.00  0.00     0.037 A 
HETATM   26  C   UNL     1      43.827 -18.865   3.598  1.00  0.00     0.067 A 
HETATM   27  C   UNL     1      44.339 -20.010   4.229  1.00  0.00     0.084 A 
HETATM   28  C   UNL     1      44.389 -21.241   3.559  1.00  0.00    -0.028 A 
HETATM   29  C   UNL     1      44.873 -22.484   4.249  1.00  0.00     0.051 C 
HETATM   30  C   UNL     1      43.945 -21.300   2.235  1.00  0.00     0.012 A 
HETATM   31  C   UNL     1      43.481 -20.150   1.593  1.00  0.00     0.030 A 
BRANCH  27  32
HETATM   32  O   UNL     1      44.741 -19.988   5.548  1.00  0.00    -0.310 OA
BRANCH  32  33
HETATM   33  C   UNL     1      44.434 -18.887   6.320  1.00  0.00     0.076 A 
HETATM   34  C   UNL     1      44.899 -17.660   5.830  1.00  0.00     0.047 A 
HETATM   35  C   UNL     1      44.608 -16.519   6.554  1.00  0.00    -0.020 A 
HETATM   36  C   UNL     1      43.869 -16.593   7.732  1.00  0.00     0.041 A 
HETATM   37  C   UNL     1      44.972 -15.090   6.283  1.00  0.00     0.144 A 
HETATM   38  N   UNL     1      43.726 -15.326   8.273  1.00  0.00    -0.326 N 
HETATM   39  C   UNL     1      43.377 -17.782   8.226  1.00  0.00     0.033 A 
HETATM   40  C   UNL     1      44.353 -14.369   7.485  1.00  0.00     0.226 A 
HETATM   41  H   UNL     1      43.241 -15.097   9.127  1.00  0.00     0.169 HD
HETATM   42  O   UNL     1      44.396 -13.172   7.718  1.00  0.00    -0.273 OA
HETATM   43  C   UNL     1      43.653 -18.942   7.495  1.00  0.00     0.039 A 
ENDBRANCH  32  33
ENDBRANCH  27  32
ENDBRANCH   2  25
TORSDOF 8
ENDMDL
MODEL 9
REMARK VINA RESULT:      -9.1      7.096     11.965
REMARK  8 active torsions:
REMARK  status: ('A' for Active; 'I' for Inactive)
REMARK    1  A    between atoms: C_2  and  N_3 
REMARK    2  A    between atoms: N_7  and  C_8 
REMARK    3  A    between atoms: C_8  and  C_9 
REMARK    4  A    between atoms: C_10  and  C_11 
REMARK    5  A    between atoms: C_16  and  C_17 
REMARK       I    between atoms: C_17  and  N_18 
REMARK    6  A    between atoms: N_18  and  C_19 
REMARK    7  A    between atoms: C_21  and  O_22 
REMARK    8  A    between atoms: O_22  and  C_23 
ROOT
HETATM    1  C   UNL     1      39.866 -14.239   1.560  1.00  0.00     0.256 C 
HETATM    2  N   UNL     1      41.242 -14.352   1.652  1.00  0.00    -0.323 N 
HETATM    3  O   UNL     1      39.074 -14.358   2.489  1.00  0.00    -0.267 OA
HETATM    4  H   UNL     1      41.792 -14.233   0.819  1.00  0.00     0.169 HD
ENDROOT
BRANCH   1   5
HETATM    5  C   UNL     1      39.298 -13.938   0.198  1.00  0.00     0.033 A 
HETATM    6  C   UNL     1      39.969 -14.460  -0.922  1.00  0.00     0.034 A 
HETATM    7  C   UNL     1      39.521 -14.233  -2.242  1.00  0.00     0.056 A 
HETATM    8  C   UNL     1      38.366 -13.444  -2.438  1.00  0.00    -0.015 A 
HETATM    9  C   UNL     1      37.692 -12.931  -1.314  1.00  0.00     0.011 A 
HETATM   10  C   UNL     1      38.153 -13.167  -0.016  1.00  0.00     0.017 A 
BRANCH   7  11
HETATM   11  C   UNL     1      40.339 -14.808  -3.386  1.00  0.00     0.418 C 
HETATM   12  F   UNL     1      39.603 -15.517  -4.288  1.00  0.00    -0.166 F 
HETATM   13  F   UNL     1      40.985 -13.844  -4.096  1.00  0.00    -0.166 F 
HETATM   14  F   UNL     1      41.303 -15.671  -2.961  1.00  0.00    -0.166 F 
ENDBRANCH   7  11
BRANCH   8  15
HETATM   15  C   UNL     1      37.838 -13.094  -3.815  1.00  0.00     0.312 C 
BRANCH  15  16
HETATM   16  N   UNL     1      36.395 -12.801  -3.816  1.00  0.00     0.096 N 
HETATM   17  C   UNL     1      35.584 -13.770  -4.577  1.00  0.00     0.300 C 
HETATM   18  C   UNL     1      35.758 -13.697  -6.108  1.00  0.00     0.265 C 
HETATM   19  N   UNL     1      35.502 -12.281  -6.612  1.00  0.00    -0.068 N 
HETATM   20  H   UNL     1      34.511 -12.076  -6.426  1.00  0.00     0.280 HD
HETATM   21  C   UNL     1      36.304 -11.244  -5.824  1.00  0.00     0.265 C 
HETATM   22  C   UNL     1      36.120 -11.435  -4.304  1.00  0.00     0.300 C 
BRANCH  19  23
HETATM   23  C   UNL     1      35.741 -12.117  -8.097  1.00  0.00     0.230 C 
HETATM   24  C   UNL     1      35.803 -13.460  -8.800  1.00  0.00     0.034 C 
ENDBRANCH  19  23
ENDBRANCH  15  16
ENDBRANCH   8  15
ENDBRANCH   1   5
BRANCH   2  25
HETATM   25  C   UNL     1      42.012 -14.560   2.819  1.00  0.00     0.037 A 
HETATM   26  C   UNL     1      41.972 -15.718   3.594  1.00  0.00     0.067 A 
HETATM   27  C   UNL     1      42.710 -15.795   4.786  1.00  0.00     0.084 A 
HETATM   28  C   UNL     1      43.553 -14.746   5.181  1.00  0.00    -0.028 A 
HETATM   29  C   UNL     1      44.396 -14.849   6.419  1.00  0.00     0.051 C 
HETATM   30  C   UNL     1      43.622 -13.605   4.377  1.00  0.00     0.012 A 
HETATM   31  C   UNL     1      42.850 -13.509   3.217  1.00  0.00     0.030 A 
BRANCH  27  32
HETATM   32  O   UNL     1      42.694 -16.928   5.572  1.00  0.00    -0.310 OA
BRANCH  32  33
HETATM   33  C   UNL     1      43.295 -18.076   5.099  1.00  0.00     0.076 A 
HETATM   34  C   UNL     1      42.887 -18.488   3.825  1.00  0.00     0.047 A 
HETATM   35  C   UNL     1      43.467 -19.624   3.292  1.00  0.00    -0.020 A 
HETATM   36  C   UNL     1      44.431 -20.331   4.005  1.00  0.00     0.041 A 
HETATM   37  C   UNL     1      43.228 -20.297   1.974  1.00  0.00     0.144 A 
HETATM   38  N   UNL     1      44.843 -21.430   3.269  1.00  0.00    -0.326 N 
HETATM   39  C   UNL     1      44.871 -19.937   5.250  1.00  0.00     0.033 A 
HETATM   40  C   UNL     1      44.180 -21.496   2.051  1.00  0.00     0.226 A 
HETATM   41  H   UNL     1      45.528 -22.112   3.556  1.00  0.00     0.169 HD
HETATM   42  O   UNL     1      44.335 -22.359   1.201  1.00  0.00    -0.273 OA
HETATM   43  C   UNL     1      44.302 -18.781   5.794  1.00  0.00     0.039 A 
ENDBRANCH  32  33
ENDBRANCH  27  32
ENDBRANCH   2  25
TORSDOF 8
ENDMDL
MODEL 10
REMARK VINA RESULT:      -9.1      1.902      2.575
REMARK  8 active torsions:
REMARK  status: ('A' for Active; 'I' for Inactive)
REMARK    1  A    between atoms: C_2  and  N_3 
REMARK    2  A    between atoms: N_7  and  C_8 
REMARK    3  A    between atoms: C_8  and  C_9 
REMARK    4  A    between atoms: C_10  and  C_11 
REMARK    5  A    between atoms: C_16  and  C_17 
REMARK       I    between atoms: C_17  and  N_18 
REMARK    6  A    between atoms: N_18  and  C_19 
REMARK    7  A    between atoms: C_21  and  O_22 
REMARK    8  A    between atoms: O_22  and  C_23 
ROOT
HETATM    1  C   UNL     1      39.851 -11.282   5.605  1.00  0.00     0.256 C 
HETATM    2  N   UNL     1      40.905 -11.723   4.823  1.00  0.00    -0.323 N 
HETATM    3  O   UNL     1      38.661 -11.463   5.370  1.00  0.00    -0.267 OA
HETATM    4  H   UNL     1      41.843 -11.516   5.118  1.00  0.00     0.169 HD
ENDROOT
BRANCH   1   5
HETATM    5  C   UNL     1      40.204 -10.523   6.855  1.00  0.00     0.033 A 
HETATM    6  C   UNL     1      41.325 -10.952   7.589  1.00  0.00     0.034 A 
HETATM    7  C   UNL     1      41.739 -10.309   8.777  1.00  0.00     0.056 A 
HETATM    8  C   UNL     1      40.991  -9.207   9.245  1.00  0.00    -0.015 A 
HETATM    9  C   UNL     1      39.877  -8.774   8.504  1.00  0.00     0.011 A 
HETATM   10  C   UNL     1      39.484  -9.424   7.331  1.00  0.00     0.017 A 
BRANCH   7  11
HETATM   11  C   UNL     1      42.938 -10.875   9.517  1.00  0.00     0.418 C 
HETATM   12  F   UNL     1      42.613 -11.579  10.639  1.00  0.00    -0.166 F 
HETATM   13  F   UNL     1      43.678 -11.714   8.743  1.00  0.00    -0.166 F 
HETATM   14  F   UNL     1      43.796  -9.908   9.946  1.00  0.00    -0.166 F 
ENDBRANCH   7  11
BRANCH   8  15
HETATM   15  C   UNL     1      41.318  -8.486  10.539  1.00  0.00     0.312 C 
BRANCH  15  16
HETATM   16  N   UNL     1      40.173  -8.426  11.463  1.00  0.00     0.096 N 
HETATM   17  C   UNL     1      40.344  -7.468  12.572  1.00  0.00     0.300 C 
HETATM   18  C   UNL     1      41.380  -7.887  13.634  1.00  0.00     0.265 C 
HETATM   19  N   UNL     1      41.062  -9.274  14.179  1.00  0.00    -0.068 N 
HETATM   20  H   UNL     1      40.161  -9.200  14.671  1.00  0.00     0.280 HD
HETATM   21  C   UNL     1      40.848 -10.290  13.055  1.00  0.00     0.265 C 
HETATM   22  C   UNL     1      39.848  -9.759  12.008  1.00  0.00     0.300 C 
BRANCH  19  23
HETATM   23  C   UNL     1      42.090  -9.786  15.165  1.00  0.00     0.230 C 
HETATM   24  C   UNL     1      42.218  -8.863  16.362  1.00  0.00     0.034 C 
ENDBRANCH  19  23
ENDBRANCH  15  16
ENDBRANCH   8  15
ENDBRANCH   1   5
BRANCH   2  25
HETATM   25  C   UNL     1      40.837 -12.509   3.650  1.00  0.00     0.037 A 
HETATM   26  C   UNL     1      40.508 -13.864   3.627  1.00  0.00     0.067 A 
HETATM   27  C   UNL     1      40.553 -14.580   2.421  1.00  0.00     0.084 A 
HETATM   28  C   UNL     1      40.856 -13.938   1.212  1.00  0.00    -0.028 A 
HETATM   29  C   UNL     1      40.841 -14.684  -0.091  1.00  0.00     0.051 C 
HETATM   30  C   UNL     1      41.144 -12.570   1.235  1.00  0.00     0.012 A 
HETATM   31  C   UNL     1      41.146 -11.868   2.443  1.00  0.00     0.030 A 
BRANCH  27  32
HETATM   32  O   UNL     1      40.229 -15.919   2.365  1.00  0.00    -0.310 OA
BRANCH  32  33
HETATM   33  C   UNL     1      41.102 -16.840   2.907  1.00  0.00     0.076 A 
HETATM   34  C   UNL     1      41.827 -17.598   1.980  1.00  0.00     0.047 A 
HETATM   35  C   UNL     1      42.730 -18.526   2.464  1.00  0.00    -0.020 A 
HETATM   36  C   UNL     1      42.913 -18.693   3.834  1.00  0.00     0.041 A 
HETATM   37  C   UNL     1      43.629 -19.470   1.723  1.00  0.00     0.144 A 
HETATM   38  N   UNL     1      43.852 -19.685   4.062  1.00  0.00    -0.326 N 
HETATM   39  C   UNL     1      42.232 -17.945   4.770  1.00  0.00     0.033 A 
HETATM   40  C   UNL     1      44.330 -20.210   2.868  1.00  0.00     0.226 A 
HETATM   41  H   UNL     1      44.165 -20.009   4.965  1.00  0.00     0.169 HD
HETATM   42  O   UNL     1      45.159 -21.099   2.762  1.00  0.00    -0.273 OA
HETATM   43  C   UNL     1      41.326 -16.992   4.293  1.00  0.00     0.039 A 
ENDBRANCH  32  33
ENDBRANCH  27  32
ENDBRANCH   2  25
TORSDOF 8
ENDMDL
