MODEL 1
REMARK VINA RESULT:      -8.7      0.000      0.000
REMARK  2 active torsions:
REMARK  status: ('A' for Active; 'I' for Inactive)
REMARK    1  A    between atoms: C_4  and  C_5 
REMARK       I    between atoms: C_5  and  N_6 
REMARK    2  A    between atoms: N_6  and  C_7 
ROOT
HETATM    1  C   UNL     1      42.804 -16.048   3.401  1.00  0.00     0.277 C 
HETATM    2  N   UNL     1      41.466 -16.144   3.103  1.00  0.00    -0.321 N 
HETATM    3  O   UNL     1      43.665 -15.340   2.913  1.00  0.00    -0.266 OA
HETATM    4  H   UNL     1      41.042 -17.000   3.453  1.00  0.00     0.169 HD
ENDROOT
BRANCH   1   5
HETATM    5  C   UNL     1      43.197 -17.070   4.472  1.00  0.00     0.156 A 
HETATM    6  N   UNL     1      43.088 -16.656   5.702  1.00  0.00    -0.164 NA
HETATM    7  N   UNL     1      43.434 -17.507   6.720  1.00  0.00    -0.238 N 
HETATM    8  C   UNL     1      43.253 -17.010   8.071  1.00  0.00     0.183 C 
HETATM    9  C   UNL     1      43.871 -18.815   6.538  1.00  0.00     0.274 A 
HETATM   10  C   UNL     1      44.028 -19.265   5.142  1.00  0.00     0.046 A 
HETATM   11  O   UNL     1      44.137 -19.583   7.460  1.00  0.00    -0.266 OA
HETATM   12  C   UNL     1      43.706 -18.401   4.099  1.00  0.00     0.016 A 
HETATM   13  C   UNL     1      44.521 -20.549   4.874  1.00  0.00     0.018 A 
HETATM   14  C   UNL     1      43.898 -18.819   2.776  1.00  0.00     0.015 A 
HETATM   15  C   UNL     1      44.390 -20.100   2.508  1.00  0.00     0.001 A 
HETATM   16  C   UNL     1      44.698 -20.966   3.556  1.00  0.00     0.001 A 
ENDBRANCH   1   5
BRANCH   2  17
HETATM   17  C   UNL     1      40.676 -15.352   2.249  1.00  0.00     0.047 A 
HETATM   18  C   UNL     1      40.689 -15.355   0.829  1.00  0.00     0.019 A 
HETATM   19  C   UNL     1      39.834 -14.468   0.155  1.00  0.00     0.044 A 
HETATM   20  C   UNL     1      41.422 -16.029  -0.196  1.00  0.00     0.033 A 
HETATM   21  N   UNL     1      40.020 -14.648  -1.198  1.00  0.00    -0.365 N 
HETATM   22  C   UNL     1      38.976 -13.577   0.809  1.00  0.00     0.030 A 
HETATM   23  H   UNL     1      39.521 -14.140  -1.916  1.00  0.00     0.165 HD
HETATM   24  C   UNL     1      40.986 -15.583  -1.422  1.00  0.00     0.089 A 
HETATM   25  C   UNL     1      38.991 -13.570   2.200  1.00  0.00     0.005 A 
HETATM   26  C   UNL     1      39.827 -14.432   2.903  1.00  0.00     0.030 A 
ENDBRANCH   2  17
TORSDOF 2
ENDMDL
MODEL 2
REMARK VINA RESULT:      -8.6      1.823      2.471
REMARK  2 active torsions:
REMARK  status: ('A' for Active; 'I' for Inactive)
REMARK    1  A    between atoms: C_4  and  C_5 
REMARK       I    between atoms: C_5  and  N_6 
REMARK    2  A    between atoms: N_6  and  C_7 
ROOT
HETATM    1  C   UNL     1      41.651 -16.681   2.426  1.00  0.00     0.277 C 
HETATM    2  N   UNL     1      42.311 -15.835   1.568  1.00  0.00    -0.321 N 
HETATM    3  O   UNL     1      40.465 -16.941   2.509  1.00  0.00    -0.266 OA
HETATM    4  H   UNL     1      43.242 -15.587   1.893  1.00  0.00     0.169 HD
ENDROOT
BRANCH   1   5
HETATM    5  C   UNL     1      42.621 -17.294   3.440  1.00  0.00     0.156 A 
HETATM    6  N   UNL     1      42.878 -16.554   4.481  1.00  0.00    -0.164 NA
HETATM    7  N   UNL     1      43.748 -17.025   5.429  1.00  0.00    -0.238 N 
HETATM    8  C   UNL     1      43.964 -16.181   6.589  1.00  0.00     0.183 C 
HETATM    9  C   UNL     1      44.367 -18.270   5.380  1.00  0.00     0.274 A 
HETATM   10  C   UNL     1      44.103 -19.086   4.180  1.00  0.00     0.046 A 
HETATM   11  O   UNL     1      45.113 -18.699   6.258  1.00  0.00    -0.266 OA
HETATM   12  C   UNL     1      43.242 -18.608   3.197  1.00  0.00     0.016 A 
HETATM   13  C   UNL     1      44.737 -20.327   4.027  1.00  0.00     0.018 A 
HETATM   14  C   UNL     1      43.028 -19.368   2.041  1.00  0.00     0.015 A 
HETATM   15  C   UNL     1      43.660 -20.606   1.887  1.00  0.00     0.001 A 
HETATM   16  C   UNL     1      44.511 -21.087   2.881  1.00  0.00     0.001 A 
ENDBRANCH   1   5
BRANCH   2  17
HETATM   17  C   UNL     1      41.828 -15.135   0.446  1.00  0.00     0.047 A 
HETATM   18  C   UNL     1      41.694 -13.728   0.312  1.00  0.00     0.019 A 
HETATM   19  C   UNL     1      41.168 -13.222  -0.887  1.00  0.00     0.044 A 
HETATM   20  C   UNL     1      41.919 -12.585   1.140  1.00  0.00     0.033 A 
HETATM   21  N   UNL     1      41.133 -11.848  -0.788  1.00  0.00    -0.365 N 
HETATM   22  C   UNL     1      40.763 -14.032  -1.954  1.00  0.00     0.030 A 
HETATM   23  H   UNL     1      40.804 -11.231  -1.517  1.00  0.00     0.165 HD
HETATM   24  C   UNL     1      41.575 -11.452   0.439  1.00  0.00     0.089 A 
HETATM   25  C   UNL     1      40.878 -15.410  -1.799  1.00  0.00     0.005 A 
HETATM   26  C   UNL     1      41.392 -15.948  -0.623  1.00  0.00     0.030 A 
ENDBRANCH   2  17
TORSDOF 2
ENDMDL
MODEL 3
REMARK VINA RESULT:      -8.5      1.638      1.726
REMARK  2 active torsions:
REMARK  status: ('A' for Active; 'I' for Inactive)
REMARK    1  A    between atoms: C_4  and  C_5 
REMARK       I    between atoms: C_5  and  N_6 
REMARK    2  A    between atoms: N_6  and  C_7 
ROOT
HETATM    1  C   UNL     1      41.711 -16.260   2.769  1.00  0.00     0.277 C 
HETATM    2  N   UNL     1      42.370 -15.210   2.175  1.00  0.00    -0.321 N 
HETATM    3  O   UNL     1      40.550 -16.610   2.670  1.00  0.00    -0.266 OA
HETATM    4  H   UNL     1      43.242 -14.974   2.641  1.00  0.00     0.169 HD
ENDROOT
BRANCH   1   5
HETATM    5  C   UNL     1      42.635 -17.003   3.736  1.00  0.00     0.156 A 
HETATM    6  N   UNL     1      42.896 -16.378   4.849  1.00  0.00    -0.164 NA
HETATM    7  N   UNL     1      43.727 -16.971   5.763  1.00  0.00    -0.238 N 
HETATM    8  C   UNL     1      43.948 -16.251   7.003  1.00  0.00     0.183 C 
HETATM    9  C   UNL     1      44.301 -18.229   5.606  1.00  0.00     0.274 A 
HETATM   10  C   UNL     1      44.033 -18.915   4.328  1.00  0.00     0.046 A 
HETATM   11  O   UNL     1      45.010 -18.769   6.452  1.00  0.00    -0.266 OA
HETATM   12  C   UNL     1      43.212 -18.311   3.379  1.00  0.00     0.016 A 
HETATM   13  C   UNL     1      44.624 -20.159   4.067  1.00  0.00     0.018 A 
HETATM   14  C   UNL     1      42.997 -18.948   2.151  1.00  0.00     0.015 A 
HETATM   15  C   UNL     1      43.586 -20.190   1.890  1.00  0.00     0.001 A 
HETATM   16  C   UNL     1      44.396 -20.796   2.848  1.00  0.00     0.001 A 
ENDBRANCH   1   5
BRANCH   2  17
HETATM   17  C   UNL     1      41.931 -14.325   1.171  1.00  0.00     0.047 A 
HETATM   18  C   UNL     1      41.479 -14.669  -0.130  1.00  0.00     0.019 A 
HETATM   19  C   UNL     1      41.103 -13.632  -0.998  1.00  0.00     0.044 A 
HETATM   20  C   UNL     1      41.330 -15.871  -0.888  1.00  0.00     0.033 A 
HETATM   21  N   UNL     1      40.704 -14.200  -2.189  1.00  0.00    -0.365 N 
HETATM   22  C   UNL     1      41.156 -12.278  -0.651  1.00  0.00     0.030 A 
HETATM   23  H   UNL     1      40.375 -13.678  -2.989  1.00  0.00     0.165 HD
HETATM   24  C   UNL     1      40.848 -15.554  -2.137  1.00  0.00     0.089 A 
HETATM   25  C   UNL     1      41.623 -11.955   0.619  1.00  0.00     0.005 A 
HETATM   26  C   UNL     1      42.008 -12.955   1.507  1.00  0.00     0.030 A 
ENDBRANCH   2  17
TORSDOF 2
ENDMDL
MODEL 4
REMARK VINA RESULT:      -8.3      1.810      2.938
REMARK  2 active torsions:
REMARK  status: ('A' for Active; 'I' for Inactive)
REMARK    1  A    between atoms: C_4  and  C_5 
REMARK       I    between atoms: C_5  and  N_6 
REMARK    2  A    between atoms: N_6  and  C_7 
ROOT
HETATM    1  C   UNL     1      43.242 -17.353   2.447  1.00  0.00     0.277 C 
HETATM    2  N   UNL     1      41.878 -17.198   2.524  1.00  0.00    -0.321 N 
HETATM    3  O   UNL     1      44.072 -16.681   1.863  1.00  0.00    -0.266 OA
HETATM    4  H   UNL     1      41.400 -18.042   2.830  1.00  0.00     0.169 HD
ENDROOT
BRANCH   1   5
HETATM    5  C   UNL     1      43.687 -18.624   3.174  1.00  0.00     0.156 A 
HETATM    6  N   UNL     1      43.963 -19.638   2.404  1.00  0.00    -0.164 NA
HETATM    7  N   UNL     1      44.357 -20.818   2.979  1.00  0.00    -0.238 N 
HETATM    8  C   UNL     1      44.693 -21.901   2.074  1.00  0.00     0.183 C 
HETATM    9  C   UNL     1      44.518 -21.012   4.347  1.00  0.00     0.274 A 
HETATM   10  C   UNL     1      44.167 -19.872   5.216  1.00  0.00     0.046 A 
HETATM   11  O   UNL     1      44.913 -22.062   4.848  1.00  0.00    -0.266 OA
HETATM   12  C   UNL     1      43.741 -18.677   4.646  1.00  0.00     0.016 A 
HETATM   13  C   UNL     1      44.245 -20.008   6.609  1.00  0.00     0.018 A 
HETATM   14  C   UNL     1      43.369 -17.612   5.476  1.00  0.00     0.015 A 
HETATM   15  C   UNL     1      43.445 -17.747   6.867  1.00  0.00     0.001 A 
HETATM   16  C   UNL     1      43.886 -18.942   7.432  1.00  0.00     0.001 A 
ENDBRANCH   1   5
BRANCH   2  17
HETATM   17  C   UNL     1      41.066 -16.141   2.074  1.00  0.00     0.047 A 
HETATM   18  C   UNL     1      40.873 -15.727   0.730  1.00  0.00     0.019 A 
HETATM   19  C   UNL     1      40.033 -14.628   0.487  1.00  0.00     0.044 A 
HETATM   20  C   UNL     1      41.369 -16.116  -0.553  1.00  0.00     0.033 A 
HETATM   21  N   UNL     1      39.999 -14.414  -0.874  1.00  0.00    -0.365 N 
HETATM   22  C   UNL     1      39.383 -13.916   1.500  1.00  0.00     0.030 A 
HETATM   23  H   UNL     1      39.461 -13.687  -1.325  1.00  0.00     0.165 HD
HETATM   24  C   UNL     1      40.812 -15.302  -1.512  1.00  0.00     0.089 A 
HETATM   25  C   UNL     1      39.600 -14.318   2.814  1.00  0.00     0.005 A 
HETATM   26  C   UNL     1      40.428 -15.401   3.095  1.00  0.00     0.030 A 
ENDBRANCH   2  17
TORSDOF 2
ENDMDL
MODEL 5
REMARK VINA RESULT:      -8.3      2.352      3.614
REMARK  2 active torsions:
REMARK  status: ('A' for Active; 'I' for Inactive)
REMARK    1  A    between atoms: C_4  and  C_5 
REMARK       I    between atoms: C_5  and  N_6 
REMARK    2  A    between atoms: N_6  and  C_7 
ROOT
HETATM    1  C   UNL     1      41.756 -17.135   2.250  1.00  0.00     0.277 C 
HETATM    2  N   UNL     1      42.376 -16.372   1.290  1.00  0.00    -0.321 N 
HETATM    3  O   UNL     1      40.619 -17.078   2.680  1.00  0.00    -0.266 OA
HETATM    4  H   UNL     1      43.390 -16.437   1.324  1.00  0.00     0.169 HD
ENDROOT
BRANCH   1   5
HETATM    5  C   UNL     1      42.737 -18.136   2.865  1.00  0.00     0.156 A 
HETATM    6  N   UNL     1      42.890 -19.246   2.200  1.00  0.00    -0.164 NA
HETATM    7  N   UNL     1      43.741 -20.201   2.692  1.00  0.00    -0.238 N 
HETATM    8  C   UNL     1      43.907 -21.399   1.890  1.00  0.00     0.183 C 
HETATM    9  C   UNL     1      44.494 -20.061   3.854  1.00  0.00     0.274 A 
HETATM   10  C   UNL     1      44.288 -18.819   4.622  1.00  0.00     0.046 A 
HETATM   11  O   UNL     1      45.287 -20.906   4.262  1.00  0.00    -0.266 OA
HETATM   12  C   UNL     1      43.406 -17.853   4.147  1.00  0.00     0.016 A 
HETATM   13  C   UNL     1      44.964 -18.628   5.835  1.00  0.00     0.018 A 
HETATM   14  C   UNL     1      43.182 -16.694   4.902  1.00  0.00     0.015 A 
HETATM   15  C   UNL     1      43.856 -16.504   6.112  1.00  0.00     0.001 A 
HETATM   16  C   UNL     1      44.749 -17.468   6.577  1.00  0.00     0.001 A 
ENDBRANCH   1   5
BRANCH   2  17
HETATM   17  C   UNL     1      41.835 -15.401   0.425  1.00  0.00     0.047 A 
HETATM   18  C   UNL     1      41.722 -14.008   0.673  1.00  0.00     0.019 A 
HETATM   19  C   UNL     1      41.130 -13.203  -0.314  1.00  0.00     0.044 A 
HETATM   20  C   UNL     1      42.024 -13.122   1.753  1.00  0.00     0.033 A 
HETATM   21  N   UNL     1      41.130 -11.904   0.143  1.00  0.00    -0.365 N 
HETATM   22  C   UNL     1      40.639 -13.704  -1.524  1.00  0.00     0.030 A 
HETATM   23  H   UNL     1      40.767 -11.115  -0.375  1.00  0.00     0.165 HD
HETATM   24  C   UNL     1      41.659 -11.844   1.398  1.00  0.00     0.089 A 
HETATM   25  C   UNL     1      40.736 -15.075  -1.743  1.00  0.00     0.005 A 
HETATM   26  C   UNL     1      41.314 -15.904  -0.787  1.00  0.00     0.030 A 
ENDBRANCH   2  17
TORSDOF 2
ENDMDL
MODEL 6
REMARK VINA RESULT:      -8.2      2.383      7.129
REMARK  2 active torsions:
REMARK  status: ('A' for Active; 'I' for Inactive)
REMARK    1  A    between atoms: C_4  and  C_5 
REMARK       I    between atoms: C_5  and  N_6 
REMARK    2  A    between atoms: N_6  and  C_7 
ROOT
HETATM    1  C   UNL     1      43.662 -16.895   1.995  1.00  0.00     0.277 C 
HETATM    2  N   UNL     1      43.240 -17.594   3.101  1.00  0.00    -0.321 N 
HETATM    3  O   UNL     1      44.656 -17.045   1.308  1.00  0.00    -0.266 OA
HETATM    4  H   UNL     1      42.542 -17.092   3.645  1.00  0.00     0.169 HD
ENDROOT
BRANCH   1   5
HETATM    5  C   UNL     1      42.717 -15.728   1.696  1.00  0.00     0.156 A 
HETATM    6  N   UNL     1      42.136 -15.768   0.531  1.00  0.00    -0.164 NA
HETATM    7  N   UNL     1      41.285 -14.752   0.180  1.00  0.00    -0.238 N 
HETATM    8  C   UNL     1      40.632 -14.869  -1.110  1.00  0.00     0.183 C 
HETATM    9  C   UNL     1      40.963 -13.677   1.002  1.00  0.00     0.274 A 
HETATM   10  C   UNL     1      41.653 -13.618   2.305  1.00  0.00     0.046 A 
HETATM   11  O   UNL     1      40.165 -12.795   0.694  1.00  0.00    -0.266 OA
HETATM   12  C   UNL     1      42.540 -14.629   2.661  1.00  0.00     0.016 A 
HETATM   13  C   UNL     1      41.428 -12.534   3.164  1.00  0.00     0.018 A 
HETATM   14  C   UNL     1      43.225 -14.546   3.880  1.00  0.00     0.015 A 
HETATM   15  C   UNL     1      43.001 -13.464   4.738  1.00  0.00     0.001 A 
HETATM   16  C   UNL     1      42.102 -12.461   4.383  1.00  0.00     0.001 A 
ENDBRANCH   1   5
BRANCH   2  17
HETATM   17  C   UNL     1      43.757 -18.773   3.671  1.00  0.00     0.047 A 
HETATM   18  C   UNL     1      43.948 -20.020   3.022  1.00  0.00     0.019 A 
HETATM   19  C   UNL     1      44.459 -21.090   3.774  1.00  0.00     0.044 A 
HETATM   20  C   UNL     1      43.703 -20.556   1.719  1.00  0.00     0.033 A 
HETATM   21  N   UNL     1      44.557 -22.184   2.943  1.00  0.00    -0.365 N 
HETATM   22  C   UNL     1      44.783 -20.992   5.132  1.00  0.00     0.030 A 
HETATM   23  H   UNL     1      44.905 -23.089   3.228  1.00  0.00     0.165 HD
HETATM   24  C   UNL     1      44.092 -21.876   1.699  1.00  0.00     0.089 A 
HETATM   25  C   UNL     1      44.569 -19.769   5.760  1.00  0.00     0.005 A 
HETATM   26  C   UNL     1      44.060 -18.687   5.048  1.00  0.00     0.030 A 
ENDBRANCH   2  17
TORSDOF 2
ENDMDL
MODEL 7
REMARK VINA RESULT:      -8.2      2.364      6.753
REMARK  2 active torsions:
REMARK  status: ('A' for Active; 'I' for Inactive)
REMARK    1  A    between atoms: C_4  and  C_5 
REMARK       I    between atoms: C_5  and  N_6 
REMARK    2  A    between atoms: N_6  and  C_7 
ROOT
HETATM    1  C   UNL     1      41.950 -16.847   3.464  1.00  0.00     0.277 C 
HETATM    2  N   UNL     1      43.230 -17.323   3.318  1.00  0.00    -0.321 N 
HETATM    3  O   UNL     1      40.958 -17.393   3.910  1.00  0.00    -0.266 OA
HETATM    4  H   UNL     1      43.787 -16.774   2.667  1.00  0.00     0.169 HD
ENDROOT
BRANCH   1   5
HETATM    5  C   UNL     1      41.827 -15.434   2.888  1.00  0.00     0.156 A 
HETATM    6  N   UNL     1      41.886 -14.469   3.762  1.00  0.00    -0.164 NA
HETATM    7  N   UNL     1      41.770 -13.174   3.329  1.00  0.00    -0.238 N 
HETATM    8  C   UNL     1      41.886 -12.139   4.338  1.00  0.00     0.183 C 
HETATM    9  C   UNL     1      41.623 -12.800   1.997  1.00  0.00     0.274 A 
HETATM   10  C   UNL     1      41.518 -13.897   1.016  1.00  0.00     0.046 A 
HETATM   11  O   UNL     1      41.563 -11.633   1.616  1.00  0.00    -0.266 OA
HETATM   12  C   UNL     1      41.607 -15.218   1.447  1.00  0.00     0.016 A 
HETATM   13  C   UNL     1      41.308 -13.604  -0.338  1.00  0.00     0.018 A 
HETATM   14  C   UNL     1      41.464 -16.256   0.518  1.00  0.00     0.015 A 
HETATM   15  C   UNL     1      41.254 -15.964  -0.834  1.00  0.00     0.001 A 
HETATM   16  C   UNL     1      41.179 -14.640  -1.262  1.00  0.00     0.001 A 
ENDBRANCH   1   5
BRANCH   2  17
HETATM   17  C   UNL     1      43.800 -18.527   3.775  1.00  0.00     0.047 A 
HETATM   18  C   UNL     1      43.896 -19.749   3.060  1.00  0.00     0.019 A 
HETATM   19  C   UNL     1      44.483 -20.851   3.703  1.00  0.00     0.044 A 
HETATM   20  C   UNL     1      43.487 -20.232   1.778  1.00  0.00     0.033 A 
HETATM   21  N   UNL     1      44.466 -21.912   2.825  1.00  0.00    -0.365 N 
HETATM   22  C   UNL     1      44.973 -20.808   5.013  1.00  0.00     0.030 A 
HETATM   23  H   UNL     1      44.836 -22.830   3.030  1.00  0.00     0.165 HD
HETATM   24  C   UNL     1      43.856 -21.552   1.661  1.00  0.00     0.089 A 
HETATM   25  C   UNL     1      44.851 -19.610   5.709  1.00  0.00     0.005 A 
HETATM   26  C   UNL     1      44.271 -18.497   5.106  1.00  0.00     0.030 A 
ENDBRANCH   2  17
TORSDOF 2
ENDMDL
MODEL 8
REMARK VINA RESULT:      -8.1      2.282      7.492
REMARK  2 active torsions:
REMARK  status: ('A' for Active; 'I' for Inactive)
REMARK    1  A    between atoms: C_4  and  C_5 
REMARK       I    between atoms: C_5  and  N_6 
REMARK    2  A    between atoms: N_6  and  C_7 
ROOT
HETATM    1  C   UNL     1      43.232 -17.232   1.493  1.00  0.00     0.277 C 
HETATM    2  N   UNL     1      42.690 -18.337   2.105  1.00  0.00    -0.321 N 
HETATM    3  O   UNL     1      44.397 -16.926   1.322  1.00  0.00    -0.266 OA
HETATM    4  H   UNL     1      41.714 -18.209   2.363  1.00  0.00     0.169 HD
ENDROOT
BRANCH   1   5
HETATM    5  C   UNL     1      42.133 -16.261   1.053  1.00  0.00     0.156 A 
HETATM    6  N   UNL     1      41.940 -16.184  -0.233  1.00  0.00    -0.164 NA
HETATM    7  N   UNL     1      40.983 -15.327  -0.710  1.00  0.00    -0.238 N 
HETATM    8  C   UNL     1      40.780 -15.314  -2.146  1.00  0.00     0.183 C 
HETATM    9  C   UNL     1      40.164 -14.538   0.092  1.00  0.00     0.274 A 
HETATM   10  C   UNL     1      40.413 -14.600   1.544  1.00  0.00     0.046 A 
HETATM   11  O   UNL     1      39.280 -13.805  -0.345  1.00  0.00    -0.266 OA
HETATM   12  C   UNL     1      41.400 -15.448   2.039  1.00  0.00     0.016 A 
HETATM   13  C   UNL     1      39.670 -13.791   2.415  1.00  0.00     0.018 A 
HETATM   14  C   UNL     1      41.661 -15.471   3.415  1.00  0.00     0.015 A 
HETATM   15  C   UNL     1      40.921 -14.663   4.284  1.00  0.00     0.001 A 
HETATM   16  C   UNL     1      39.924 -13.826   3.785  1.00  0.00     0.001 A 
ENDBRANCH   1   5
BRANCH   2  17
HETATM   17  C   UNL     1      43.321 -19.502   2.580  1.00  0.00     0.047 A 
HETATM   18  C   UNL     1      43.792 -19.738   3.898  1.00  0.00     0.019 A 
HETATM   19  C   UNL     1      44.418 -20.965   4.170  1.00  0.00     0.044 A 
HETATM   20  C   UNL     1      43.859 -18.999   5.120  1.00  0.00     0.033 A 
HETATM   21  N   UNL     1      44.788 -20.967   5.498  1.00  0.00    -0.365 N 
HETATM   22  C   UNL     1      44.606 -21.964   3.209  1.00  0.00     0.030 A 
HETATM   23  H   UNL     1      45.252 -21.736   5.961  1.00  0.00     0.165 HD
HETATM   24  C   UNL     1      44.464 -19.778   6.080  1.00  0.00     0.089 A 
HETATM   25  C   UNL     1      44.159 -21.710   1.917  1.00  0.00     0.005 A 
HETATM   26  C   UNL     1      43.538 -20.503   1.608  1.00  0.00     0.030 A 
ENDBRANCH   2  17
TORSDOF 2
ENDMDL
MODEL 9
REMARK VINA RESULT:      -8.0      2.435      7.551
REMARK  2 active torsions:
REMARK  status: ('A' for Active; 'I' for Inactive)
REMARK    1  A    between atoms: C_4  and  C_5 
REMARK       I    between atoms: C_5  and  N_6 
REMARK    2  A    between atoms: N_6  and  C_7 
ROOT
HETATM    1  C   UNL     1      41.581 -16.876   2.023  1.00  0.00     0.277 C 
HETATM    2  N   UNL     1      42.900 -17.250   2.119  1.00  0.00    -0.321 N 
HETATM    3  O   UNL     1      40.602 -17.307   2.604  1.00  0.00    -0.266 OA
HETATM    4  H   UNL     1      43.460 -16.934   1.330  1.00  0.00     0.169 HD
ENDROOT
BRANCH   1   5
HETATM    5  C   UNL     1      41.397 -15.797   0.952  1.00  0.00     0.156 A 
HETATM    6  N   UNL     1      41.281 -16.239  -0.268  1.00  0.00    -0.164 NA
HETATM    7  N   UNL     1      41.127 -15.336  -1.287  1.00  0.00    -0.238 N 
HETATM    8  C   UNL     1      40.959 -15.884  -2.620  1.00  0.00     0.183 C 
HETATM    9  C   UNL     1      41.052 -13.958  -1.113  1.00  0.00     0.274 A 
HETATM   10  C   UNL     1      41.222 -13.462   0.266  1.00  0.00     0.046 A 
HETATM   11  O   UNL     1      40.870 -13.161  -2.030  1.00  0.00    -0.266 OA
HETATM   12  C   UNL     1      41.406 -14.367   1.306  1.00  0.00     0.016 A 
HETATM   13  C   UNL     1      41.220 -12.083   0.516  1.00  0.00     0.018 A 
HETATM   14  C   UNL     1      41.610 -13.889   2.607  1.00  0.00     0.015 A 
HETATM   15  C   UNL     1      41.608 -12.513   2.857  1.00  0.00     0.001 A 
HETATM   16  C   UNL     1      41.410 -11.610   1.813  1.00  0.00     0.001 A 
ENDBRANCH   1   5
BRANCH   2  17
HETATM   17  C   UNL     1      43.521 -18.137   3.018  1.00  0.00     0.047 A 
HETATM   18  C   UNL     1      43.815 -19.508   2.796  1.00  0.00     0.019 A 
HETATM   19  C   UNL     1      44.422 -20.233   3.834  1.00  0.00     0.044 A 
HETATM   20  C   UNL     1      43.608 -20.452   1.744  1.00  0.00     0.033 A 
HETATM   21  N   UNL     1      44.609 -21.526   3.394  1.00  0.00    -0.365 N 
HETATM   22  C   UNL     1      44.747 -19.677   5.076  1.00  0.00     0.030 A 
HETATM   23  H   UNL     1      45.036 -22.260   3.942  1.00  0.00     0.165 HD
HETATM   24  C   UNL     1      44.110 -21.672   2.134  1.00  0.00     0.089 A 
HETATM   25  C   UNL     1      44.432 -18.339   5.287  1.00  0.00     0.005 A 
HETATM   26  C   UNL     1      43.826 -17.588   4.283  1.00  0.00     0.030 A 
ENDBRANCH   2  17
TORSDOF 2
ENDMDL
MODEL 10
REMARK VINA RESULT:      -7.9      2.119      7.080
REMARK  2 active torsions:
REMARK  status: ('A' for Active; 'I' for Inactive)
REMARK    1  A    between atoms: C_4  and  C_5 
REMARK       I    between atoms: C_5  and  N_6 
REMARK    2  A    between atoms: N_6  and  C_7 
ROOT
HETATM    1  C   UNL     1      42.615 -15.748   2.610  1.00  0.00     0.277 C 
HETATM    2  N   UNL     1      42.175 -17.044   2.743  1.00  0.00    -0.321 N 
HETATM    3  O   UNL     1      43.728 -15.281   2.764  1.00  0.00    -0.266 OA
HETATM    4  H   UNL     1      41.165 -17.113   2.838  1.00  0.00     0.169 HD
ENDROOT
BRANCH   1   5
HETATM    5  C   UNL     1      41.450 -14.810   2.286  1.00  0.00     0.156 A 
HETATM    6  N   UNL     1      40.939 -14.183   3.308  1.00  0.00    -0.164 NA
HETATM    7  N   UNL     1      39.883 -13.334   3.104  1.00  0.00    -0.238 N 
HETATM    8  C   UNL     1      39.382 -12.629   4.269  1.00  0.00     0.183 C 
HETATM    9  C   UNL     1      39.322 -13.060   1.860  1.00  0.00     0.274 A 
HETATM   10  C   UNL     1      39.879 -13.801   0.713  1.00  0.00     0.046 A 
HETATM   11  O   UNL     1      38.403 -12.263   1.684  1.00  0.00    -0.266 OA
HETATM   12  C   UNL     1      40.934 -14.687   0.911  1.00  0.00     0.016 A 
HETATM   13  C   UNL     1      39.329 -13.626  -0.564  1.00  0.00     0.018 A 
HETATM   14  C   UNL     1      41.431 -15.420  -0.174  1.00  0.00     0.015 A 
HETATM   15  C   UNL     1      40.881 -15.245  -1.449  1.00  0.00     0.001 A 
HETATM   16  C   UNL     1      39.834 -14.347  -1.645  1.00  0.00     0.001 A 
ENDBRANCH   1   5
BRANCH   2  17
HETATM   17  C   UNL     1      42.910 -18.226   2.953  1.00  0.00     0.047 A 
HETATM   18  C   UNL     1      43.679 -18.559   4.099  1.00  0.00     0.019 A 
HETATM   19  C   UNL     1      44.362 -19.786   4.108  1.00  0.00     0.044 A 
HETATM   20  C   UNL     1      44.023 -17.925   5.333  1.00  0.00     0.033 A 
HETATM   21  N   UNL     1      45.031 -19.889   5.308  1.00  0.00    -0.365 N 
HETATM   22  C   UNL     1      44.330 -20.694   3.044  1.00  0.00     0.030 A 
HETATM   23  H   UNL     1      45.598 -20.681   5.580  1.00  0.00     0.165 HD
HETATM   24  C   UNL     1      44.842 -18.764   6.053  1.00  0.00     0.089 A 
HETATM   25  C   UNL     1      43.591 -20.343   1.918  1.00  0.00     0.005 A 
HETATM   26  C   UNL     1      42.903 -19.134   1.872  1.00  0.00     0.030 A 
ENDBRANCH   2  17
TORSDOF 2
ENDMDL
