MODEL 1
REMARK VINA RESULT:      -7.8      0.000      0.000
REMARK  7 active torsions:
REMARK  status: ('A' for Active; 'I' for Inactive)
REMARK    1  A    between atoms: O_2  and  C_3 
REMARK    2  A    between atoms: C_4  and  O_5 
REMARK    3  A    between atoms: C_9  and  C_10 
REMARK    4  A    between atoms: C_10  and  N_11 
REMARK    5  A    between atoms: C_14  and  C_15 
REMARK    6  A    between atoms: C_15  and  N_16 
REMARK    7  A    between atoms: N_16  and  C_17 
ROOT
HETATM    1  N   UNL     1      41.706 -17.159   2.692  1.00  0.00    -0.067 N 
HETATM    2  H   UNL     1      41.388 -18.008   3.187  1.00  0.00     0.280 HD
HETATM    3  C   UNL     1      41.323 -17.337   1.237  1.00  0.00     0.241 C 
HETATM    4  C   UNL     1      40.606 -16.046   0.845  1.00  0.00     0.031 C 
HETATM    5  C   UNL     1      39.909 -15.662   2.148  1.00  0.00     0.035 C 
HETATM    6  C   UNL     1      40.907 -15.997   3.245  1.00  0.00     0.235 C 
ENDROOT
BRANCH   1   7
HETATM    7  C   UNL     1      43.184 -17.068   3.007  1.00  0.00     0.274 C 
BRANCH   7   8
HETATM    8  C   UNL     1      43.768 -18.322   3.603  1.00  0.00    -0.012 A 
HETATM    9  C   UNL     1      44.114 -18.420   4.962  1.00  0.00     0.021 A 
HETATM   10  C   UNL     1      44.650 -19.600   5.475  1.00  0.00     0.059 A 
HETATM   11 BR   UNL     1      43.855 -16.974   6.166  1.00  0.00    -0.050 Br
HETATM   12  C   UNL     1      44.827 -20.690   4.632  1.00  0.00     0.100 A 
HETATM   13  C   UNL     1      44.479 -20.637   3.281  1.00  0.00     0.101 A 
HETATM   14  C   UNL     1      43.968 -19.446   2.767  1.00  0.00     0.049 A 
BRANCH  12  15
HETATM   15  O   UNL     1      45.347 -21.833   5.171  1.00  0.00    -0.358 OA
HETATM   16  H   UNL     1      45.510 -21.649   6.117  1.00  0.00     0.218 HD
ENDBRANCH  12  15
BRANCH  13  17
HETATM   17  O   UNL     1      44.692 -21.792   2.579  1.00  0.00    -0.353 OA
HETATM   18  C   UNL     1      43.971 -21.967   1.366  1.00  0.00     0.210 C 
ENDBRANCH  13  17
ENDBRANCH   7   8
ENDBRANCH   1   7
BRANCH   4  19
HETATM   19  C   UNL     1      41.596 -14.990   0.318  1.00  0.00     0.127 C 
BRANCH  19  20
HETATM   20  N   UNL     1      41.748 -15.083  -1.136  1.00  0.00    -0.376 N 
HETATM   21  H   UNL     1      42.544 -14.575  -1.512  1.00  0.00     0.161 HD
BRANCH  20  22
HETATM   22  C   UNL     1      40.613 -15.122  -1.940  1.00  0.00     0.100 A 
HETATM   23  N   UNL     1      39.585 -14.306  -1.642  1.00  0.00    -0.353 N 
HETATM   24  H   UNL     1      39.675 -13.687  -0.842  1.00  0.00     0.166 HD
HETATM   25  C   UNL     1      38.445 -14.251  -2.351  1.00  0.00     0.089 A 
HETATM   26  C   UNL     1      38.280 -15.051  -3.469  1.00  0.00     0.017 A 
HETATM   27  C   UNL     1      39.316 -15.892  -3.844  1.00  0.00     0.005 A 
HETATM   28  C   UNL     1      40.486 -15.923  -3.085  1.00  0.00     0.048 A 
ENDBRANCH  20  22
ENDBRANCH  19  20
ENDBRANCH   4  19
TORSDOF 7
ENDMDL
MODEL 2
REMARK VINA RESULT:      -7.8      2.147      2.857
REMARK  7 active torsions:
REMARK  status: ('A' for Active; 'I' for Inactive)
REMARK    1  A    between atoms: O_2  and  C_3 
REMARK    2  A    between atoms: C_4  and  O_5 
REMARK    3  A    between atoms: C_9  and  C_10 
REMARK    4  A    between atoms: C_10  and  N_11 
REMARK    5  A    between atoms: C_14  and  C_15 
REMARK    6  A    between atoms: C_15  and  N_16 
REMARK    7  A    between atoms: N_16  and  C_17 
ROOT
HETATM    1  N   UNL     1      42.303 -17.645   2.884  1.00  0.00    -0.067 N 
HETATM    2  H   UNL     1      42.261 -18.615   3.240  1.00  0.00     0.280 HD
HETATM    3  C   UNL     1      42.290 -17.737   1.373  1.00  0.00     0.241 C 
HETATM    4  C   UNL     1      41.206 -16.762   0.915  1.00  0.00     0.031 C 
HETATM    5  C   UNL     1      40.192 -16.860   2.052  1.00  0.00     0.035 C 
HETATM    6  C   UNL     1      41.026 -16.957   3.320  1.00  0.00     0.235 C 
ENDROOT
BRANCH   1   7
HETATM    7  C   UNL     1      43.543 -17.060   3.526  1.00  0.00     0.274 C 
BRANCH   7   8
HETATM    8  C   UNL     1      43.564 -17.150   5.030  1.00  0.00    -0.012 A 
HETATM    9  C   UNL     1      43.497 -16.013   5.853  1.00  0.00     0.021 A 
HETATM   10  C   UNL     1      43.516 -16.139   7.241  1.00  0.00     0.059 A 
HETATM   11 BR   UNL     1      43.357 -14.262   5.130  1.00  0.00    -0.050 Br
HETATM   12  C   UNL     1      43.586 -17.405   7.808  1.00  0.00     0.100 A 
HETATM   13  C   UNL     1      43.636 -18.559   7.024  1.00  0.00     0.101 A 
HETATM   14  C   UNL     1      43.643 -18.426   5.636  1.00  0.00     0.049 A 
BRANCH  12  15
HETATM   15  O   UNL     1      43.594 -17.491   9.171  1.00  0.00    -0.358 OA
HETATM   16  H   UNL     1      43.081 -16.729   9.505  1.00  0.00     0.218 HD
ENDBRANCH  12  15
BRANCH  13  17
HETATM   17  O   UNL     1      43.684 -19.735   7.721  1.00  0.00    -0.353 OA
HETATM   18  C   UNL     1      43.672 -20.944   6.972  1.00  0.00     0.210 C 
ENDBRANCH  13  17
ENDBRANCH   7   8
ENDBRANCH   1   7
BRANCH   4  19
HETATM   19  C   UNL     1      41.778 -15.349   0.692  1.00  0.00     0.127 C 
BRANCH  19  20
HETATM   20  N   UNL     1      41.995 -15.083  -0.732  1.00  0.00    -0.376 N 
HETATM   21  H   UNL     1      42.743 -14.424  -0.930  1.00  0.00     0.161 HD
BRANCH  20  22
HETATM   22  C   UNL     1      40.904 -15.046  -1.594  1.00  0.00     0.100 A 
HETATM   23  N   UNL     1      39.903 -14.187  -1.328  1.00  0.00    -0.353 N 
HETATM   24  H   UNL     1      39.981 -13.592  -0.509  1.00  0.00     0.166 HD
HETATM   25  C   UNL     1      38.805 -14.058  -2.093  1.00  0.00     0.089 A 
HETATM   26  C   UNL     1      38.662 -14.823  -3.239  1.00  0.00     0.017 A 
HETATM   27  C   UNL     1      39.673 -15.706  -3.582  1.00  0.00     0.005 A 
HETATM   28  C   UNL     1      40.798 -15.814  -2.765  1.00  0.00     0.048 A 
ENDBRANCH  20  22
ENDBRANCH  19  20
ENDBRANCH   4  19
TORSDOF 7
ENDMDL
MODEL 3
REMARK VINA RESULT:      -7.7      4.168      7.145
REMARK  7 active torsions:
REMARK  status: ('A' for Active; 'I' for Inactive)
REMARK    1  A    between atoms: O_2  and  C_3 
REMARK    2  A    between atoms: C_4  and  O_5 
REMARK    3  A    between atoms: C_9  and  C_10 
REMARK    4  A    between atoms: C_10  and  N_11 
REMARK    5  A    between atoms: C_14  and  C_15 
REMARK    6  A    between atoms: C_15  and  N_16 
REMARK    7  A    between atoms: N_16  and  C_17 
ROOT
HETATM    1  N   UNL     1      43.151 -15.281   6.633  1.00  0.00    -0.067 N 
HETATM    2  H   UNL     1      42.942 -14.625   7.403  1.00  0.00     0.280 HD
HETATM    3  C   UNL     1      44.479 -15.930   6.964  1.00  0.00     0.241 C 
HETATM    4  C   UNL     1      44.250 -17.432   6.802  1.00  0.00     0.031 C 
HETATM    5  C   UNL     1      42.792 -17.578   7.233  1.00  0.00     0.035 C 
HETATM    6  C   UNL     1      42.086 -16.357   6.665  1.00  0.00     0.235 C 
ENDROOT
BRANCH   1   7
HETATM    7  C   UNL     1      43.097 -14.427   5.384  1.00  0.00     0.274 C 
BRANCH   7   8
HETATM    8  C   UNL     1      41.963 -14.764   4.452  1.00  0.00    -0.012 A 
HETATM    9  C   UNL     1      40.733 -14.083   4.484  1.00  0.00     0.021 A 
HETATM   10  C   UNL     1      39.710 -14.424   3.602  1.00  0.00     0.059 A 
HETATM   11 BR   UNL     1      40.409 -12.664   5.705  1.00  0.00    -0.050 Br
HETATM   12  C   UNL     1      39.920 -15.436   2.675  1.00  0.00     0.100 A 
HETATM   13  C   UNL     1      41.133 -16.123   2.600  1.00  0.00     0.101 A 
HETATM   14  C   UNL     1      42.145 -15.796   3.501  1.00  0.00     0.049 A 
BRANCH  12  15
HETATM   15  O   UNL     1      38.897 -15.737   1.820  1.00  0.00    -0.358 OA
HETATM   16  H   UNL     1      39.115 -16.598   1.412  1.00  0.00     0.218 HD
ENDBRANCH  12  15
BRANCH  13  17
HETATM   17  O   UNL     1      41.200 -17.080   1.625  1.00  0.00    -0.353 OA
HETATM   18  C   UNL     1      42.044 -16.824   0.509  1.00  0.00     0.210 C 
ENDBRANCH  13  17
ENDBRANCH   7   8
ENDBRANCH   1   7
BRANCH   4  19
HETATM   19  C   UNL     1      44.535 -17.892   5.360  1.00  0.00     0.127 C 
BRANCH  19  20
HETATM   20  N   UNL     1      44.737 -19.342   5.295  1.00  0.00    -0.376 N 
HETATM   21  H   UNL     1      45.545 -19.679   5.812  1.00  0.00     0.161 HD
BRANCH  20  22
HETATM   22  C   UNL     1      44.435 -20.022   4.120  1.00  0.00     0.100 A 
HETATM   23  N   UNL     1      44.728 -21.333   4.042  1.00  0.00    -0.353 N 
HETATM   24  H   UNL     1      45.157 -21.781   4.847  1.00  0.00     0.166 HD
HETATM   25  C   UNL     1      44.474 -22.093   2.964  1.00  0.00     0.089 A 
HETATM   26  C   UNL     1      43.863 -21.540   1.851  1.00  0.00     0.017 A 
HETATM   27  C   UNL     1      43.510 -20.200   1.881  1.00  0.00     0.005 A 
HETATM   28  C   UNL     1      43.789 -19.441   3.018  1.00  0.00     0.048 A 
ENDBRANCH  20  22
ENDBRANCH  19  20
ENDBRANCH   4  19
TORSDOF 7
ENDMDL
MODEL 4
REMARK VINA RESULT:      -7.6      2.065      3.456
REMARK  7 active torsions:
REMARK  status: ('A' for Active; 'I' for Inactive)
REMARK    1  A    between atoms: O_2  and  C_3 
REMARK    2  A    between atoms: C_4  and  O_5 
REMARK    3  A    between atoms: C_9  and  C_10 
REMARK    4  A    between atoms: C_10  and  N_11 
REMARK    5  A    between atoms: C_14  and  C_15 
REMARK    6  A    between atoms: C_15  and  N_16 
REMARK    7  A    between atoms: N_16  and  C_17 
ROOT
HETATM    1  N   UNL     1      42.850 -17.504   5.364  1.00  0.00    -0.067 N 
HETATM    2  H   UNL     1      43.071 -18.244   6.050  1.00  0.00     0.280 HD
HETATM    3  C   UNL     1      41.455 -17.792   4.850  1.00  0.00     0.241 C 
HETATM    4  C   UNL     1      40.696 -16.472   4.971  1.00  0.00     0.031 C 
HETATM    5  C   UNL     1      41.324 -15.858   6.220  1.00  0.00     0.035 C 
HETATM    6  C   UNL     1      42.804 -16.194   6.124  1.00  0.00     0.235 C 
ENDROOT
BRANCH   1   7
HETATM    7  C   UNL     1      43.980 -17.569   4.359  1.00  0.00     0.274 C 
BRANCH   7   8
HETATM    8  C   UNL     1      44.026 -18.846   3.561  1.00  0.00    -0.012 A 
HETATM    9  C   UNL     1      43.746 -18.883   2.183  1.00  0.00     0.021 A 
HETATM   10  C   UNL     1      43.802 -20.084   1.480  1.00  0.00     0.059 A 
HETATM   11 BR   UNL     1      43.301 -17.313   1.211  1.00  0.00    -0.050 Br
HETATM   12  C   UNL     1      44.154 -21.249   2.150  1.00  0.00     0.100 A 
HETATM   13  C   UNL     1      44.456 -21.250   3.513  1.00  0.00     0.101 A 
HETATM   14  C   UNL     1      44.373 -20.050   4.218  1.00  0.00     0.049 A 
BRANCH  12  15
HETATM   15  O   UNL     1      44.207 -22.407   1.426  1.00  0.00    -0.358 OA
HETATM   16  H   UNL     1      45.117 -22.753   1.515  1.00  0.00     0.218 HD
ENDBRANCH  12  15
BRANCH  13  17
HETATM   17  O   UNL     1      44.803 -22.467   4.031  1.00  0.00    -0.353 OA
HETATM   18  C   UNL     1      45.160 -22.518   5.407  1.00  0.00     0.210 C 
ENDBRANCH  13  17
ENDBRANCH   7   8
ENDBRANCH   1   7
BRANCH   4  19
HETATM   19  C   UNL     1      40.846 -15.618   3.698  1.00  0.00     0.127 C 
BRANCH  19  20
HETATM   20  N   UNL     1      40.130 -16.217   2.569  1.00  0.00    -0.376 N 
HETATM   21  H   UNL     1      40.491 -17.120   2.270  1.00  0.00     0.161 HD
BRANCH  20  22
HETATM   22  C   UNL     1      39.630 -15.396   1.563  1.00  0.00     0.100 A 
HETATM   23  N   UNL     1      40.342 -15.261   0.429  1.00  0.00    -0.353 N 
HETATM   24  H   UNL     1      41.219 -15.766   0.346  1.00  0.00     0.166 HD
HETATM   25  C   UNL     1      39.955 -14.503  -0.610  1.00  0.00     0.089 A 
HETATM   26  C   UNL     1      38.753 -13.816  -0.563  1.00  0.00     0.017 A 
HETATM   27  C   UNL     1      37.961 -13.939   0.568  1.00  0.00     0.005 A 
HETATM   28  C   UNL     1      38.394 -14.735   1.628  1.00  0.00     0.048 A 
ENDBRANCH  20  22
ENDBRANCH  19  20
ENDBRANCH   4  19
TORSDOF 7
ENDMDL
MODEL 5
REMARK VINA RESULT:      -7.4      1.722      2.305
REMARK  7 active torsions:
REMARK  status: ('A' for Active; 'I' for Inactive)
REMARK    1  A    between atoms: O_2  and  C_3 
REMARK    2  A    between atoms: C_4  and  O_5 
REMARK    3  A    between atoms: C_9  and  C_10 
REMARK    4  A    between atoms: C_10  and  N_11 
REMARK    5  A    between atoms: C_14  and  C_15 
REMARK    6  A    between atoms: C_15  and  N_16 
REMARK    7  A    between atoms: N_16  and  C_17 
ROOT
HETATM    1  N   UNL     1      42.119 -16.725   3.510  1.00  0.00    -0.067 N 
HETATM    2  H   UNL     1      41.906 -17.015   4.478  1.00  0.00     0.280 HD
HETATM    3  C   UNL     1      41.129 -17.442   2.615  1.00  0.00     0.241 C 
HETATM    4  C   UNL     1      40.539 -16.359   1.712  1.00  0.00     0.031 C 
HETATM    5  C   UNL     1      40.539 -15.143   2.635  1.00  0.00     0.035 C 
HETATM    6  C   UNL     1      41.838 -15.239   3.419  1.00  0.00     0.235 C 
ENDROOT
BRANCH   1   7
HETATM    7  C   UNL     1      43.583 -17.067   3.326  1.00  0.00     0.274 C 
BRANCH   7   8
HETATM    8  C   UNL     1      43.988 -18.393   3.914  1.00  0.00    -0.012 A 
HETATM    9  C   UNL     1      44.291 -18.552   5.277  1.00  0.00     0.021 A 
HETATM   10  C   UNL     1      44.659 -19.797   5.782  1.00  0.00     0.059 A 
HETATM   11 BR   UNL     1      44.198 -17.099   6.498  1.00  0.00    -0.050 Br
HETATM   12  C   UNL     1      44.710 -20.891   4.927  1.00  0.00     0.100 A 
HETATM   13  C   UNL     1      44.398 -20.776   3.571  1.00  0.00     0.101 A 
HETATM   14  C   UNL     1      44.056 -19.523   3.065  1.00  0.00     0.049 A 
BRANCH  12  15
HETATM   15  O   UNL     1      45.066 -22.098   5.458  1.00  0.00    -0.358 OA
HETATM   16  H   UNL     1      45.839 -21.935   6.034  1.00  0.00     0.218 HD
ENDBRANCH  12  15
BRANCH  13  17
HETATM   17  O   UNL     1      44.473 -21.940   2.856  1.00  0.00    -0.353 OA
HETATM   18  C   UNL     1      44.145 -21.886   1.473  1.00  0.00     0.210 C 
ENDBRANCH  13  17
ENDBRANCH   7   8
ENDBRANCH   1   7
BRANCH   4  19
HETATM   19  C   UNL     1      41.371 -16.183   0.427  1.00  0.00     0.127 C 
BRANCH  19  20
HETATM   20  N   UNL     1      40.743 -15.224  -0.485  1.00  0.00    -0.376 N 
HETATM   21  H   UNL     1      40.131 -15.641  -1.181  1.00  0.00     0.161 HD
BRANCH  20  22
HETATM   22  C   UNL     1      41.455 -14.100  -0.891  1.00  0.00     0.100 A 
HETATM   23  N   UNL     1      41.947 -14.069  -2.143  1.00  0.00    -0.353 N 
HETATM   24  H   UNL     1      41.778 -14.866  -2.750  1.00  0.00     0.166 HD
HETATM   25  C   UNL     1      42.642 -13.035  -2.647  1.00  0.00     0.089 A 
HETATM   26  C   UNL     1      42.876 -11.910  -1.874  1.00  0.00     0.017 A 
HETATM   27  C   UNL     1      42.369 -11.871  -0.585  1.00  0.00     0.005 A 
HETATM   28  C   UNL     1      41.652 -12.962  -0.094  1.00  0.00     0.048 A 
ENDBRANCH  20  22
ENDBRANCH  19  20
ENDBRANCH   4  19
TORSDOF 7
ENDMDL
MODEL 6
REMARK VINA RESULT:      -7.4      1.857      2.680
REMARK  7 active torsions:
REMARK  status: ('A' for Active; 'I' for Inactive)
REMARK    1  A    between atoms: O_2  and  C_3 
REMARK    2  A    between atoms: C_4  and  O_5 
REMARK    3  A    between atoms: C_9  and  C_10 
REMARK    4  A    between atoms: C_10  and  N_11 
REMARK    5  A    between atoms: C_14  and  C_15 
REMARK    6  A    between atoms: C_15  and  N_16 
REMARK    7  A    between atoms: N_16  and  C_17 
ROOT
HETATM    1  N   UNL     1      41.861 -16.337   4.384  1.00  0.00    -0.067 N 
HETATM    2  H   UNL     1      41.683 -16.918   5.219  1.00  0.00     0.280 HD
HETATM    3  C   UNL     1      40.864 -16.773   3.330  1.00  0.00     0.241 C 
HETATM    4  C   UNL     1      40.223 -15.485   2.818  1.00  0.00     0.031 C 
HETATM    5  C   UNL     1      40.218 -14.613   4.071  1.00  0.00     0.035 C 
HETATM    6  C   UNL     1      41.541 -14.905   4.762  1.00  0.00     0.235 C 
ENDROOT
BRANCH   1   7
HETATM    7  C   UNL     1      43.327 -16.558   4.076  1.00  0.00     0.274 C 
BRANCH   7   8
HETATM    8  C   UNL     1      43.716 -18.004   3.919  1.00  0.00    -0.012 A 
HETATM    9  C   UNL     1      43.910 -18.600   2.660  1.00  0.00     0.021 A 
HETATM   10  C   UNL     1      44.273 -19.941   2.558  1.00  0.00     0.059 A 
HETATM   11 BR   UNL     1      43.712 -17.615   1.047  1.00  0.00    -0.050 Br
HETATM   12  C   UNL     1      44.457 -20.687   3.715  1.00  0.00     0.100 A 
HETATM   13  C   UNL     1      44.290 -20.126   4.983  1.00  0.00     0.101 A 
HETATM   14  C   UNL     1      43.902 -18.791   5.080  1.00  0.00     0.049 A 
BRANCH  12  15
HETATM   15  O   UNL     1      44.820 -21.996   3.577  1.00  0.00    -0.358 OA
HETATM   16  H   UNL     1      44.703 -22.223   2.633  1.00  0.00     0.218 HD
ENDBRANCH  12  15
BRANCH  13  17
HETATM   17  O   UNL     1      44.524 -20.976   6.029  1.00  0.00    -0.353 OA
HETATM   18  C   UNL     1      43.589 -20.970   7.102  1.00  0.00     0.210 C 
ENDBRANCH  13  17
ENDBRANCH   7   8
ENDBRANCH   1   7
BRANCH   4  19
HETATM   19  C   UNL     1      41.014 -14.895   1.635  1.00  0.00     0.127 C 
BRANCH  19  20
HETATM   20  N   UNL     1      40.641 -15.539   0.373  1.00  0.00    -0.376 N 
HETATM   21  H   UNL     1      40.643 -16.555   0.400  1.00  0.00     0.161 HD
BRANCH  20  22
HETATM   22  C   UNL     1      41.029 -14.959  -0.831  1.00  0.00     0.100 A 
HETATM   23  N   UNL     1      41.668 -13.775  -0.798  1.00  0.00    -0.353 N 
HETATM   24  H   UNL     1      41.849 -13.348   0.106  1.00  0.00     0.166 HD
HETATM   25  C   UNL     1      42.096 -13.126  -1.894  1.00  0.00     0.089 A 
HETATM   26  C   UNL     1      41.903 -13.678  -3.149  1.00  0.00     0.017 A 
HETATM   27  C   UNL     1      41.275 -14.910  -3.246  1.00  0.00     0.005 A 
HETATM   28  C   UNL     1      40.844 -15.555  -2.088  1.00  0.00     0.048 A 
ENDBRANCH  20  22
ENDBRANCH  19  20
ENDBRANCH   4  19
TORSDOF 7
ENDMDL
MODEL 7
REMARK VINA RESULT:      -7.4      4.118      6.581
REMARK  7 active torsions:
REMARK  status: ('A' for Active; 'I' for Inactive)
REMARK    1  A    between atoms: O_2  and  C_3 
REMARK    2  A    between atoms: C_4  and  O_5 
REMARK    3  A    between atoms: C_9  and  C_10 
REMARK    4  A    between atoms: C_10  and  N_11 
REMARK    5  A    between atoms: C_14  and  C_15 
REMARK    6  A    between atoms: C_15  and  N_16 
REMARK    7  A    between atoms: N_16  and  C_17 
ROOT
HETATM    1  N   UNL     1      41.817 -16.870   4.551  1.00  0.00    -0.067 N 
HETATM    2  H   UNL     1      41.408 -17.801   4.366  1.00  0.00     0.280 HD
HETATM    3  C   UNL     1      40.975 -15.868   3.789  1.00  0.00     0.241 C 
HETATM    4  C   UNL     1      40.629 -14.775   4.800  1.00  0.00     0.031 C 
HETATM    5  C   UNL     1      40.522 -15.569   6.100  1.00  0.00     0.035 C 
HETATM    6  C   UNL     1      41.642 -16.595   6.031  1.00  0.00     0.235 C 
ENDROOT
BRANCH   1   7
HETATM    7  C   UNL     1      43.267 -17.005   4.138  1.00  0.00     0.274 C 
BRANCH   7   8
HETATM    8  C   UNL     1      43.627 -18.353   3.571  1.00  0.00    -0.012 A 
HETATM    9  C   UNL     1      43.516 -18.648   2.201  1.00  0.00     0.021 A 
HETATM   10  C   UNL     1      43.863 -19.907   1.716  1.00  0.00     0.059 A 
HETATM   11 BR   UNL     1      42.915 -17.355   0.946  1.00  0.00    -0.050 Br
HETATM   12  C   UNL     1      44.336 -20.870   2.598  1.00  0.00     0.100 A 
HETATM   13  C   UNL     1      44.477 -20.610   3.962  1.00  0.00     0.101 A 
HETATM   14  C   UNL     1      44.104 -19.357   4.447  1.00  0.00     0.049 A 
BRANCH  12  15
HETATM   15  O   UNL     1      44.674 -22.091   2.086  1.00  0.00    -0.358 OA
HETATM   16  H   UNL     1      44.875 -21.953   1.139  1.00  0.00     0.218 HD
ENDBRANCH  12  15
BRANCH  13  17
HETATM   17  O   UNL     1      44.972 -21.646   4.705  1.00  0.00    -0.353 OA
HETATM   18  C   UNL     1      44.473 -21.805   6.027  1.00  0.00     0.210 C 
ENDBRANCH  13  17
ENDBRANCH   7   8
ENDBRANCH   1   7
BRANCH   4  19
HETATM   19  C   UNL     1      41.697 -13.666   4.818  1.00  0.00     0.127 C 
BRANCH  19  20
HETATM   20  N   UNL     1      41.846 -13.094   6.158  1.00  0.00    -0.376 N 
HETATM   21  H   UNL     1      41.254 -12.289   6.342  1.00  0.00     0.161 HD
BRANCH  20  22
HETATM   22  C   UNL     1      43.100 -13.081   6.760  1.00  0.00     0.100 A 
HETATM   23  N   UNL     1      43.287 -12.300   7.841  1.00  0.00    -0.353 N 
HETATM   24  H   UNL     1      42.503 -11.750   8.181  1.00  0.00     0.166 HD
HETATM   25  C   UNL     1      44.450 -12.213   8.508  1.00  0.00     0.089 A 
HETATM   26  C   UNL     1      45.541 -12.964   8.105  1.00  0.00     0.017 A 
HETATM   27  C   UNL     1      45.403 -13.810   7.016  1.00  0.00     0.005 A 
HETATM   28  C   UNL     1      44.181 -13.874   6.347  1.00  0.00     0.048 A 
ENDBRANCH  20  22
ENDBRANCH  19  20
ENDBRANCH   4  19
TORSDOF 7
ENDMDL
MODEL 8
REMARK VINA RESULT:      -7.4      4.854      8.009
REMARK  7 active torsions:
REMARK  status: ('A' for Active; 'I' for Inactive)
REMARK    1  A    between atoms: O_2  and  C_3 
REMARK    2  A    between atoms: C_4  and  O_5 
REMARK    3  A    between atoms: C_9  and  C_10 
REMARK    4  A    between atoms: C_10  and  N_11 
REMARK    5  A    between atoms: C_14  and  C_15 
REMARK    6  A    between atoms: C_15  and  N_16 
REMARK    7  A    between atoms: N_16  and  C_17 
ROOT
HETATM    1  N   UNL     1      42.555 -16.579   5.962  1.00  0.00    -0.067 N 
HETATM    2  H   UNL     1      42.325 -15.578   6.073  1.00  0.00     0.280 HD
HETATM    3  C   UNL     1      44.066 -16.680   5.963  1.00  0.00     0.241 C 
HETATM    4  C   UNL     1      44.401 -17.776   6.972  1.00  0.00     0.031 C 
HETATM    5  C   UNL     1      43.289 -17.606   8.005  1.00  0.00     0.035 C 
HETATM    6  C   UNL     1      42.041 -17.293   7.195  1.00  0.00     0.235 C 
ENDROOT
BRANCH   1   7
HETATM    7  C   UNL     1      41.840 -16.993   4.693  1.00  0.00     0.274 C 
BRANCH   7   8
HETATM    8  C   UNL     1      41.051 -15.889   4.039  1.00  0.00    -0.012 A 
HETATM    9  C   UNL     1      40.743 -15.895   2.667  1.00  0.00     0.021 A 
HETATM   10  C   UNL     1      40.007 -14.856   2.101  1.00  0.00     0.059 A 
HETATM   11 BR   UNL     1      41.288 -17.312   1.526  1.00  0.00    -0.050 Br
HETATM   12  C   UNL     1      39.565 -13.816   2.909  1.00  0.00     0.100 A 
HETATM   13  C   UNL     1      39.835 -13.784   4.278  1.00  0.00     0.101 A 
HETATM   14  C   UNL     1      40.594 -14.813   4.835  1.00  0.00     0.049 A 
BRANCH  12  15
HETATM   15  O   UNL     1      38.839 -12.819   2.321  1.00  0.00    -0.358 OA
HETATM   16  H   UNL     1      38.136 -13.252   1.799  1.00  0.00     0.218 HD
ENDBRANCH  12  15
BRANCH  13  17
HETATM   17  O   UNL     1      39.319 -12.709   4.948  1.00  0.00    -0.353 OA
HETATM   18  C   UNL     1      40.223 -11.908   5.700  1.00  0.00     0.210 C 
ENDBRANCH  13  17
ENDBRANCH   7   8
ENDBRANCH   1   7
BRANCH   4  19
HETATM   19  C   UNL     1      44.442 -19.163   6.304  1.00  0.00     0.127 C 
BRANCH  19  20
HETATM   20  N   UNL     1      45.071 -19.098   4.982  1.00  0.00    -0.376 N 
HETATM   21  H   UNL     1      45.326 -18.161   4.682  1.00  0.00     0.161 HD
BRANCH  20  22
HETATM   22  C   UNL     1      44.650 -19.968   3.981  1.00  0.00     0.100 A 
HETATM   23  N   UNL     1      44.838 -21.289   4.157  1.00  0.00    -0.353 N 
HETATM   24  H   UNL     1      45.277 -21.605   5.016  1.00  0.00     0.166 HD
HETATM   25  C   UNL     1      44.466 -22.221   3.264  1.00  0.00     0.089 A 
HETATM   26  C   UNL     1      43.835 -21.848   2.088  1.00  0.00     0.017 A 
HETATM   27  C   UNL     1      43.588 -20.503   1.864  1.00  0.00     0.005 A 
HETATM   28  C   UNL     1      43.988 -19.562   2.812  1.00  0.00     0.048 A 
ENDBRANCH  20  22
ENDBRANCH  19  20
ENDBRANCH   4  19
TORSDOF 7
ENDMDL
MODEL 9
REMARK VINA RESULT:      -7.4      4.106      7.978
REMARK  7 active torsions:
REMARK  status: ('A' for Active; 'I' for Inactive)
REMARK    1  A    between atoms: O_2  and  C_3 
REMARK    2  A    between atoms: C_4  and  O_5 
REMARK    3  A    between atoms: C_9  and  C_10 
REMARK    4  A    between atoms: C_10  and  N_11 
REMARK    5  A    between atoms: C_14  and  C_15 
REMARK    6  A    between atoms: C_15  and  N_16 
REMARK    7  A    between atoms: N_16  and  C_17 
ROOT
HETATM    1  N   UNL     1      41.816 -15.981   4.480  1.00  0.00    -0.067 N 
HETATM    2  H   UNL     1      41.607 -15.003   4.222  1.00  0.00     0.280 HD
HETATM    3  C   UNL     1      43.323 -16.090   4.587  1.00  0.00     0.241 C 
HETATM    4  C   UNL     1      43.588 -16.764   5.932  1.00  0.00     0.031 C 
HETATM    5  C   UNL     1      42.440 -16.230   6.786  1.00  0.00     0.035 C 
HETATM    6  C   UNL     1      41.234 -16.210   5.860  1.00  0.00     0.235 C 
ENDROOT
BRANCH   1   7
HETATM    7  C   UNL     1      41.142 -16.807   3.405  1.00  0.00     0.274 C 
BRANCH   7   8
HETATM    8  C   UNL     1      40.968 -16.092   2.092  1.00  0.00    -0.012 A 
HETATM    9  C   UNL     1      41.829 -16.302   1.000  1.00  0.00     0.021 A 
HETATM   10  C   UNL     1      41.632 -15.622  -0.200  1.00  0.00     0.059 A 
HETATM   11 BR   UNL     1      43.280 -17.524   1.091  1.00  0.00    -0.050 Br
HETATM   12  C   UNL     1      40.563 -14.742  -0.316  1.00  0.00     0.100 A 
HETATM   13  C   UNL     1      39.677 -14.521   0.739  1.00  0.00     0.101 A 
HETATM   14  C   UNL     1      39.893 -15.184   1.946  1.00  0.00     0.049 A 
BRANCH  12  15
HETATM   15  O   UNL     1      40.396 -14.099  -1.510  1.00  0.00    -0.358 OA
HETATM   16  H   UNL     1      39.442 -13.901  -1.592  1.00  0.00     0.218 HD
ENDBRANCH  12  15
BRANCH  13  17
HETATM   17  O   UNL     1      38.662 -13.643   0.473  1.00  0.00    -0.353 OA
HETATM   18  C   UNL     1      37.336 -14.059   0.774  1.00  0.00     0.210 C 
ENDBRANCH  13  17
ENDBRANCH   7   8
ENDBRANCH   1   7
BRANCH   4  19
HETATM   19  C   UNL     1      43.620 -18.298   5.796  1.00  0.00     0.127 C 
BRANCH  19  20
HETATM   20  N   UNL     1      44.400 -18.711   4.626  1.00  0.00    -0.376 N 
HETATM   21  H   UNL     1      44.361 -18.065   3.842  1.00  0.00     0.161 HD
BRANCH  20  22
HETATM   22  C   UNL     1      44.481 -20.061   4.302  1.00  0.00     0.100 A 
HETATM   23  N   UNL     1      44.377 -20.420   3.009  1.00  0.00    -0.353 N 
HETATM   24  H   UNL     1      44.246 -19.691   2.314  1.00  0.00     0.166 HD
HETATM   25  C   UNL     1      44.449 -21.690   2.577  1.00  0.00     0.089 A 
HETATM   26  C   UNL     1      44.658 -22.721   3.479  1.00  0.00     0.017 A 
HETATM   27  C   UNL     1      44.802 -22.412   4.822  1.00  0.00     0.005 A 
HETATM   28  C   UNL     1      44.721 -21.082   5.234  1.00  0.00     0.048 A 
ENDBRANCH  20  22
ENDBRANCH  19  20
ENDBRANCH   4  19
TORSDOF 7
ENDMDL
MODEL 10
REMARK VINA RESULT:      -7.2      4.025      5.427
REMARK  7 active torsions:
REMARK  status: ('A' for Active; 'I' for Inactive)
REMARK    1  A    between atoms: O_2  and  C_3 
REMARK    2  A    between atoms: C_4  and  O_5 
REMARK    3  A    between atoms: C_9  and  C_10 
REMARK    4  A    between atoms: C_10  and  N_11 
REMARK    5  A    between atoms: C_14  and  C_15 
REMARK    6  A    between atoms: C_15  and  N_16 
REMARK    7  A    between atoms: N_16  and  C_17 
ROOT
HETATM    1  N   UNL     1      43.728 -17.918   5.775  1.00  0.00    -0.067 N 
HETATM    2  H   UNL     1      44.039 -18.878   5.992  1.00  0.00     0.280 HD
HETATM    3  C   UNL     1      42.253 -17.852   6.116  1.00  0.00     0.241 C 
HETATM    4  C   UNL     1      42.091 -16.603   6.982  1.00  0.00     0.031 C 
HETATM    5  C   UNL     1      43.419 -16.566   7.736  1.00  0.00     0.035 C 
HETATM    6  C   UNL     1      44.465 -16.988   6.716  1.00  0.00     0.235 C 
ENDROOT
BRANCH   1   7
HETATM    7  C   UNL     1      44.106 -17.717   4.323  1.00  0.00     0.274 C 
BRANCH   7   8
HETATM    8  C   UNL     1      44.094 -18.978   3.500  1.00  0.00    -0.012 A 
HETATM    9  C   UNL     1      43.754 -18.984   2.135  1.00  0.00     0.021 A 
HETATM   10  C   UNL     1      43.758 -20.172   1.408  1.00  0.00     0.059 A 
HETATM   11 BR   UNL     1      43.293 -17.388   1.213  1.00  0.00    -0.050 Br
HETATM   12  C   UNL     1      44.119 -21.356   2.040  1.00  0.00     0.100 A 
HETATM   13  C   UNL     1      44.481 -21.387   3.388  1.00  0.00     0.101 A 
HETATM   14  C   UNL     1      44.450 -20.200   4.118  1.00  0.00     0.049 A 
BRANCH  12  15
HETATM   15  O   UNL     1      44.120 -22.500   1.293  1.00  0.00    -0.358 OA
HETATM   16  H   UNL     1      45.050 -22.672   1.044  1.00  0.00     0.218 HD
ENDBRANCH  12  15
BRANCH  13  17
HETATM   17  O   UNL     1      44.830 -22.620   3.867  1.00  0.00    -0.353 OA
HETATM   18  C   UNL     1      45.238 -22.704   5.227  1.00  0.00     0.210 C 
ENDBRANCH  13  17
ENDBRANCH   7   8
ENDBRANCH   1   7
BRANCH   4  19
HETATM   19  C   UNL     1      41.812 -15.356   6.122  1.00  0.00     0.127 C 
BRANCH  19  20
HETATM   20  N   UNL     1      40.403 -14.962   6.200  1.00  0.00    -0.376 N 
HETATM   21  H   UNL     1      39.759 -15.729   6.373  1.00  0.00     0.161 HD
BRANCH  20  22
HETATM   22  C   UNL     1      39.932 -13.942   5.379  1.00  0.00     0.100 A 
HETATM   23  N   UNL     1      39.958 -14.125   4.046  1.00  0.00    -0.353 N 
HETATM   24  H   UNL     1      40.316 -15.005   3.686  1.00  0.00     0.166 HD
HETATM   25  C   UNL     1      39.523 -13.215   3.158  1.00  0.00     0.089 A 
HETATM   26  C   UNL     1      38.996 -12.012   3.596  1.00  0.00     0.017 A 
HETATM   27  C   UNL     1      38.917 -11.776   4.960  1.00  0.00     0.005 A 
HETATM   28  C   UNL     1      39.378 -12.743   5.852  1.00  0.00     0.048 A 
ENDBRANCH  20  22
ENDBRANCH  19  20
ENDBRANCH   4  19
TORSDOF 7
ENDMDL
