MODEL 1
REMARK VINA RESULT:      -9.3      0.000      0.000
REMARK  7 active torsions:
REMARK  status: ('A' for Active; 'I' for Inactive)
REMARK    1  A    between atoms: C_6  and  O_7 
REMARK    2  A    between atoms: O_7  and  C_8 
REMARK    3  A    between atoms: C_8  and  C_9 
REMARK       I    between atoms: C_9  and  N_10 
REMARK    4  A    between atoms: N_10  and  C_11 
REMARK    5  A    between atoms: C_14  and  N_15 
REMARK    6  A    between atoms: N_18  and  C_20 
REMARK    7  A    between atoms: C_20  and  C_21 
ROOT
HETATM    1  C   UNL     1      40.337 -11.541   6.618  1.00  0.00     0.034 A 
HETATM    2  C   UNL     1      41.683 -11.738   6.324  1.00  0.00     0.032 A 
HETATM    3  C   UNL     1      42.094 -12.904   5.670  1.00  0.00     0.031 A 
HETATM    4  C   UNL     1      41.176 -13.887   5.277  1.00  0.00     0.030 A 
HETATM    5  C   UNL     1      39.831 -13.692   5.608  1.00  0.00     0.031 A 
HETATM    6  C   UNL     1      39.419 -12.543   6.298  1.00  0.00     0.032 A 
ENDROOT
BRANCH   1   7
HETATM    7  N   UNL     1      39.868 -10.401   7.285  1.00  0.00    -0.325 N 
HETATM    8  C   UNL     1      39.574 -10.210   8.613  1.00  0.00     0.246 C 
HETATM    9  O   UNL     1      38.926  -9.210   8.931  1.00  0.00    -0.271 OA
HETATM   10  H   UNL     1      39.699  -9.570   6.729  1.00  0.00     0.169 HD
BRANCH   8  11
HETATM   11  C   UNL     1      40.184 -11.136   9.669  1.00  0.00     0.278 C 
BRANCH  11  12
HETATM   12  O   UNL     1      41.521 -10.786   9.992  1.00  0.00    -0.342 OA
BRANCH  12  13
HETATM   13  C   UNL     1      41.722 -10.410  11.300  1.00  0.00     0.075 A 
HETATM   14  C   UNL     1      43.052 -10.215  11.707  1.00  0.00    -0.028 A 
HETATM   15  C   UNL     1      43.318  -9.813  13.028  1.00  0.00     0.016 A 
HETATM   16  C   UNL     1      44.193 -10.445  10.755  1.00  0.00     0.051 C 
HETATM   17  C   UNL     1      42.278  -9.591  13.939  1.00  0.00    -0.061 A 
HETATM   18  C   UNL     1      42.572  -9.204  15.358  1.00  0.00     0.048 C 
HETATM   19  C   UNL     1      40.961  -9.790  13.521  1.00  0.00     0.009 A 
HETATM   20  C   UNL     1      40.683 -10.185  12.211  1.00  0.00     0.038 A 
ENDBRANCH  12  13
ENDBRANCH  11  12
ENDBRANCH   8  11
ENDBRANCH   1   7
BRANCH   4  21
HETATM   21  N   UNL     1      41.653 -14.996   4.574  1.00  0.00    -0.378 N 
HETATM   22  C   UNL     1      43.062 -14.875   4.155  1.00  0.00     0.150 C 
HETATM   23  C   UNL     1      43.341 -15.864   3.005  1.00  0.00     0.255 C 
HETATM   24  N   UNL     1      42.929 -17.295   3.380  1.00  0.00    -0.064 N 
HETATM   25  H   UNL     1      43.558 -17.596   4.133  1.00  0.00     0.280 HD
HETATM   26  C   UNL     1      41.496 -17.347   3.915  1.00  0.00     0.255 C 
HETATM   27  C   UNL     1      41.286 -16.333   5.059  1.00  0.00     0.150 C 
BRANCH  24  28
HETATM   28  C   UNL     1      43.103 -18.261   2.231  1.00  0.00     0.273 C 
BRANCH  28  29
HETATM   29  C   UNL     1      43.674 -19.587   2.648  1.00  0.00    -0.033 A 
HETATM   30  C   UNL     1      43.550 -20.709   1.815  1.00  0.00     0.009 A 
HETATM   31  C   UNL     1      44.060 -21.946   2.216  1.00  0.00     0.001 A 
HETATM   32  C   UNL     1      44.693 -22.073   3.450  1.00  0.00     0.000 A 
HETATM   33  C   UNL     1      44.825 -20.966   4.284  1.00  0.00     0.001 A 
HETATM   34  C   UNL     1      44.319 -19.727   3.887  1.00  0.00     0.009 A 
ENDBRANCH  28  29
ENDBRANCH  24  28
ENDBRANCH   4  21
TORSDOF 7
ENDMDL
MODEL 2
REMARK VINA RESULT:      -9.3      5.395      9.423
REMARK  7 active torsions:
REMARK  status: ('A' for Active; 'I' for Inactive)
REMARK    1  A    between atoms: C_6  and  O_7 
REMARK    2  A    between atoms: O_7  and  C_8 
REMARK    3  A    between atoms: C_8  and  C_9 
REMARK       I    between atoms: C_9  and  N_10 
REMARK    4  A    between atoms: N_10  and  C_11 
REMARK    5  A    between atoms: C_14  and  N_15 
REMARK    6  A    between atoms: N_18  and  C_20 
REMARK    7  A    between atoms: C_20  and  C_21 
ROOT
HETATM    1  C   UNL     1      42.600 -15.167   5.998  1.00  0.00     0.034 A 
HETATM    2  C   UNL     1      41.323 -15.512   5.565  1.00  0.00     0.032 A 
HETATM    3  C   UNL     1      40.837 -15.016   4.351  1.00  0.00     0.031 A 
HETATM    4  C   UNL     1      41.616 -14.186   3.533  1.00  0.00     0.030 A 
HETATM    5  C   UNL     1      42.885 -13.822   3.995  1.00  0.00     0.031 A 
HETATM    6  C   UNL     1      43.361 -14.284   5.230  1.00  0.00     0.032 A 
ENDROOT
BRANCH   1   7
HETATM    7  N   UNL     1      43.135 -15.620   7.211  1.00  0.00    -0.325 N 
HETATM    8  C   UNL     1      43.281 -16.899   7.692  1.00  0.00     0.246 C 
HETATM    9  O   UNL     1      43.532 -17.049   8.891  1.00  0.00    -0.271 OA
HETATM   10  H   UNL     1      43.468 -14.922   7.867  1.00  0.00     0.169 HD
BRANCH   8  11
HETATM   11  C   UNL     1      43.292 -18.082   6.720  1.00  0.00     0.278 C 
BRANCH  11  12
HETATM   12  O   UNL     1      44.255 -17.928   5.688  1.00  0.00    -0.342 OA
BRANCH  12  13
HETATM   13  C   UNL     1      44.308 -18.964   4.785  1.00  0.00     0.075 A 
HETATM   14  C   UNL     1      43.974 -18.663   3.455  1.00  0.00    -0.028 A 
HETATM   15  C   UNL     1      44.027 -19.679   2.483  1.00  0.00     0.016 A 
HETATM   16  C   UNL     1      43.547 -17.277   3.059  1.00  0.00     0.051 C 
HETATM   17  C   UNL     1      44.419 -20.980   2.818  1.00  0.00    -0.061 A 
HETATM   18  C   UNL     1      44.432 -22.067   1.785  1.00  0.00     0.048 C 
HETATM   19  C   UNL     1      44.748 -21.265   4.144  1.00  0.00     0.009 A 
HETATM   20  C   UNL     1      44.703 -20.265   5.118  1.00  0.00     0.038 A 
ENDBRANCH  12  13
ENDBRANCH  11  12
ENDBRANCH   8  11
ENDBRANCH   1   7
BRANCH   4  21
HETATM   21  N   UNL     1      41.087 -13.780   2.306  1.00  0.00    -0.378 N 
HETATM   22  C   UNL     1      40.281 -14.815   1.632  1.00  0.00     0.150 C 
HETATM   23  C   UNL     1      40.168 -14.479   0.130  1.00  0.00     0.255 C 
HETATM   24  N   UNL     1      39.648 -13.051  -0.090  1.00  0.00    -0.064 N 
HETATM   25  H   UNL     1      38.679 -13.034   0.249  1.00  0.00     0.280 HD
HETATM   26  C   UNL     1      40.447 -12.028   0.721  1.00  0.00     0.255 C 
HETATM   27  C   UNL     1      40.522 -12.427   2.210  1.00  0.00     0.150 C 
BRANCH  24  28
HETATM   28  C   UNL     1      39.623 -12.670  -1.552  1.00  0.00     0.273 C 
BRANCH  28  29
HETATM   29  C   UNL     1      39.196 -13.793  -2.455  1.00  0.00    -0.033 A 
HETATM   30  C   UNL     1      37.835 -14.073  -2.648  1.00  0.00     0.009 A 
HETATM   31  C   UNL     1      37.443 -15.133  -3.469  1.00  0.00     0.001 A 
HETATM   32  C   UNL     1      38.403 -15.921  -4.099  1.00  0.00     0.000 A 
HETATM   33  C   UNL     1      39.757 -15.650  -3.917  1.00  0.00     0.001 A 
HETATM   34  C   UNL     1      40.154 -14.590  -3.100  1.00  0.00     0.009 A 
ENDBRANCH  28  29
ENDBRANCH  24  28
ENDBRANCH   4  21
TORSDOF 7
ENDMDL
MODEL 3
REMARK VINA RESULT:      -9.1      5.565      9.767
REMARK  7 active torsions:
REMARK  status: ('A' for Active; 'I' for Inactive)
REMARK    1  A    between atoms: C_6  and  O_7 
REMARK    2  A    between atoms: O_7  and  C_8 
REMARK    3  A    between atoms: C_8  and  C_9 
REMARK       I    between atoms: C_9  and  N_10 
REMARK    4  A    between atoms: N_10  and  C_11 
REMARK    5  A    between atoms: C_14  and  N_15 
REMARK    6  A    between atoms: N_18  and  C_20 
REMARK    7  A    between atoms: C_20  and  C_21 
ROOT
HETATM    1  C   UNL     1      42.506 -15.666   5.658  1.00  0.00     0.034 A 
HETATM    2  C   UNL     1      43.253 -14.910   4.760  1.00  0.00     0.032 A 
HETATM    3  C   UNL     1      42.838 -14.788   3.430  1.00  0.00     0.031 A 
HETATM    4  C   UNL     1      41.661 -15.395   2.972  1.00  0.00     0.030 A 
HETATM    5  C   UNL     1      40.936 -16.178   3.876  1.00  0.00     0.031 A 
HETATM    6  C   UNL     1      41.370 -16.336   5.200  1.00  0.00     0.032 A 
ENDROOT
BRANCH   1   7
HETATM    7  N   UNL     1      42.881 -15.837   6.998  1.00  0.00    -0.325 N 
HETATM    8  C   UNL     1      43.560 -16.866   7.603  1.00  0.00     0.246 C 
HETATM    9  O   UNL     1      43.547 -16.932   8.835  1.00  0.00    -0.271 OA
HETATM   10  H   UNL     1      42.619 -15.110   7.654  1.00  0.00     0.169 HD
BRANCH   8  11
HETATM   11  C   UNL     1      44.436 -17.799   6.762  1.00  0.00     0.278 C 
BRANCH  11  12
HETATM   12  O   UNL     1      43.838 -19.070   6.559  1.00  0.00    -0.342 OA
BRANCH  12  13
HETATM   13  C   UNL     1      44.015 -19.599   5.303  1.00  0.00     0.075 A 
HETATM   14  C   UNL     1      44.316 -20.969   5.229  1.00  0.00    -0.028 A 
HETATM   15  C   UNL     1      44.490 -21.571   3.969  1.00  0.00     0.016 A 
HETATM   16  C   UNL     1      44.470 -21.796   6.475  1.00  0.00     0.051 C 
HETATM   17  C   UNL     1      44.354 -20.830   2.790  1.00  0.00    -0.061 A 
HETATM   18  C   UNL     1      44.583 -21.469   1.452  1.00  0.00     0.048 C 
HETATM   19  C   UNL     1      44.055 -19.469   2.878  1.00  0.00     0.009 A 
HETATM   20  C   UNL     1      43.876 -18.861   4.122  1.00  0.00     0.038 A 
ENDBRANCH  12  13
ENDBRANCH  11  12
ENDBRANCH   8  11
ENDBRANCH   1   7
BRANCH   4  21
HETATM   21  N   UNL     1      41.277 -15.178   1.646  1.00  0.00    -0.378 N 
HETATM   22  C   UNL     1      41.263 -16.401   0.823  1.00  0.00     0.150 C 
HETATM   23  C   UNL     1      41.321 -16.014  -0.670  1.00  0.00     0.255 C 
HETATM   24  N   UNL     1      40.219 -15.010  -1.036  1.00  0.00    -0.064 N 
HETATM   25  H   UNL     1      39.325 -15.504  -0.936  1.00  0.00     0.280 HD
HETATM   26  C   UNL     1      40.204 -13.815  -0.080  1.00  0.00     0.255 C 
HETATM   27  C   UNL     1      40.147 -14.274   1.392  1.00  0.00     0.150 C 
BRANCH  24  28
HETATM   28  C   UNL     1      40.321 -14.544  -2.470  1.00  0.00     0.273 C 
BRANCH  28  29
HETATM   29  C   UNL     1      38.997 -14.156  -3.066  1.00  0.00    -0.033 A 
HETATM   30  C   UNL     1      38.097 -15.139  -3.503  1.00  0.00     0.009 A 
HETATM   31  C   UNL     1      36.878 -14.775  -4.079  1.00  0.00     0.001 A 
HETATM   32  C   UNL     1      36.550 -13.429  -4.226  1.00  0.00     0.000 A 
HETATM   33  C   UNL     1      37.435 -12.444  -3.794  1.00  0.00     0.001 A 
HETATM   34  C   UNL     1      38.653 -12.803  -3.215  1.00  0.00     0.009 A 
ENDBRANCH  28  29
ENDBRANCH  24  28
ENDBRANCH   4  21
TORSDOF 7
ENDMDL
MODEL 4
REMARK VINA RESULT:      -9.0      3.509     10.105
REMARK  7 active torsions:
REMARK  status: ('A' for Active; 'I' for Inactive)
REMARK    1  A    between atoms: C_6  and  O_7 
REMARK    2  A    between atoms: O_7  and  C_8 
REMARK    3  A    between atoms: C_8  and  C_9 
REMARK       I    between atoms: C_9  and  N_10 
REMARK    4  A    between atoms: N_10  and  C_11 
REMARK    5  A    between atoms: C_14  and  N_15 
REMARK    6  A    between atoms: N_18  and  C_20 
REMARK    7  A    between atoms: C_20  and  C_21 
ROOT
HETATM    1  C   UNL     1      40.443 -14.412   1.842  1.00  0.00     0.034 A 
HETATM    2  C   UNL     1      41.130 -13.209   1.976  1.00  0.00     0.032 A 
HETATM    3  C   UNL     1      41.156 -12.552   3.210  1.00  0.00     0.031 A 
HETATM    4  C   UNL     1      40.520 -13.085   4.339  1.00  0.00     0.030 A 
HETATM    5  C   UNL     1      39.805 -14.277   4.182  1.00  0.00     0.031 A 
HETATM    6  C   UNL     1      39.743 -14.920   2.938  1.00  0.00     0.032 A 
ENDROOT
BRANCH   1   7
HETATM    7  N   UNL     1      40.368 -15.108   0.628  1.00  0.00    -0.325 N 
HETATM    8  C   UNL     1      41.309 -15.879  -0.011  1.00  0.00     0.246 C 
HETATM    9  O   UNL     1      41.119 -16.177  -1.193  1.00  0.00    -0.271 OA
HETATM   10  H   UNL     1      39.500 -15.049   0.106  1.00  0.00     0.169 HD
BRANCH   8  11
HETATM   11  C   UNL     1      42.472 -16.477   0.787  1.00  0.00     0.278 C 
BRANCH  11  12
HETATM   12  O   UNL     1      42.075 -17.587   1.577  1.00  0.00    -0.342 OA
BRANCH  12  13
HETATM   13  C   UNL     1      42.746 -17.719   2.770  1.00  0.00     0.075 A 
HETATM   14  C   UNL     1      43.431 -18.927   2.981  1.00  0.00    -0.028 A 
HETATM   15  C   UNL     1      44.151 -19.112   4.175  1.00  0.00     0.016 A 
HETATM   16  C   UNL     1      43.391 -20.028   1.958  1.00  0.00     0.051 C 
HETATM   17  C   UNL     1      44.208 -18.108   5.148  1.00  0.00    -0.061 A 
HETATM   18  C   UNL     1      44.942 -18.329   6.437  1.00  0.00     0.048 C 
HETATM   19  C   UNL     1      43.522 -16.913   4.925  1.00  0.00     0.009 A 
HETATM   20  C   UNL     1      42.806 -16.714   3.742  1.00  0.00     0.038 A 
ENDBRANCH  12  13
ENDBRANCH  11  12
ENDBRANCH   8  11
ENDBRANCH   1   7
BRANCH   4  21
HETATM   21  N   UNL     1      40.641 -12.403   5.552  1.00  0.00    -0.378 N 
HETATM   22  C   UNL     1      39.564 -12.702   6.514  1.00  0.00     0.150 C 
HETATM   23  C   UNL     1      39.496 -11.581   7.572  1.00  0.00     0.255 C 
HETATM   24  N   UNL     1      40.862 -11.343   8.229  1.00  0.00    -0.064 N 
HETATM   25  H   UNL     1      41.082 -12.188   8.768  1.00  0.00     0.280 HD
HETATM   26  C   UNL     1      41.965 -11.151   7.185  1.00  0.00     0.255 C 
HETATM   27  C   UNL     1      41.975 -12.304   6.160  1.00  0.00     0.150 C 
BRANCH  24  28
HETATM   28  C   UNL     1      40.838 -10.182   9.197  1.00  0.00     0.273 C 
BRANCH  28  29
HETATM   29  C   UNL     1      41.555 -10.466  10.487  1.00  0.00    -0.033 A 
HETATM   30  C   UNL     1      40.880 -11.068  11.559  1.00  0.00     0.009 A 
HETATM   31  C   UNL     1      41.543 -11.308  12.765  1.00  0.00     0.001 A 
HETATM   32  C   UNL     1      42.881 -10.948  12.910  1.00  0.00     0.000 A 
HETATM   33  C   UNL     1      43.562 -10.353  11.851  1.00  0.00     0.001 A 
HETATM   34  C   UNL     1      42.905 -10.113  10.644  1.00  0.00     0.009 A 
ENDBRANCH  28  29
ENDBRANCH  24  28
ENDBRANCH   4  21
TORSDOF 7
ENDMDL
MODEL 5
REMARK VINA RESULT:      -8.9      5.298      9.781
REMARK  7 active torsions:
REMARK  status: ('A' for Active; 'I' for Inactive)
REMARK    1  A    between atoms: C_6  and  O_7 
REMARK    2  A    between atoms: O_7  and  C_8 
REMARK    3  A    between atoms: C_8  and  C_9 
REMARK       I    between atoms: C_9  and  N_10 
REMARK    4  A    between atoms: N_10  and  C_11 
REMARK    5  A    between atoms: C_14  and  N_15 
REMARK    6  A    between atoms: N_18  and  C_20 
REMARK    7  A    between atoms: C_20  and  C_21 
ROOT
HETATM    1  C   UNL     1      42.884 -15.247   6.389  1.00  0.00     0.034 A 
HETATM    2  C   UNL     1      41.575 -15.423   5.950  1.00  0.00     0.032 A 
HETATM    3  C   UNL     1      41.120 -14.746   4.814  1.00  0.00     0.031 A 
HETATM    4  C   UNL     1      41.961 -13.899   4.079  1.00  0.00     0.030 A 
HETATM    5  C   UNL     1      43.264 -13.706   4.550  1.00  0.00     0.031 A 
HETATM    6  C   UNL     1      43.713 -14.351   5.711  1.00  0.00     0.032 A 
ENDROOT
BRANCH   1   7
HETATM    7  N   UNL     1      43.391 -15.886   7.529  1.00  0.00    -0.325 N 
HETATM    8  C   UNL     1      43.429 -17.220   7.854  1.00  0.00     0.246 C 
HETATM    9  O   UNL     1      43.680 -17.533   9.020  1.00  0.00    -0.271 OA
HETATM   10  H   UNL     1      43.794 -15.302   8.254  1.00  0.00     0.169 HD
BRANCH   8  11
HETATM   11  C   UNL     1      43.322 -18.276   6.750  1.00  0.00     0.278 C 
BRANCH  11  12
HETATM   12  O   UNL     1      44.381 -18.188   5.808  1.00  0.00    -0.342 OA
BRANCH  12  13
HETATM   13  C   UNL     1      44.344 -19.126   4.804  1.00  0.00     0.075 A 
HETATM   14  C   UNL     1      43.945 -18.680   3.534  1.00  0.00    -0.028 A 
HETATM   15  C   UNL     1      43.905 -19.592   2.463  1.00  0.00     0.016 A 
HETATM   16  C   UNL     1      43.546 -17.249   3.307  1.00  0.00     0.051 C 
HETATM   17  C   UNL     1      44.270 -20.931   2.641  1.00  0.00    -0.061 A 
HETATM   18  C   UNL     1      44.184 -21.907   1.505  1.00  0.00     0.048 C 
HETATM   19  C   UNL     1      44.664 -21.361   3.909  1.00  0.00     0.009 A 
HETATM   20  C   UNL     1      44.712 -20.465   4.980  1.00  0.00     0.038 A 
ENDBRANCH  12  13
ENDBRANCH  11  12
ENDBRANCH   8  11
ENDBRANCH   1   7
BRANCH   4  21
HETATM   21  N   UNL     1      41.455 -13.306   2.921  1.00  0.00    -0.378 N 
HETATM   22  C   UNL     1      42.336 -13.444   1.747  1.00  0.00     0.150 C 
HETATM   23  C   UNL     1      41.961 -12.377   0.697  1.00  0.00     0.255 C 
HETATM   24  N   UNL     1      40.466 -12.423   0.355  1.00  0.00    -0.064 N 
HETATM   25  H   UNL     1      40.299 -13.317  -0.120  1.00  0.00     0.280 HD
HETATM   26  C   UNL     1      39.598 -12.392   1.615  1.00  0.00     0.255 C 
HETATM   27  C   UNL     1      40.027 -13.481   2.621  1.00  0.00     0.150 C 
BRANCH  24  28
HETATM   28  C   UNL     1      40.061 -11.322  -0.598  1.00  0.00     0.273 C 
BRANCH  28  29
HETATM   29  C   UNL     1      40.875 -11.297  -1.860  1.00  0.00    -0.033 A 
HETATM   30  C   UNL     1      41.641 -10.169  -2.191  1.00  0.00     0.009 A 
HETATM   31  C   UNL     1      42.378 -10.139  -3.377  1.00  0.00     0.001 A 
HETATM   32  C   UNL     1      42.352 -11.230  -4.243  1.00  0.00     0.000 A 
HETATM   33  C   UNL     1      41.598 -12.356  -3.924  1.00  0.00     0.001 A 
HETATM   34  C   UNL     1      40.862 -12.392  -2.738  1.00  0.00     0.009 A 
ENDBRANCH  28  29
ENDBRANCH  24  28
ENDBRANCH   4  21
TORSDOF 7
ENDMDL
MODEL 6
REMARK VINA RESULT:      -8.8      3.273     10.556
REMARK  7 active torsions:
REMARK  status: ('A' for Active; 'I' for Inactive)
REMARK    1  A    between atoms: C_6  and  O_7 
REMARK    2  A    between atoms: O_7  and  C_8 
REMARK    3  A    between atoms: C_8  and  C_9 
REMARK       I    between atoms: C_9  and  N_10 
REMARK    4  A    between atoms: N_10  and  C_11 
REMARK    5  A    between atoms: C_14  and  N_15 
REMARK    6  A    between atoms: N_18  and  C_20 
REMARK    7  A    between atoms: C_20  and  C_21 
ROOT
HETATM    1  C   UNL     1      40.525 -14.000   2.171  1.00  0.00     0.034 A 
HETATM    2  C   UNL     1      39.810 -14.459   3.273  1.00  0.00     0.032 A 
HETATM    3  C   UNL     1      39.926 -13.806   4.505  1.00  0.00     0.031 A 
HETATM    4  C   UNL     1      40.737 -12.674   4.661  1.00  0.00     0.030 A 
HETATM    5  C   UNL     1      41.475 -12.243   3.554  1.00  0.00     0.031 A 
HETATM    6  C   UNL     1      41.393 -12.917   2.328  1.00  0.00     0.032 A 
ENDROOT
BRANCH   1   7
HETATM    7  N   UNL     1      40.461 -14.621   0.917  1.00  0.00    -0.325 N 
HETATM    8  C   UNL     1      41.342 -15.483   0.309  1.00  0.00     0.246 C 
HETATM    9  O   UNL     1      41.214 -15.696  -0.899  1.00  0.00    -0.271 OA
HETATM   10  H   UNL     1      39.656 -14.420   0.334  1.00  0.00     0.169 HD
BRANCH   8  11
HETATM   11  C   UNL     1      42.344 -16.271   1.157  1.00  0.00     0.278 C 
BRANCH  11  12
HETATM   12  O   UNL     1      41.728 -17.316   1.895  1.00  0.00    -0.342 OA
BRANCH  12  13
HETATM   13  C   UNL     1      42.599 -18.182   2.512  1.00  0.00     0.075 A 
HETATM   14  C   UNL     1      42.594 -18.193   3.917  1.00  0.00    -0.028 A 
HETATM   15  C   UNL     1      43.452 -19.071   4.603  1.00  0.00     0.016 A 
HETATM   16  C   UNL     1      41.698 -17.270   4.694  1.00  0.00     0.051 C 
HETATM   17  C   UNL     1      44.300 -19.943   3.910  1.00  0.00    -0.061 A 
HETATM   18  C   UNL     1      45.242 -20.846   4.648  1.00  0.00     0.048 C 
HETATM   19  C   UNL     1      44.295 -19.921   2.514  1.00  0.00     0.009 A 
HETATM   20  C   UNL     1      43.445 -19.056   1.820  1.00  0.00     0.038 A 
ENDBRANCH  12  13
ENDBRANCH  11  12
ENDBRANCH   8  11
ENDBRANCH   1   7
BRANCH   4  21
HETATM   21  N   UNL     1      40.755 -12.039   5.905  1.00  0.00    -0.378 N 
HETATM   22  C   UNL     1      39.646 -12.436   6.793  1.00  0.00     0.150 C 
HETATM   23  C   UNL     1      39.459 -11.366   7.889  1.00  0.00     0.255 C 
HETATM   24  N   UNL     1      40.773 -11.083   8.631  1.00  0.00    -0.064 N 
HETATM   25  H   UNL     1      41.011 -11.938   9.147  1.00  0.00     0.280 HD
HETATM   26  C   UNL     1      41.918 -10.789   7.658  1.00  0.00     0.255 C 
HETATM   27  C   UNL     1      42.047 -11.895   6.590  1.00  0.00     0.150 C 
BRANCH  24  28
HETATM   28  C   UNL     1      40.633  -9.968   9.641  1.00  0.00     0.273 C 
BRANCH  28  29
HETATM   29  C   UNL     1      41.398 -10.214  10.911  1.00  0.00    -0.033 A 
HETATM   30  C   UNL     1      40.774 -10.819  12.012  1.00  0.00     0.009 A 
HETATM   31  C   UNL     1      41.481 -11.024  13.199  1.00  0.00     0.001 A 
HETATM   32  C   UNL     1      42.812 -10.625  13.297  1.00  0.00     0.000 A 
HETATM   33  C   UNL     1      43.442 -10.026  12.209  1.00  0.00     0.001 A 
HETATM   34  C   UNL     1      42.741  -9.822  11.020  1.00  0.00     0.009 A 
ENDBRANCH  28  29
ENDBRANCH  24  28
ENDBRANCH   4  21
TORSDOF 7
ENDMDL
MODEL 7
REMARK VINA RESULT:      -8.4      5.476      8.740
REMARK  7 active torsions:
REMARK  status: ('A' for Active; 'I' for Inactive)
REMARK    1  A    between atoms: C_6  and  O_7 
REMARK    2  A    between atoms: O_7  and  C_8 
REMARK    3  A    between atoms: C_8  and  C_9 
REMARK       I    between atoms: C_9  and  N_10 
REMARK    4  A    between atoms: N_10  and  C_11 
REMARK    5  A    between atoms: C_14  and  N_15 
REMARK    6  A    between atoms: N_18  and  C_20 
REMARK    7  A    between atoms: C_20  and  C_21 
ROOT
HETATM    1  C   UNL     1      43.336 -17.399   3.572  1.00  0.00     0.034 A 
HETATM    2  C   UNL     1      43.716 -16.173   3.035  1.00  0.00     0.032 A 
HETATM    3  C   UNL     1      42.862 -15.497   2.157  1.00  0.00     0.031 A 
HETATM    4  C   UNL     1      41.606 -16.015   1.812  1.00  0.00     0.030 A 
HETATM    5  C   UNL     1      41.250 -17.263   2.333  1.00  0.00     0.031 A 
HETATM    6  C   UNL     1      42.119 -17.963   3.182  1.00  0.00     0.032 A 
ENDROOT
BRANCH   1   7
HETATM    7  N   UNL     1      44.155 -18.129   4.444  1.00  0.00    -0.325 N 
HETATM    8  C   UNL     1      44.150 -18.196   5.816  1.00  0.00     0.246 C 
HETATM    9  O   UNL     1      45.127 -18.693   6.382  1.00  0.00    -0.271 OA
HETATM   10  H   UNL     1      44.882 -18.704   4.033  1.00  0.00     0.169 HD
BRANCH   8  11
HETATM   11  C   UNL     1      42.889 -17.808   6.593  1.00  0.00     0.278 C 
BRANCH  11  12
HETATM   12  O   UNL     1      42.937 -16.474   7.076  1.00  0.00    -0.342 OA
BRANCH  12  13
HETATM   13  C   UNL     1      42.236 -15.561   6.325  1.00  0.00     0.075 A 
HETATM   14  C   UNL     1      42.914 -14.385   5.961  1.00  0.00    -0.028 A 
HETATM   15  C   UNL     1      42.254 -13.422   5.178  1.00  0.00     0.016 A 
HETATM   16  C   UNL     1      44.327 -14.137   6.411  1.00  0.00     0.051 C 
HETATM   17  C   UNL     1      40.938 -13.622   4.743  1.00  0.00    -0.061 A 
HETATM   18  C   UNL     1      40.227 -12.571   3.943  1.00  0.00     0.048 C 
HETATM   19  C   UNL     1      40.276 -14.794   5.112  1.00  0.00     0.009 A 
HETATM   20  C   UNL     1      40.922 -15.761   5.886  1.00  0.00     0.038 A 
ENDBRANCH  12  13
ENDBRANCH  11  12
ENDBRANCH   8  11
ENDBRANCH   1   7
BRANCH   4  21
HETATM   21  N   UNL     1      40.783 -15.255   0.978  1.00  0.00    -0.378 N 
HETATM   22  C   UNL     1      41.033 -15.467  -0.459  1.00  0.00     0.150 C 
HETATM   23  C   UNL     1      40.466 -14.275  -1.259  1.00  0.00     0.255 C 
HETATM   24  N   UNL     1      38.990 -14.019  -0.919  1.00  0.00    -0.064 N 
HETATM   25  H   UNL     1      38.463 -14.830  -1.263  1.00  0.00     0.280 HD
HETATM   26  C   UNL     1      38.768 -13.921   0.592  1.00  0.00     0.255 C 
HETATM   27  C   UNL     1      39.360 -15.141   1.328  1.00  0.00     0.150 C 
BRANCH  24  28
HETATM   28  C   UNL     1      38.445 -12.795  -1.619  1.00  0.00     0.273 C 
BRANCH  28  29
HETATM   29  C   UNL     1      37.555 -13.121  -2.784  1.00  0.00    -0.033 A 
HETATM   30  C   UNL     1      37.491 -14.430  -3.287  1.00  0.00     0.009 A 
HETATM   31  C   UNL     1      36.681 -14.724  -4.386  1.00  0.00     0.001 A 
HETATM   32  C   UNL     1      35.933 -13.718  -4.993  1.00  0.00     0.000 A 
HETATM   33  C   UNL     1      35.986 -12.417  -4.500  1.00  0.00     0.001 A 
HETATM   34  C   UNL     1      36.792 -12.117  -3.400  1.00  0.00     0.009 A 
ENDBRANCH  28  29
ENDBRANCH  24  28
ENDBRANCH   4  21
TORSDOF 7
ENDMDL
MODEL 8
REMARK VINA RESULT:      -8.4      1.707      2.695
REMARK  7 active torsions:
REMARK  status: ('A' for Active; 'I' for Inactive)
REMARK    1  A    between atoms: C_6  and  O_7 
REMARK    2  A    between atoms: O_7  and  C_8 
REMARK    3  A    between atoms: C_8  and  C_9 
REMARK       I    between atoms: C_9  and  N_10 
REMARK    4  A    between atoms: N_10  and  C_11 
REMARK    5  A    between atoms: C_14  and  N_15 
REMARK    6  A    between atoms: N_18  and  C_20 
REMARK    7  A    between atoms: C_20  and  C_21 
ROOT
HETATM    1  C   UNL     1      39.725 -11.371   5.209  1.00  0.00     0.034 A 
HETATM    2  C   UNL     1      40.836 -11.475   4.377  1.00  0.00     0.032 A 
HETATM    3  C   UNL     1      41.572 -12.664   4.337  1.00  0.00     0.031 A 
HETATM    4  C   UNL     1      41.208 -13.778   5.105  1.00  0.00     0.030 A 
HETATM    5  C   UNL     1      40.109 -13.650   5.960  1.00  0.00     0.031 A 
HETATM    6  C   UNL     1      39.391 -12.448   6.033  1.00  0.00     0.032 A 
ENDROOT
BRANCH   1   7
HETATM    7  N   UNL     1      38.957 -10.202   5.303  1.00  0.00    -0.325 N 
HETATM    8  C   UNL     1      39.054  -9.147   6.177  1.00  0.00     0.246 C 
HETATM    9  O   UNL     1      38.112  -8.354   6.245  1.00  0.00    -0.271 OA
HETATM   10  H   UNL     1      38.196 -10.087   4.643  1.00  0.00     0.169 HD
BRANCH   8  11
HETATM   11  C   UNL     1      40.370  -8.889   6.916  1.00  0.00     0.278 C 
BRANCH  11  12
HETATM   12  O   UNL     1      40.251  -9.073   8.319  1.00  0.00    -0.342 OA
BRANCH  12  13
HETATM   13  C   UNL     1      41.354  -9.622   8.928  1.00  0.00     0.075 A 
HETATM   14  C   UNL     1      41.591  -9.255  10.263  1.00  0.00    -0.028 A 
HETATM   15  C   UNL     1      42.695  -9.799  10.943  1.00  0.00     0.016 A 
HETATM   16  C   UNL     1      40.691  -8.278  10.967  1.00  0.00     0.051 C 
HETATM   17  C   UNL     1      43.552 -10.711  10.316  1.00  0.00    -0.061 A 
HETATM   18  C   UNL     1      44.752 -11.254  11.035  1.00  0.00     0.048 C 
HETATM   19  C   UNL     1      43.306 -11.067   8.989  1.00  0.00     0.009 A 
HETATM   20  C   UNL     1      42.210 -10.537   8.304  1.00  0.00     0.038 A 
ENDBRANCH  12  13
ENDBRANCH  11  12
ENDBRANCH   8  11
ENDBRANCH   1   7
BRANCH   4  21
HETATM   21  N   UNL     1      41.955 -14.950   4.966  1.00  0.00    -0.378 N 
HETATM   22  C   UNL     1      41.497 -16.055   5.829  1.00  0.00     0.150 C 
HETATM   23  C   UNL     1      42.630 -17.090   5.982  1.00  0.00     0.255 C 
HETATM   24  N   UNL     1      43.160 -17.552   4.617  1.00  0.00    -0.064 N 
HETATM   25  H   UNL     1      42.399 -18.072   4.166  1.00  0.00     0.280 HD
HETATM   26  C   UNL     1      43.514 -16.365   3.718  1.00  0.00     0.255 C 
HETATM   27  C   UNL     1      42.339 -15.370   3.612  1.00  0.00     0.150 C 
BRANCH  24  28
HETATM   28  C   UNL     1      44.336 -18.492   4.746  1.00  0.00     0.273 C 
BRANCH  28  29
HETATM   29  C   UNL     1      44.231 -19.705   3.866  1.00  0.00    -0.033 A 
HETATM   30  C   UNL     1      44.760 -20.935   4.283  1.00  0.00     0.009 A 
HETATM   31  C   UNL     1      44.681 -22.055   3.451  1.00  0.00     0.001 A 
HETATM   32  C   UNL     1      44.079 -21.955   2.199  1.00  0.00     0.000 A 
HETATM   33  C   UNL     1      43.547 -20.739   1.777  1.00  0.00     0.001 A 
HETATM   34  C   UNL     1      43.620 -19.618   2.605  1.00  0.00     0.009 A 
ENDBRANCH  28  29
ENDBRANCH  24  28
ENDBRANCH   4  21
TORSDOF 7
ENDMDL
MODEL 9
REMARK VINA RESULT:      -8.3      6.151      8.462
REMARK  7 active torsions:
REMARK  status: ('A' for Active; 'I' for Inactive)
REMARK    1  A    between atoms: C_6  and  O_7 
REMARK    2  A    between atoms: O_7  and  C_8 
REMARK    3  A    between atoms: C_8  and  C_9 
REMARK       I    between atoms: C_9  and  N_10 
REMARK    4  A    between atoms: N_10  and  C_11 
REMARK    5  A    between atoms: C_14  and  N_15 
REMARK    6  A    between atoms: N_18  and  C_20 
REMARK    7  A    between atoms: C_20  and  C_21 
ROOT
HETATM    1  C   UNL     1      38.754 -12.501   2.412  1.00  0.00     0.034 A 
HETATM    2  C   UNL     1      39.988 -12.486   3.056  1.00  0.00     0.032 A 
HETATM    3  C   UNL     1      40.803 -13.623   3.036  1.00  0.00     0.031 A 
HETATM    4  C   UNL     1      40.419 -14.788   2.359  1.00  0.00     0.030 A 
HETATM    5  C   UNL     1      39.163 -14.800   1.743  1.00  0.00     0.031 A 
HETATM    6  C   UNL     1      38.326 -13.677   1.795  1.00  0.00     0.032 A 
ENDROOT
BRANCH   1   7
HETATM    7  N   UNL     1      37.889 -11.398   2.412  1.00  0.00    -0.325 N 
HETATM    8  C   UNL     1      37.627 -10.478   1.426  1.00  0.00     0.246 C 
HETATM    9  O   UNL     1      37.032  -9.443   1.734  1.00  0.00    -0.271 OA
HETATM   10  H   UNL     1      37.363 -11.215   3.259  1.00  0.00     0.169 HD
BRANCH   8  11
HETATM   11  C   UNL     1      37.929 -10.822  -0.035  1.00  0.00     0.278 C 
BRANCH  11  12
HETATM   12  O   UNL     1      39.321 -10.922  -0.294  1.00  0.00    -0.342 OA
BRANCH  12  13
HETATM   13  C   UNL     1      39.708 -12.070  -0.945  1.00  0.00     0.075 A 
HETATM   14  C   UNL     1      41.036 -12.488  -0.759  1.00  0.00    -0.028 A 
HETATM   15  C   UNL     1      41.484 -13.665  -1.385  1.00  0.00     0.016 A 
HETATM   16  C   UNL     1      41.987 -11.687   0.086  1.00  0.00     0.051 C 
HETATM   17  C   UNL     1      40.624 -14.433  -2.178  1.00  0.00    -0.061 A 
HETATM   18  C   UNL     1      41.120 -15.664  -2.877  1.00  0.00     0.048 C 
HETATM   19  C   UNL     1      39.307 -14.007  -2.355  1.00  0.00     0.009 A 
HETATM   20  C   UNL     1      38.848 -12.841  -1.736  1.00  0.00     0.038 A 
ENDBRANCH  12  13
ENDBRANCH  11  12
ENDBRANCH   8  11
ENDBRANCH   1   7
BRANCH   4  21
HETATM   21  N   UNL     1      41.311 -15.862   2.330  1.00  0.00    -0.378 N 
HETATM   22  C   UNL     1      42.048 -16.058   3.592  1.00  0.00     0.150 C 
HETATM   23  C   UNL     1      43.314 -16.898   3.321  1.00  0.00     0.255 C 
HETATM   24  N   UNL     1      42.977 -18.207   2.593  1.00  0.00    -0.064 N 
HETATM   25  H   UNL     1      42.429 -18.776   3.248  1.00  0.00     0.280 HD
HETATM   26  C   UNL     1      42.115 -17.957   1.353  1.00  0.00     0.255 C 
HETATM   27  C   UNL     1      40.870 -17.112   1.695  1.00  0.00     0.150 C 
BRANCH  24  28
HETATM   28  C   UNL     1      44.214 -18.997   2.231  1.00  0.00     0.273 C 
BRANCH  28  29
HETATM   29  C   UNL     1      44.410 -20.220   3.081  1.00  0.00    -0.033 A 
HETATM   30  C   UNL     1      44.406 -21.498   2.501  1.00  0.00     0.009 A 
HETATM   31  C   UNL     1      44.565 -22.634   3.297  1.00  0.00     0.001 A 
HETATM   32  C   UNL     1      44.725 -22.505   4.675  1.00  0.00     0.000 A 
HETATM   33  C   UNL     1      44.734 -21.242   5.260  1.00  0.00     0.001 A 
HETATM   34  C   UNL     1      44.579 -20.103   4.470  1.00  0.00     0.009 A 
ENDBRANCH  28  29
ENDBRANCH  24  28
ENDBRANCH   4  21
TORSDOF 7
ENDMDL
MODEL 10
REMARK VINA RESULT:      -8.3      5.273     10.138
REMARK  7 active torsions:
REMARK  status: ('A' for Active; 'I' for Inactive)
REMARK    1  A    between atoms: C_6  and  O_7 
REMARK    2  A    between atoms: O_7  and  C_8 
REMARK    3  A    between atoms: C_8  and  C_9 
REMARK       I    between atoms: C_9  and  N_10 
REMARK    4  A    between atoms: N_10  and  C_11 
REMARK    5  A    between atoms: C_14  and  N_15 
REMARK    6  A    between atoms: N_18  and  C_20 
REMARK    7  A    between atoms: C_20  and  C_21 
ROOT
HETATM    1  C   UNL     1      42.050 -14.921   5.875  1.00  0.00     0.034 A 
HETATM    2  C   UNL     1      42.567 -14.342   4.720  1.00  0.00     0.032 A 
HETATM    3  C   UNL     1      41.708 -13.931   3.696  1.00  0.00     0.031 A 
HETATM    4  C   UNL     1      40.317 -14.066   3.808  1.00  0.00     0.030 A 
HETATM    5  C   UNL     1      39.812 -14.679   4.959  1.00  0.00     0.031 A 
HETATM    6  C   UNL     1      40.672 -15.129   5.971  1.00  0.00     0.032 A 
ENDROOT
BRANCH   1   7
HETATM    7  N   UNL     1      42.862 -15.366   6.927  1.00  0.00    -0.325 N 
HETATM    8  C   UNL     1      43.210 -16.642   7.298  1.00  0.00     0.246 C 
HETATM    9  O   UNL     1      43.717 -16.811   8.410  1.00  0.00    -0.271 OA
HETATM   10  H   UNL     1      43.267 -14.664   7.535  1.00  0.00     0.169 HD
BRANCH   8  11
HETATM   11  C   UNL     1      43.112 -17.784   6.283  1.00  0.00     0.278 C 
BRANCH  11  12
HETATM   12  O   UNL     1      44.094 -17.689   5.263  1.00  0.00    -0.342 OA
BRANCH  12  13
HETATM   13  C   UNL     1      44.148 -18.765   4.408  1.00  0.00     0.075 A 
HETATM   14  C   UNL     1      43.668 -18.564   3.104  1.00  0.00    -0.028 A 
HETATM   15  C   UNL     1      43.714 -19.624   2.180  1.00  0.00     0.016 A 
HETATM   16  C   UNL     1      43.092 -17.239   2.688  1.00  0.00     0.051 C 
HETATM   17  C   UNL     1      44.243 -20.870   2.535  1.00  0.00    -0.061 A 
HETATM   18  C   UNL     1      44.250 -22.007   1.558  1.00  0.00     0.048 C 
HETATM   19  C   UNL     1      44.716 -21.056   3.835  1.00  0.00     0.009 A 
HETATM   20  C   UNL     1      44.680 -20.011   4.761  1.00  0.00     0.038 A 
ENDBRANCH  12  13
ENDBRANCH  11  12
ENDBRANCH   8  11
ENDBRANCH   1   7
BRANCH   4  21
HETATM   21  N   UNL     1      39.519 -13.577   2.771  1.00  0.00    -0.378 N 
HETATM   22  C   UNL     1      39.981 -12.289   2.221  1.00  0.00     0.150 C 
HETATM   23  C   UNL     1      38.817 -11.606   1.472  1.00  0.00     0.255 C 
HETATM   24  N   UNL     1      38.197 -12.539   0.423  1.00  0.00    -0.064 N 
HETATM   25  H   UNL     1      38.911 -12.689  -0.299  1.00  0.00     0.280 HD
HETATM   26  C   UNL     1      37.840 -13.902   1.021  1.00  0.00     0.255 C 
HETATM   27  C   UNL     1      39.045 -14.526   1.755  1.00  0.00     0.150 C 
BRANCH  24  28
HETATM   28  C   UNL     1      36.993 -11.923  -0.253  1.00  0.00     0.273 C 
BRANCH  28  29
HETATM   29  C   UNL     1      37.203 -11.654  -1.716  1.00  0.00    -0.033 A 
HETATM   30  C   UNL     1      36.123 -11.296  -2.536  1.00  0.00     0.009 A 
HETATM   31  C   UNL     1      36.317 -11.070  -3.901  1.00  0.00     0.001 A 
HETATM   32  C   UNL     1      37.587 -11.202  -4.457  1.00  0.00     0.000 A 
HETATM   33  C   UNL     1      38.667 -11.553  -3.652  1.00  0.00     0.001 A 
HETATM   34  C   UNL     1      38.479 -11.778  -2.287  1.00  0.00     0.009 A 
ENDBRANCH  28  29
ENDBRANCH  24  28
ENDBRANCH   4  21
TORSDOF 7
ENDMDL
