MODEL 1
REMARK VINA RESULT:      -8.8      0.000      0.000
REMARK  6 active torsions:
REMARK  status: ('A' for Active; 'I' for Inactive)
REMARK    1  A    between atoms: N_4  and  C_5 
REMARK    2  A    between atoms: C_13  and  C_14 
REMARK       I    between atoms: C_14  and  N_15 
REMARK    3  A    between atoms: N_15  and  C_16 
REMARK    4  A    between atoms: C_16  and  C_17 
REMARK    5  A    between atoms: C_17  and  O_18 
REMARK    6  A    between atoms: C_17  and  C_19 
ROOT
HETATM    1  C   UNL     1      44.601 -13.025   8.027  1.00  0.00     0.257 C 
HETATM    2  N   UNL     1      43.842 -14.011   7.443  1.00  0.00    -0.354 N 
HETATM    3  O   UNL     1      45.792 -12.906   7.747  1.00  0.00    -0.267 OA
HETATM    4  H   UNL     1      42.865 -14.093   7.698  1.00  0.00     0.162 HD
ENDROOT
BRANCH   1   5
HETATM    5  C   UNL     1      43.935 -12.132   8.959  1.00  0.00     0.098 C 
HETATM    6  C   UNL     1      42.874 -11.240   8.648  1.00  0.00     0.070 C 
HETATM    7  C   UNL     1      42.219 -11.018   7.330  1.00  0.00     0.073 C 
HETATM    8  N   UNL     1      42.492 -10.515   9.701  1.00  0.00    -0.170 NA
HETATM    9  N   UNL     1      43.213 -10.992  10.754  1.00  0.00    -0.221 N 
HETATM   10  C   UNL     1      44.162 -11.899  10.302  1.00  0.00     0.145 C 
HETATM   11 CL   UNL     1      45.436 -12.472  11.291  1.00  0.00    -0.061 Cl
BRANCH   9  12
HETATM   12  C   UNL     1      42.877 -10.525  12.065  1.00  0.00     0.060 A 
HETATM   13  C   UNL     1      43.673  -9.620  12.777  1.00  0.00     0.031 A 
HETATM   14  C   UNL     1      43.303  -9.214  14.065  1.00  0.00     0.002 A 
HETATM   15  C   UNL     1      42.146  -9.713  14.658  1.00  0.00     0.000 A 
HETATM   16  C   UNL     1      41.358 -10.631  13.971  1.00  0.00     0.002 A 
HETATM   17  C   UNL     1      41.724 -11.041  12.687  1.00  0.00     0.031 A 
ENDBRANCH   9  12
ENDBRANCH   1   5
BRANCH   2  18
HETATM   18  C   UNL     1      44.421 -15.019   6.561  1.00  0.00     0.159 C 
BRANCH  18  19
HETATM   19  C   UNL     1      44.186 -16.471   7.041  1.00  0.00     0.169 C 
BRANCH  19  20
HETATM   20  O   UNL     1      43.015 -16.599   7.849  1.00  0.00    -0.389 OA
HETATM   21  H   UNL     1      43.153 -16.087   8.673  1.00  0.00     0.210 HD
ENDBRANCH  19  20
BRANCH  19  22
HETATM   22  C   UNL     1      44.042 -17.411   5.860  1.00  0.00    -0.025 A 
HETATM   23  C   UNL     1      44.796 -18.592   5.797  1.00  0.00     0.053 A 
HETATM   24  C   UNL     1      44.675 -19.444   4.699  1.00  0.00     0.138 A 
HETATM   25  F   UNL     1      45.416 -20.564   4.675  1.00  0.00    -0.204 F 
HETATM   26  C   UNL     1      43.811 -19.139   3.651  1.00  0.00     0.072 A 
HETATM   27 CL   UNL     1      43.663 -20.192   2.297  1.00  0.00    -0.081 Cl
HETATM   28  C   UNL     1      43.059 -17.969   3.695  1.00  0.00     0.028 A 
HETATM   29  C   UNL     1      43.178 -17.108   4.791  1.00  0.00     0.012 A 
ENDBRANCH  19  22
ENDBRANCH  18  19
ENDBRANCH   2  18
TORSDOF 6
ENDMDL
MODEL 2
REMARK VINA RESULT:      -8.8      3.476     10.346
REMARK  6 active torsions:
REMARK  status: ('A' for Active; 'I' for Inactive)
REMARK    1  A    between atoms: N_4  and  C_5 
REMARK    2  A    between atoms: C_13  and  C_14 
REMARK       I    between atoms: C_14  and  N_15 
REMARK    3  A    between atoms: N_15  and  C_16 
REMARK    4  A    between atoms: C_16  and  C_17 
REMARK    5  A    between atoms: C_17  and  O_18 
REMARK    6  A    between atoms: C_17  and  C_19 
ROOT
HETATM    1  C   UNL     1      43.430 -15.652   6.249  1.00  0.00     0.257 C 
HETATM    2  N   UNL     1      44.463 -14.855   6.680  1.00  0.00    -0.354 N 
HETATM    3  O   UNL     1      42.284 -15.211   6.190  1.00  0.00    -0.267 OA
HETATM    4  H   UNL     1      45.396 -15.246   6.729  1.00  0.00     0.162 HD
ENDROOT
BRANCH   1   5
HETATM    5  C   UNL     1      43.754 -17.011   5.853  1.00  0.00     0.098 C 
HETATM    6  C   UNL     1      44.071 -18.084   6.729  1.00  0.00     0.070 C 
HETATM    7  C   UNL     1      44.146 -18.063   8.215  1.00  0.00     0.073 C 
HETATM    8  N   UNL     1      44.368 -19.207   6.073  1.00  0.00    -0.170 NA
HETATM    9  N   UNL     1      44.141 -18.934   4.757  1.00  0.00    -0.221 N 
HETATM   10  C   UNL     1      43.869 -17.581   4.600  1.00  0.00     0.145 C 
HETATM   11 CL   UNL     1      43.831 -16.820   3.067  1.00  0.00    -0.061 Cl
BRANCH   9  12
HETATM   12  C   UNL     1      44.197 -20.019   3.825  1.00  0.00     0.060 A 
HETATM   13  C   UNL     1      43.728 -19.916   2.510  1.00  0.00     0.031 A 
HETATM   14  C   UNL     1      43.791 -21.018   1.649  1.00  0.00     0.002 A 
HETATM   15  C   UNL     1      44.309 -22.232   2.092  1.00  0.00     0.000 A 
HETATM   16  C   UNL     1      44.756 -22.355   3.403  1.00  0.00     0.002 A 
HETATM   17  C   UNL     1      44.694 -21.259   4.267  1.00  0.00     0.031 A 
ENDBRANCH   9  12
ENDBRANCH   1   5
BRANCH   2  18
HETATM   18  C   UNL     1      44.244 -13.504   7.186  1.00  0.00     0.159 C 
BRANCH  18  19
HETATM   19  C   UNL     1      45.256 -13.079   8.278  1.00  0.00     0.169 C 
BRANCH  19  20
HETATM   20  O   UNL     1      46.454 -12.526   7.731  1.00  0.00    -0.389 OA
HETATM   21  H   UNL     1      46.457 -11.563   7.911  1.00  0.00     0.210 HD
ENDBRANCH  19  20
BRANCH  19  22
HETATM   22  C   UNL     1      44.645 -12.045   9.203  1.00  0.00    -0.025 A 
HETATM   23  C   UNL     1      43.475 -11.365   8.833  1.00  0.00     0.053 A 
HETATM   24  C   UNL     1      42.928 -10.400   9.679  1.00  0.00     0.138 A 
HETATM   25  F   UNL     1      41.809  -9.769   9.288  1.00  0.00    -0.204 F 
HETATM   26  C   UNL     1      43.528 -10.095  10.897  1.00  0.00     0.072 A 
HETATM   27 CL   UNL     1      42.851  -8.903  11.940  1.00  0.00    -0.081 Cl
HETATM   28  C   UNL     1      44.693 -10.757  11.277  1.00  0.00     0.028 A 
HETATM   29  C   UNL     1      45.249 -11.723  10.433  1.00  0.00     0.012 A 
ENDBRANCH  19  22
ENDBRANCH  18  19
ENDBRANCH   2  18
TORSDOF 6
ENDMDL
MODEL 3
REMARK VINA RESULT:      -8.6      3.907      9.875
REMARK  6 active torsions:
REMARK  status: ('A' for Active; 'I' for Inactive)
REMARK    1  A    between atoms: N_4  and  C_5 
REMARK    2  A    between atoms: C_13  and  C_14 
REMARK       I    between atoms: C_14  and  N_15 
REMARK    3  A    between atoms: N_15  and  C_16 
REMARK    4  A    between atoms: C_16  and  C_17 
REMARK    5  A    between atoms: C_17  and  O_18 
REMARK    6  A    between atoms: C_17  and  C_19 
ROOT
HETATM    1  C   UNL     1      44.632 -13.939   6.956  1.00  0.00     0.257 C 
HETATM    2  N   UNL     1      43.924 -13.320   7.958  1.00  0.00    -0.354 N 
HETATM    3  O   UNL     1      45.806 -13.641   6.745  1.00  0.00    -0.267 OA
HETATM    4  H   UNL     1      42.956 -13.577   8.106  1.00  0.00     0.162 HD
ENDROOT
BRANCH   1   5
HETATM    5  C   UNL     1      43.945 -14.961   6.186  1.00  0.00     0.098 C 
HETATM    6  C   UNL     1      43.494 -16.215   6.677  1.00  0.00     0.070 C 
HETATM    7  C   UNL     1      43.620 -16.759   8.057  1.00  0.00     0.073 C 
HETATM    8  N   UNL     1      42.934 -16.964   5.725  1.00  0.00    -0.170 NA
HETATM    9  N   UNL     1      42.900 -16.177   4.613  1.00  0.00    -0.221 N 
HETATM   10  C   UNL     1      43.599 -15.001   4.849  1.00  0.00     0.145 C 
HETATM   11 CL   UNL     1      44.024 -13.913   3.597  1.00  0.00    -0.061 Cl
BRANCH   9  12
HETATM   12  C   UNL     1      42.177 -16.654   3.473  1.00  0.00     0.060 A 
HETATM   13  C   UNL     1      42.667 -17.655   2.627  1.00  0.00     0.031 A 
HETATM   14  C   UNL     1      41.923 -18.068   1.515  1.00  0.00     0.002 A 
HETATM   15  C   UNL     1      40.693 -17.481   1.230  1.00  0.00     0.000 A 
HETATM   16  C   UNL     1      40.205 -16.468   2.050  1.00  0.00     0.002 A 
HETATM   17  C   UNL     1      40.944 -16.052   3.160  1.00  0.00     0.031 A 
ENDBRANCH   9  12
ENDBRANCH   1   5
BRANCH   2  18
HETATM   18  C   UNL     1      44.481 -12.219   8.738  1.00  0.00     0.159 C 
BRANCH  18  19
HETATM   19  C   UNL     1      44.285 -12.380  10.265  1.00  0.00     0.169 C 
BRANCH  19  20
HETATM   20  O   UNL     1      45.515 -12.603  10.956  1.00  0.00    -0.389 OA
HETATM   21  H   UNL     1      45.514 -12.057  11.769  1.00  0.00     0.210 HD
ENDBRANCH  19  20
BRANCH  19  22
HETATM   22  C   UNL     1      43.636 -11.144  10.857  1.00  0.00    -0.025 A 
HETATM   23  C   UNL     1      43.980 -10.711  12.146  1.00  0.00     0.053 A 
HETATM   24  C   UNL     1      43.366  -9.585  12.694  1.00  0.00     0.138 A 
HETATM   25  F   UNL     1      43.720  -9.203  13.932  1.00  0.00    -0.204 F 
HETATM   26  C   UNL     1      42.406  -8.875  11.978  1.00  0.00     0.072 A 
HETATM   27 CL   UNL     1      41.649  -7.485  12.657  1.00  0.00    -0.081 Cl
HETATM   28  C   UNL     1      42.049  -9.295  10.700  1.00  0.00     0.028 A 
HETATM   29  C   UNL     1      42.659 -10.425  10.145  1.00  0.00     0.012 A 
ENDBRANCH  19  22
ENDBRANCH  18  19
ENDBRANCH   2  18
TORSDOF 6
ENDMDL
MODEL 4
REMARK VINA RESULT:      -8.6      6.087      8.667
REMARK  6 active torsions:
REMARK  status: ('A' for Active; 'I' for Inactive)
REMARK    1  A    between atoms: N_4  and  C_5 
REMARK    2  A    between atoms: C_13  and  C_14 
REMARK       I    between atoms: C_14  and  N_15 
REMARK    3  A    between atoms: N_15  and  C_16 
REMARK    4  A    between atoms: C_16  and  C_17 
REMARK    5  A    between atoms: C_17  and  O_18 
REMARK    6  A    between atoms: C_17  and  C_19 
ROOT
HETATM    1  C   UNL     1      41.291 -16.790   4.765  1.00  0.00     0.257 C 
HETATM    2  N   UNL     1      42.488 -16.396   5.313  1.00  0.00    -0.354 N 
HETATM    3  O   UNL     1      40.761 -17.843   5.114  1.00  0.00    -0.267 OA
HETATM    4  H   UNL     1      42.908 -15.529   5.001  1.00  0.00     0.162 HD
ENDROOT
BRANCH   1   5
HETATM    5  C   UNL     1      40.681 -15.907   3.786  1.00  0.00     0.098 C 
HETATM    6  C   UNL     1      40.065 -14.657   4.059  1.00  0.00     0.070 C 
HETATM    7  C   UNL     1      39.901 -13.982   5.375  1.00  0.00     0.073 C 
HETATM    8  N   UNL     1      39.555 -14.090   2.963  1.00  0.00    -0.170 NA
HETATM    9  N   UNL     1      39.924 -14.897   1.928  1.00  0.00    -0.221 N 
HETATM   10  C   UNL     1      40.517 -16.051   2.422  1.00  0.00     0.145 C 
HETATM   11 CL   UNL     1      40.832 -17.419   1.441  1.00  0.00    -0.061 Cl
BRANCH   9  12
HETATM   12  C   UNL     1      39.674 -14.437   0.596  1.00  0.00     0.060 A 
HETATM   13  C   UNL     1      40.674 -14.359  -0.381  1.00  0.00     0.031 A 
HETATM   14  C   UNL     1      40.375 -13.883  -1.663  1.00  0.00     0.002 A 
HETATM   15  C   UNL     1      39.083 -13.471  -1.980  1.00  0.00     0.000 A 
HETATM   16  C   UNL     1      38.085 -13.522  -1.012  1.00  0.00     0.002 A 
HETATM   17  C   UNL     1      38.379 -13.994   0.269  1.00  0.00     0.031 A 
ENDBRANCH   9  12
ENDBRANCH   1   5
BRANCH   2  18
HETATM   18  C   UNL     1      43.235 -17.241   6.238  1.00  0.00     0.159 C 
BRANCH  18  19
HETATM   19  C   UNL     1      44.622 -17.671   5.703  1.00  0.00     0.169 C 
BRANCH  19  20
HETATM   20  O   UNL     1      45.480 -18.164   6.734  1.00  0.00    -0.389 OA
HETATM   21  H   UNL     1      46.395 -17.877   6.534  1.00  0.00     0.210 HD
ENDBRANCH  19  20
BRANCH  19  22
HETATM   22  C   UNL     1      44.480 -18.759   4.656  1.00  0.00    -0.025 A 
HETATM   23  C   UNL     1      44.810 -20.087   4.964  1.00  0.00     0.053 A 
HETATM   24  C   UNL     1      44.697 -21.081   3.992  1.00  0.00     0.138 A 
HETATM   25  F   UNL     1      45.024 -22.341   4.325  1.00  0.00    -0.204 F 
HETATM   26  C   UNL     1      44.260 -20.776   2.706  1.00  0.00     0.072 A 
HETATM   27 CL   UNL     1      44.121 -22.005   1.508  1.00  0.00    -0.081 Cl
HETATM   28  C   UNL     1      43.934 -19.462   2.382  1.00  0.00     0.028 A 
HETATM   29  C   UNL     1      44.048 -18.460   3.351  1.00  0.00     0.012 A 
ENDBRANCH  19  22
ENDBRANCH  18  19
ENDBRANCH   2  18
TORSDOF 6
ENDMDL
MODEL 5
REMARK VINA RESULT:      -8.5      7.151     10.302
REMARK  6 active torsions:
REMARK  status: ('A' for Active; 'I' for Inactive)
REMARK    1  A    between atoms: N_4  and  C_5 
REMARK    2  A    between atoms: C_13  and  C_14 
REMARK       I    between atoms: C_14  and  N_15 
REMARK    3  A    between atoms: N_15  and  C_16 
REMARK    4  A    between atoms: C_16  and  C_17 
REMARK    5  A    between atoms: C_17  and  O_18 
REMARK    6  A    between atoms: C_17  and  C_19 
ROOT
HETATM    1  C   UNL     1      40.618 -14.964   2.783  1.00  0.00     0.257 C 
HETATM    2  N   UNL     1      41.331 -13.797   2.650  1.00  0.00    -0.354 N 
HETATM    3  O   UNL     1      39.412 -14.990   2.545  1.00  0.00    -0.267 OA
HETATM    4  H   UNL     1      42.322 -13.801   2.861  1.00  0.00     0.162 HD
ENDROOT
BRANCH   1   5
HETATM    5  C   UNL     1      41.349 -16.152   3.190  1.00  0.00     0.098 C 
HETATM    6  C   UNL     1      41.423 -16.676   4.508  1.00  0.00     0.070 C 
HETATM    7  C   UNL     1      40.790 -16.142   5.745  1.00  0.00     0.073 C 
HETATM    8  N   UNL     1      42.205 -17.754   4.585  1.00  0.00    -0.170 NA
HETATM    9  N   UNL     1      42.570 -18.033   3.302  1.00  0.00    -0.221 N 
HETATM   10  C   UNL     1      42.144 -17.014   2.461  1.00  0.00     0.145 C 
HETATM   11 CL   UNL     1      42.678 -16.871   0.840  1.00  0.00    -0.061 Cl
BRANCH   9  12
HETATM   12  C   UNL     1      43.266 -19.259   3.052  1.00  0.00     0.060 A 
HETATM   13  C   UNL     1      43.021 -20.056   1.927  1.00  0.00     0.031 A 
HETATM   14  C   UNL     1      43.719 -21.256   1.745  1.00  0.00     0.002 A 
HETATM   15  C   UNL     1      44.656 -21.678   2.686  1.00  0.00     0.000 A 
HETATM   16  C   UNL     1      44.892 -20.908   3.820  1.00  0.00     0.002 A 
HETATM   17  C   UNL     1      44.196 -19.710   4.006  1.00  0.00     0.031 A 
ENDBRANCH   9  12
ENDBRANCH   1   5
BRANCH   2  18
HETATM   18  C   UNL     1      40.689 -12.525   2.333  1.00  0.00     0.159 C 
BRANCH  18  19
HETATM   19  C   UNL     1      41.148 -11.918   0.985  1.00  0.00     0.169 C 
BRANCH  19  20
HETATM   20  O   UNL     1      42.557 -11.692   0.937  1.00  0.00    -0.389 OA
HETATM   21  H   UNL     1      42.831 -11.278   1.782  1.00  0.00     0.210 HD
ENDBRANCH  19  20
BRANCH  19  22
HETATM   22  C   UNL     1      40.783 -12.833  -0.168  1.00  0.00    -0.025 A 
HETATM   23  C   UNL     1      39.440 -13.152  -0.422  1.00  0.00     0.053 A 
HETATM   24  C   UNL     1      39.111 -14.010  -1.472  1.00  0.00     0.138 A 
HETATM   25  F   UNL     1      37.815 -14.293  -1.682  1.00  0.00    -0.204 F 
HETATM   26  C   UNL     1      40.100 -14.563  -2.280  1.00  0.00     0.072 A 
HETATM   27 CL   UNL     1      39.691 -15.621  -3.575  1.00  0.00    -0.081 Cl
HETATM   28  C   UNL     1      41.437 -14.261  -2.038  1.00  0.00     0.028 A 
HETATM   29  C   UNL     1      41.775 -13.404  -0.985  1.00  0.00     0.012 A 
ENDBRANCH  19  22
ENDBRANCH  18  19
ENDBRANCH   2  18
TORSDOF 6
ENDMDL
MODEL 6
REMARK VINA RESULT:      -8.4      3.432      9.778
REMARK  6 active torsions:
REMARK  status: ('A' for Active; 'I' for Inactive)
REMARK    1  A    between atoms: N_4  and  C_5 
REMARK    2  A    between atoms: C_13  and  C_14 
REMARK       I    between atoms: C_14  and  N_15 
REMARK    3  A    between atoms: N_15  and  C_16 
REMARK    4  A    between atoms: C_16  and  C_17 
REMARK    5  A    between atoms: C_17  and  O_18 
REMARK    6  A    between atoms: C_17  and  C_19 
ROOT
HETATM    1  C   UNL     1      44.722 -13.768   7.066  1.00  0.00     0.257 C 
HETATM    2  N   UNL     1      43.939 -13.375   8.124  1.00  0.00    -0.354 N 
HETATM    3  O   UNL     1      45.899 -13.419   6.997  1.00  0.00    -0.267 OA
HETATM    4  H   UNL     1      42.970 -13.669   8.152  1.00  0.00     0.162 HD
ENDROOT
BRANCH   1   5
HETATM    5  C   UNL     1      44.110 -14.618   6.060  1.00  0.00     0.098 C 
HETATM    6  C   UNL     1      43.143 -14.214   5.101  1.00  0.00     0.070 C 
HETATM    7  C   UNL     1      42.546 -12.864   4.913  1.00  0.00     0.073 C 
HETATM    8  N   UNL     1      42.731 -15.226   4.335  1.00  0.00    -0.170 NA
HETATM    9  N   UNL     1      43.500 -16.293   4.693  1.00  0.00    -0.221 N 
HETATM   10  C   UNL     1      44.266 -15.967   5.803  1.00  0.00     0.145 C 
HETATM   11 CL   UNL     1      45.123 -17.140   6.711  1.00  0.00    -0.061 Cl
BRANCH   9  12
HETATM   12  C   UNL     1      43.411 -17.482   3.901  1.00  0.00     0.060 A 
HETATM   13  C   UNL     1      44.101 -18.659   4.217  1.00  0.00     0.031 A 
HETATM   14  C   UNL     1      43.989 -19.786   3.394  1.00  0.00     0.002 A 
HETATM   15  C   UNL     1      43.201 -19.748   2.246  1.00  0.00     0.000 A 
HETATM   16  C   UNL     1      42.529 -18.578   1.908  1.00  0.00     0.002 A 
HETATM   17  C   UNL     1      42.638 -17.450   2.725  1.00  0.00     0.031 A 
ENDBRANCH   9  12
ENDBRANCH   1   5
BRANCH   2  18
HETATM   18  C   UNL     1      44.419 -12.451   9.146  1.00  0.00     0.159 C 
BRANCH  18  19
HETATM   19  C   UNL     1      43.588 -11.149   9.244  1.00  0.00     0.169 C 
BRANCH  19  20
HETATM   20  O   UNL     1      42.412 -11.186   8.435  1.00  0.00    -0.389 OA
HETATM   21  H   UNL     1      42.352 -10.342   7.941  1.00  0.00     0.210 HD
ENDBRANCH  19  20
BRANCH  19  22
HETATM   22  C   UNL     1      43.162 -10.889  10.675  1.00  0.00    -0.025 A 
HETATM   23  C   UNL     1      41.878 -11.254  11.110  1.00  0.00     0.053 A 
HETATM   24  C   UNL     1      41.483 -10.996  12.422  1.00  0.00     0.138 A 
HETATM   25  F   UNL     1      40.246 -11.358  12.800  1.00  0.00    -0.204 F 
HETATM   26  C   UNL     1      42.347 -10.374  13.320  1.00  0.00     0.072 A 
HETATM   27 CL   UNL     1      41.856 -10.056  14.939  1.00  0.00    -0.081 Cl
HETATM   28  C   UNL     1      43.621 -10.000  12.903  1.00  0.00     0.028 A 
HETATM   29  C   UNL     1      44.023 -10.253  11.587  1.00  0.00     0.012 A 
ENDBRANCH  19  22
ENDBRANCH  18  19
ENDBRANCH   2  18
TORSDOF 6
ENDMDL
MODEL 7
REMARK VINA RESULT:      -8.4      3.609     10.026
REMARK  6 active torsions:
REMARK  status: ('A' for Active; 'I' for Inactive)
REMARK    1  A    between atoms: N_4  and  C_5 
REMARK    2  A    between atoms: C_13  and  C_14 
REMARK       I    between atoms: C_14  and  N_15 
REMARK    3  A    between atoms: N_15  and  C_16 
REMARK    4  A    between atoms: C_16  and  C_17 
REMARK    5  A    between atoms: C_17  and  O_18 
REMARK    6  A    between atoms: C_17  and  C_19 
ROOT
HETATM    1  C   UNL     1      43.634 -15.000   5.318  1.00  0.00     0.257 C 
HETATM    2  N   UNL     1      43.625 -14.693   6.658  1.00  0.00    -0.354 N 
HETATM    3  O   UNL     1      43.831 -14.124   4.478  1.00  0.00    -0.267 OA
HETATM    4  H   UNL     1      43.452 -15.432   7.329  1.00  0.00     0.162 HD
ENDROOT
BRANCH   1   5
HETATM    5  C   UNL     1      43.425 -16.390   4.949  1.00  0.00     0.098 C 
HETATM    6  C   UNL     1      42.339 -16.897   4.186  1.00  0.00     0.070 C 
HETATM    7  C   UNL     1      41.194 -16.144   3.607  1.00  0.00     0.073 C 
HETATM    8  N   UNL     1      42.393 -18.223   4.043  1.00  0.00    -0.170 NA
HETATM    9  N   UNL     1      43.572 -18.605   4.609  1.00  0.00    -0.221 N 
HETATM   10  C   UNL     1      44.158 -17.522   5.250  1.00  0.00     0.145 C 
HETATM   11 CL   UNL     1      45.486 -17.688   6.317  1.00  0.00    -0.061 Cl
BRANCH   9  12
HETATM   12  C   UNL     1      43.991 -19.963   4.437  1.00  0.00     0.060 A 
HETATM   13  C   UNL     1      44.378 -20.780   5.507  1.00  0.00     0.031 A 
HETATM   14  C   UNL     1      44.797 -22.095   5.276  1.00  0.00     0.002 A 
HETATM   15  C   UNL     1      44.846 -22.604   3.980  1.00  0.00     0.000 A 
HETATM   16  C   UNL     1      44.488 -21.796   2.907  1.00  0.00     0.002 A 
HETATM   17  C   UNL     1      44.070 -20.482   3.132  1.00  0.00     0.031 A 
ENDBRANCH   9  12
ENDBRANCH   1   5
BRANCH   2  18
HETATM   18  C   UNL     1      43.736 -13.321   7.142  1.00  0.00     0.159 C 
BRANCH  18  19
HETATM   19  C   UNL     1      44.766 -13.149   8.284  1.00  0.00     0.169 C 
BRANCH  19  20
HETATM   20  O   UNL     1      46.062 -12.786   7.804  1.00  0.00    -0.389 OA
HETATM   21  H   UNL     1      46.406 -12.062   8.367  1.00  0.00     0.210 HD
ENDBRANCH  19  20
BRANCH  19  22
HETATM   22  C   UNL     1      44.314 -12.078   9.258  1.00  0.00    -0.025 A 
HETATM   23  C   UNL     1      43.234 -11.240   8.940  1.00  0.00     0.053 A 
HETATM   24  C   UNL     1      42.834 -10.244   9.830  1.00  0.00     0.138 A 
HETATM   25  F   UNL     1      41.798  -9.461   9.489  1.00  0.00    -0.204 F 
HETATM   26  C   UNL     1      43.494 -10.062  11.042  1.00  0.00     0.072 A 
HETATM   27 CL   UNL     1      42.999  -8.831  12.140  1.00  0.00    -0.081 Cl
HETATM   28  C   UNL     1      44.571 -10.880  11.371  1.00  0.00     0.028 A 
HETATM   29  C   UNL     1      44.980 -11.879  10.481  1.00  0.00     0.012 A 
ENDBRANCH  19  22
ENDBRANCH  18  19
ENDBRANCH   2  18
TORSDOF 6
ENDMDL
MODEL 8
REMARK VINA RESULT:      -8.4      5.407      9.067
REMARK  6 active torsions:
REMARK  status: ('A' for Active; 'I' for Inactive)
REMARK    1  A    between atoms: N_4  and  C_5 
REMARK    2  A    between atoms: C_13  and  C_14 
REMARK       I    between atoms: C_14  and  N_15 
REMARK    3  A    between atoms: N_15  and  C_16 
REMARK    4  A    between atoms: C_16  and  C_17 
REMARK    5  A    between atoms: C_17  and  O_18 
REMARK    6  A    between atoms: C_17  and  C_19 
ROOT
HETATM    1  C   UNL     1      43.015 -14.743   5.329  1.00  0.00     0.257 C 
HETATM    2  N   UNL     1      41.733 -14.444   5.724  1.00  0.00    -0.354 N 
HETATM    3  O   UNL     1      43.827 -13.845   5.112  1.00  0.00    -0.267 OA
HETATM    4  H   UNL     1      41.081 -15.202   5.888  1.00  0.00     0.162 HD
ENDROOT
BRANCH   1   5
HETATM    5  C   UNL     1      43.366 -16.147   5.203  1.00  0.00     0.098 C 
HETATM    6  C   UNL     1      43.577 -17.054   6.275  1.00  0.00     0.070 C 
HETATM    7  C   UNL     1      43.495 -16.783   7.736  1.00  0.00     0.073 C 
HETATM    8  N   UNL     1      43.929 -18.270   5.852  1.00  0.00    -0.170 NA
HETATM    9  N   UNL     1      43.846 -18.223   4.493  1.00  0.00    -0.221 N 
HETATM   10  C   UNL     1      43.606 -16.919   4.082  1.00  0.00     0.145 C 
HETATM   11 CL   UNL     1      43.738 -16.426   2.448  1.00  0.00    -0.061 Cl
BRANCH   9  12
HETATM   12  C   UNL     1      43.988 -19.449   3.767  1.00  0.00     0.060 A 
HETATM   13  C   UNL     1      43.478 -19.632   2.477  1.00  0.00     0.031 A 
HETATM   14  C   UNL     1      43.631 -20.861   1.824  1.00  0.00     0.002 A 
HETATM   15  C   UNL     1      44.281 -21.920   2.453  1.00  0.00     0.000 A 
HETATM   16  C   UNL     1      44.771 -21.759   3.745  1.00  0.00     0.002 A 
HETATM   17  C   UNL     1      44.620 -20.535   4.401  1.00  0.00     0.031 A 
ENDBRANCH   9  12
ENDBRANCH   1   5
BRANCH   2  18
HETATM   18  C   UNL     1      41.242 -13.072   5.800  1.00  0.00     0.159 C 
BRANCH  18  19
HETATM   19  C   UNL     1      40.151 -12.746   4.752  1.00  0.00     0.169 C 
BRANCH  19  20
HETATM   20  O   UNL     1      40.074 -11.350   4.456  1.00  0.00    -0.389 OA
HETATM   21  H   UNL     1      40.415 -11.210   3.548  1.00  0.00     0.210 HD
ENDBRANCH  19  20
BRANCH  19  22
HETATM   22  C   UNL     1      40.414 -13.484   3.454  1.00  0.00    -0.025 A 
HETATM   23  C   UNL     1      39.815 -14.729   3.211  1.00  0.00     0.053 A 
HETATM   24  C   UNL     1      40.075 -15.413   2.024  1.00  0.00     0.138 A 
HETATM   25  F   UNL     1      39.485 -16.604   1.831  1.00  0.00    -0.204 F 
HETATM   26  C   UNL     1      40.931 -14.879   1.065  1.00  0.00     0.072 A 
HETATM   27 CL   UNL     1      41.251 -15.726  -0.400  1.00  0.00    -0.081 Cl
HETATM   28  C   UNL     1      41.538 -13.647   1.292  1.00  0.00     0.028 A 
HETATM   29  C   UNL     1      41.284 -12.957   2.481  1.00  0.00     0.012 A 
ENDBRANCH  19  22
ENDBRANCH  18  19
ENDBRANCH   2  18
TORSDOF 6
ENDMDL
MODEL 9
REMARK VINA RESULT:      -8.3      8.347     11.452
REMARK  6 active torsions:
REMARK  status: ('A' for Active; 'I' for Inactive)
REMARK    1  A    between atoms: N_4  and  C_5 
REMARK    2  A    between atoms: C_13  and  C_14 
REMARK       I    between atoms: C_14  and  N_15 
REMARK    3  A    between atoms: N_15  and  C_16 
REMARK    4  A    between atoms: C_16  and  C_17 
REMARK    5  A    between atoms: C_17  and  O_18 
REMARK    6  A    between atoms: C_17  and  C_19 
ROOT
HETATM    1  C   UNL     1      41.153 -15.332  -0.312  1.00  0.00     0.257 C 
HETATM    2  N   UNL     1      42.171 -16.243  -0.159  1.00  0.00    -0.354 N 
HETATM    3  O   UNL     1      40.331 -15.159   0.585  1.00  0.00    -0.267 OA
HETATM    4  H   UNL     1      42.830 -16.373  -0.916  1.00  0.00     0.162 HD
ENDROOT
BRANCH   1   5
HETATM    5  C   UNL     1      41.110 -14.580  -1.554  1.00  0.00     0.098 C 
HETATM    6  C   UNL     1      40.660 -15.068  -2.810  1.00  0.00     0.070 C 
HETATM    7  C   UNL     1      40.147 -16.427  -3.136  1.00  0.00     0.073 C 
HETATM    8  N   UNL     1      40.777 -14.160  -3.781  1.00  0.00    -0.170 NA
HETATM    9  N   UNL     1      41.197 -13.019  -3.166  1.00  0.00    -0.221 N 
HETATM   10  C   UNL     1      41.500 -13.286  -1.838  1.00  0.00     0.145 C 
HETATM   11 CL   UNL     1      42.337 -12.173  -0.840  1.00  0.00    -0.061 Cl
BRANCH   9  12
HETATM   12  C   UNL     1      41.231 -11.813  -3.937  1.00  0.00     0.060 A 
HETATM   13  C   UNL     1      40.074 -11.145  -4.354  1.00  0.00     0.031 A 
HETATM   14  C   UNL     1      40.169  -9.979  -5.123  1.00  0.00     0.002 A 
HETATM   15  C   UNL     1      41.414  -9.476  -5.493  1.00  0.00     0.000 A 
HETATM   16  C   UNL     1      42.571 -10.143  -5.106  1.00  0.00     0.002 A 
HETATM   17  C   UNL     1      42.481 -11.308  -4.340  1.00  0.00     0.031 A 
ENDBRANCH   9  12
ENDBRANCH   1   5
BRANCH   2  18
HETATM   18  C   UNL     1      42.265 -17.116   1.007  1.00  0.00     0.159 C 
BRANCH  18  19
HETATM   19  C   UNL     1      43.585 -16.954   1.798  1.00  0.00     0.169 C 
BRANCH  19  20
HETATM   20  O   UNL     1      43.532 -15.881   2.740  1.00  0.00    -0.389 OA
HETATM   21  H   UNL     1      44.276 -15.987   3.368  1.00  0.00     0.210 HD
ENDBRANCH  19  20
BRANCH  19  22
HETATM   22  C   UNL     1      43.915 -18.224   2.558  1.00  0.00    -0.025 A 
HETATM   23  C   UNL     1      44.030 -19.446   1.879  1.00  0.00     0.053 A 
HETATM   24  C   UNL     1      44.315 -20.616   2.584  1.00  0.00     0.138 A 
HETATM   25  F   UNL     1      44.415 -21.766   1.899  1.00  0.00    -0.204 F 
HETATM   26  C   UNL     1      44.488 -20.593   3.965  1.00  0.00     0.072 A 
HETATM   27 CL   UNL     1      44.840 -22.037   4.833  1.00  0.00    -0.081 Cl
HETATM   28  C   UNL     1      44.372 -19.389   4.654  1.00  0.00     0.028 A 
HETATM   29  C   UNL     1      44.083 -18.213   3.954  1.00  0.00     0.012 A 
ENDBRANCH  19  22
ENDBRANCH  18  19
ENDBRANCH   2  18
TORSDOF 6
ENDMDL
MODEL 10
REMARK VINA RESULT:      -8.3      6.172      9.762
REMARK  6 active torsions:
REMARK  status: ('A' for Active; 'I' for Inactive)
REMARK    1  A    between atoms: N_4  and  C_5 
REMARK    2  A    between atoms: C_13  and  C_14 
REMARK       I    between atoms: C_14  and  N_15 
REMARK    3  A    between atoms: N_15  and  C_16 
REMARK    4  A    between atoms: C_16  and  C_17 
REMARK    5  A    between atoms: C_17  and  O_18 
REMARK    6  A    between atoms: C_17  and  C_19 
ROOT
HETATM    1  C   UNL     1      42.825 -14.987   3.698  1.00  0.00     0.257 C 
HETATM    2  N   UNL     1      41.495 -14.715   3.911  1.00  0.00    -0.354 N 
HETATM    3  O   UNL     1      43.581 -14.113   3.278  1.00  0.00    -0.267 OA
HETATM    4  H   UNL     1      40.892 -15.455   4.248  1.00  0.00     0.162 HD
ENDROOT
BRANCH   1   5
HETATM    5  C   UNL     1      43.292 -16.327   4.006  1.00  0.00     0.098 C 
HETATM    6  C   UNL     1      43.566 -16.838   5.303  1.00  0.00     0.070 C 
HETATM    7  C   UNL     1      43.447 -16.136   6.610  1.00  0.00     0.073 C 
HETATM    8  N   UNL     1      44.022 -18.092   5.271  1.00  0.00    -0.170 NA
HETATM    9  N   UNL     1      43.949 -18.475   3.965  1.00  0.00    -0.221 N 
HETATM   10  C   UNL     1      43.606 -17.385   3.176  1.00  0.00     0.145 C 
HETATM   11 CL   UNL     1      43.714 -17.413   1.467  1.00  0.00    -0.061 Cl
BRANCH   9  12
HETATM   12  C   UNL     1      44.199 -19.849   3.652  1.00  0.00     0.060 A 
HETATM   13  C   UNL     1      43.955 -20.397   2.387  1.00  0.00     0.031 A 
HETATM   14  C   UNL     1      44.201 -21.754   2.145  1.00  0.00     0.002 A 
HETATM   15  C   UNL     1      44.680 -22.577   3.161  1.00  0.00     0.000 A 
HETATM   16  C   UNL     1      44.905 -22.051   4.429  1.00  0.00     0.002 A 
HETATM   17  C   UNL     1      44.659 -20.698   4.676  1.00  0.00     0.031 A 
ENDBRANCH   9  12
ENDBRANCH   1   5
BRANCH   2  18
HETATM   18  C   UNL     1      40.896 -13.433   3.555  1.00  0.00     0.159 C 
BRANCH  18  19
HETATM   19  C   UNL     1      39.714 -13.555   2.564  1.00  0.00     0.169 C 
BRANCH  19  20
HETATM   20  O   UNL     1      38.823 -12.441   2.632  1.00  0.00    -0.389 OA
HETATM   21  H   UNL     1      38.334 -12.387   1.784  1.00  0.00     0.210 HD
ENDBRANCH  19  20
BRANCH  19  22
HETATM   22  C   UNL     1      40.218 -13.662   1.137  1.00  0.00    -0.025 A 
HETATM   23  C   UNL     1      40.520 -14.916   0.584  1.00  0.00     0.053 A 
HETATM   24  C   UNL     1      41.001 -15.007  -0.722  1.00  0.00     0.138 A 
HETATM   25  F   UNL     1      41.282 -16.224  -1.215  1.00  0.00    -0.204 F 
HETATM   26  C   UNL     1      41.192 -13.865  -1.495  1.00  0.00     0.072 A 
HETATM   27 CL   UNL     1      41.787 -13.981  -3.106  1.00  0.00    -0.081 Cl
HETATM   28  C   UNL     1      40.903 -12.614  -0.959  1.00  0.00     0.028 A 
HETATM   29  C   UNL     1      40.422 -12.514   0.351  1.00  0.00     0.012 A 
ENDBRANCH  19  22
ENDBRANCH  18  19
ENDBRANCH   2  18
TORSDOF 6
ENDMDL
