MODEL 1
REMARK VINA RESULT:      -7.9      0.000      0.000
REMARK  9 active torsions:
REMARK  status: ('A' for Active; 'I' for Inactive)
REMARK    1  A    between atoms: C_2  and  N_3 
REMARK       I    between atoms: N_3  and  C_4 
REMARK    2  A    between atoms: C_4  and  C_5 
REMARK    3  A    between atoms: C_5  and  S_6 
REMARK    4  A    between atoms: S_6  and  C_7 
REMARK    5  A    between atoms: N_8  and  C_9 
REMARK    6  A    between atoms: C_9  and  C_10 
REMARK    7  A    between atoms: C_10  and  C_11 
REMARK    8  A    between atoms: C_17  and  C_18 
REMARK    9  A    between atoms: C_21  and  O_22 
ROOT
HETATM    1  C   UNL     1      41.110 -15.253   0.888  1.00  0.00     0.192 A 
HETATM    2  N   UNL     1      41.877 -15.887   1.832  1.00  0.00    -0.307 N 
HETATM    3  C   UNL     1      41.385 -15.459   3.054  1.00  0.00     0.164 A 
HETATM    4  N   UNL     1      40.359 -14.655   2.822  1.00  0.00    -0.128 NA
HETATM    5  N   UNL     1      40.188 -14.531   1.473  1.00  0.00    -0.122 NA
ENDROOT
BRANCH   1   6
HETATM    6  S   UNL     1      41.328 -15.410  -0.819  1.00  0.00    -0.081 SA
BRANCH   6   7
HETATM    7  C   UNL     1      40.174 -14.159  -1.447  1.00  0.00     0.185 C 
BRANCH   7   8
HETATM    8  C   UNL     1      39.500 -14.613  -2.732  1.00  0.00     0.227 C 
HETATM    9  N   UNL     1      38.149 -14.861  -2.606  1.00  0.00    -0.361 N 
HETATM   10  H   UNL     1      37.671 -14.390  -1.838  1.00  0.00     0.162 HD
HETATM   11  O   UNL     1      40.123 -14.769  -3.779  1.00  0.00    -0.273 OA
BRANCH   9  12
HETATM   12  C   UNL     1      37.333 -15.258  -3.733  1.00  0.00     0.118 C 
HETATM   13  C   UNL     1      36.595 -14.078  -4.340  1.00  0.00     0.026 C 
ENDBRANCH   9  12
ENDBRANCH   7   8
ENDBRANCH   6   7
ENDBRANCH   1   6
BRANCH   2  14
HETATM   14  C   UNL     1      42.862 -16.923   1.588  1.00  0.00     0.137 C 
BRANCH  14  15
HETATM   15  C   UNL     1      42.293 -18.339   1.695  1.00  0.00     0.059 C 
BRANCH  15  16
HETATM   16  C   UNL     1      43.224 -19.245   2.464  1.00  0.00    -0.057 A 
HETATM   17  C   UNL     1      43.582 -20.497   1.942  1.00  0.00     0.007 A 
HETATM   18  C   UNL     1      44.420 -21.349   2.662  1.00  0.00     0.001 A 
HETATM   19  C   UNL     1      44.907 -20.960   3.909  1.00  0.00     0.000 A 
HETATM   20  C   UNL     1      44.557 -19.718   4.436  1.00  0.00     0.001 A 
HETATM   21  C   UNL     1      43.718 -18.864   3.718  1.00  0.00     0.007 A 
ENDBRANCH  15  16
ENDBRANCH  14  15
ENDBRANCH   2  14
BRANCH   3  22
HETATM   22  C   UNL     1      41.825 -15.843   4.399  1.00  0.00     0.012 A 
HETATM   23  C   UNL     1      41.114 -16.726   5.216  1.00  0.00     0.018 A 
HETATM   24  C   UNL     1      41.604 -17.082   6.478  1.00  0.00     0.037 A 
HETATM   25  C   UNL     1      42.828 -16.590   6.935  1.00  0.00     0.068 A 
HETATM   26  C   UNL     1      43.552 -15.719   6.127  1.00  0.00     0.037 A 
HETATM   27  C   UNL     1      43.054 -15.353   4.869  1.00  0.00     0.018 A 
BRANCH  25  28
HETATM   28  O   UNL     1      43.200 -17.032   8.174  1.00  0.00    -0.356 OA
HETATM   29  C   UNL     1      43.943 -18.244   8.220  1.00  0.00     0.210 C 
ENDBRANCH  25  28
ENDBRANCH   3  22
TORSDOF 9
ENDMDL
MODEL 2
REMARK VINA RESULT:      -7.6      3.594      7.475
REMARK  9 active torsions:
REMARK  status: ('A' for Active; 'I' for Inactive)
REMARK    1  A    between atoms: C_2  and  N_3 
REMARK       I    between atoms: N_3  and  C_4 
REMARK    2  A    between atoms: C_4  and  C_5 
REMARK    3  A    between atoms: C_5  and  S_6 
REMARK    4  A    between atoms: S_6  and  C_7 
REMARK    5  A    between atoms: N_8  and  C_9 
REMARK    6  A    between atoms: C_9  and  C_10 
REMARK    7  A    between atoms: C_10  and  C_11 
REMARK    8  A    between atoms: C_17  and  C_18 
REMARK    9  A    between atoms: C_21  and  O_22 
ROOT
HETATM    1  C   UNL     1      43.356 -16.086   6.812  1.00  0.00     0.192 A 
HETATM    2  N   UNL     1      42.450 -15.888   5.801  1.00  0.00    -0.307 N 
HETATM    3  C   UNL     1      42.795 -14.673   5.231  1.00  0.00     0.164 A 
HETATM    4  N   UNL     1      43.872 -14.221   5.855  1.00  0.00    -0.128 NA
HETATM    5  N   UNL     1      44.221 -15.104   6.836  1.00  0.00    -0.122 NA
ENDROOT
BRANCH   1   6
HETATM    6  S   UNL     1      43.356 -17.449   7.876  1.00  0.00    -0.081 SA
BRANCH   6   7
HETATM    7  C   UNL     1      44.775 -18.393   7.252  1.00  0.00     0.185 C 
BRANCH   7   8
HETATM    8  C   UNL     1      44.332 -19.626   6.480  1.00  0.00     0.227 C 
HETATM    9  N   UNL     1      44.990 -19.811   5.282  1.00  0.00    -0.361 N 
HETATM   10  H   UNL     1      45.908 -19.374   5.196  1.00  0.00     0.162 HD
HETATM   11  O   UNL     1      43.443 -20.370   6.888  1.00  0.00    -0.273 OA
BRANCH   9  12
HETATM   12  C   UNL     1      44.733 -20.955   4.434  1.00  0.00     0.118 C 
HETATM   13  C   UNL     1      44.582 -20.556   2.978  1.00  0.00     0.026 C 
ENDBRANCH   9  12
ENDBRANCH   7   8
ENDBRANCH   6   7
ENDBRANCH   1   6
BRANCH   2  14
HETATM   14  C   UNL     1      41.467 -16.842   5.325  1.00  0.00     0.137 C 
BRANCH  14  15
HETATM   15  C   UNL     1      42.043 -17.872   4.352  1.00  0.00     0.059 C 
BRANCH  15  16
HETATM   16  C   UNL     1      41.903 -17.409   2.922  1.00  0.00    -0.057 A 
HETATM   17  C   UNL     1      43.006 -17.447   2.056  1.00  0.00     0.007 A 
HETATM   18  C   UNL     1      42.889 -16.993   0.742  1.00  0.00     0.001 A 
HETATM   19  C   UNL     1      41.671 -16.498   0.280  1.00  0.00     0.000 A 
HETATM   20  C   UNL     1      40.569 -16.458   1.132  1.00  0.00     0.001 A 
HETATM   21  C   UNL     1      40.683 -16.909   2.449  1.00  0.00     0.007 A 
ENDBRANCH  15  16
ENDBRANCH  14  15
ENDBRANCH   2  14
BRANCH   3  22
HETATM   22  C   UNL     1      42.169 -13.990   4.095  1.00  0.00     0.012 A 
HETATM   23  C   UNL     1      42.827 -13.755   2.885  1.00  0.00     0.018 A 
HETATM   24  C   UNL     1      42.165 -13.128   1.822  1.00  0.00     0.037 A 
HETATM   25  C   UNL     1      40.825 -12.754   1.936  1.00  0.00     0.068 A 
HETATM   26  C   UNL     1      40.154 -12.993   3.132  1.00  0.00     0.037 A 
HETATM   27  C   UNL     1      40.822 -13.609   4.199  1.00  0.00     0.018 A 
BRANCH  25  28
HETATM   28  O   UNL     1      40.293 -12.171   0.820  1.00  0.00    -0.356 OA
HETATM   29  C   UNL     1      39.772 -13.051  -0.170  1.00  0.00     0.210 C 
ENDBRANCH  25  28
ENDBRANCH   3  22
TORSDOF 9
ENDMDL
MODEL 3
REMARK VINA RESULT:      -7.5      4.138      6.724
REMARK  9 active torsions:
REMARK  status: ('A' for Active; 'I' for Inactive)
REMARK    1  A    between atoms: C_2  and  N_3 
REMARK       I    between atoms: N_3  and  C_4 
REMARK    2  A    between atoms: C_4  and  C_5 
REMARK    3  A    between atoms: C_5  and  S_6 
REMARK    4  A    between atoms: S_6  and  C_7 
REMARK    5  A    between atoms: N_8  and  C_9 
REMARK    6  A    between atoms: C_9  and  C_10 
REMARK    7  A    between atoms: C_10  and  C_11 
REMARK    8  A    between atoms: C_17  and  C_18 
REMARK    9  A    between atoms: C_21  and  O_22 
ROOT
HETATM    1  C   UNL     1      40.801 -14.239   3.808  1.00  0.00     0.192 A 
HETATM    2  N   UNL     1      41.927 -15.003   3.976  1.00  0.00    -0.307 N 
HETATM    3  C   UNL     1      41.670 -16.189   3.307  1.00  0.00     0.164 A 
HETATM    4  N   UNL     1      40.474 -16.090   2.747  1.00  0.00    -0.128 NA
HETATM    5  N   UNL     1      39.937 -14.874   3.058  1.00  0.00    -0.122 NA
ENDROOT
BRANCH   1   6
HETATM    6  S   UNL     1      40.578 -12.661   4.478  1.00  0.00    -0.081 SA
BRANCH   6   7
HETATM    7  C   UNL     1      39.512 -13.021   5.902  1.00  0.00     0.185 C 
BRANCH   7   8
HETATM    8  C   UNL     1      39.382 -11.818   6.823  1.00  0.00     0.227 C 
HETATM    9  N   UNL     1      39.545 -12.109   8.161  1.00  0.00    -0.361 N 
HETATM   10  H   UNL     1      40.078 -12.951   8.381  1.00  0.00     0.162 HD
HETATM   11  O   UNL     1      39.127 -10.693   6.399  1.00  0.00    -0.273 OA
BRANCH   9  12
HETATM   12  C   UNL     1      39.501 -11.083   9.180  1.00  0.00     0.118 C 
HETATM   13  C   UNL     1      40.887 -10.567   9.523  1.00  0.00     0.026 C 
ENDBRANCH   9  12
ENDBRANCH   7   8
ENDBRANCH   6   7
ENDBRANCH   1   6
BRANCH   2  14
HETATM   14  C   UNL     1      43.180 -14.574   4.567  1.00  0.00     0.137 C 
BRANCH  14  15
HETATM   15  C   UNL     1      43.194 -14.668   6.094  1.00  0.00     0.059 C 
BRANCH  15  16
HETATM   16  C   UNL     1      43.621 -16.041   6.552  1.00  0.00    -0.057 A 
HETATM   17  C   UNL     1      42.777 -16.808   7.368  1.00  0.00     0.007 A 
HETATM   18  C   UNL     1      43.179 -18.066   7.818  1.00  0.00     0.001 A 
HETATM   19  C   UNL     1      44.427 -18.570   7.456  1.00  0.00     0.000 A 
HETATM   20  C   UNL     1      45.273 -17.817   6.645  1.00  0.00     0.001 A 
HETATM   21  C   UNL     1      44.874 -16.556   6.195  1.00  0.00     0.007 A 
ENDBRANCH  15  16
ENDBRANCH  14  15
ENDBRANCH   2  14
BRANCH   3  22
HETATM   22  C   UNL     1      42.546 -17.353   3.147  1.00  0.00     0.012 A 
HETATM   23  C   UNL     1      42.621 -18.391   4.080  1.00  0.00     0.018 A 
HETATM   24  C   UNL     1      43.452 -19.495   3.855  1.00  0.00     0.037 A 
HETATM   25  C   UNL     1      44.199 -19.600   2.680  1.00  0.00     0.068 A 
HETATM   26  C   UNL     1      44.124 -18.580   1.737  1.00  0.00     0.037 A 
HETATM   27  C   UNL     1      43.302 -17.469   1.970  1.00  0.00     0.018 A 
BRANCH  25  28
HETATM   28  O   UNL     1      44.951 -20.736   2.576  1.00  0.00    -0.356 OA
HETATM   29  C   UNL     1      44.354 -21.834   1.895  1.00  0.00     0.210 C 
ENDBRANCH  25  28
ENDBRANCH   3  22
TORSDOF 9
ENDMDL
MODEL 4
REMARK VINA RESULT:      -7.4      1.468      1.947
REMARK  9 active torsions:
REMARK  status: ('A' for Active; 'I' for Inactive)
REMARK    1  A    between atoms: C_2  and  N_3 
REMARK       I    between atoms: N_3  and  C_4 
REMARK    2  A    between atoms: C_4  and  C_5 
REMARK    3  A    between atoms: C_5  and  S_6 
REMARK    4  A    between atoms: S_6  and  C_7 
REMARK    5  A    between atoms: N_8  and  C_9 
REMARK    6  A    between atoms: C_9  and  C_10 
REMARK    7  A    between atoms: C_10  and  C_11 
REMARK    8  A    between atoms: C_17  and  C_18 
REMARK    9  A    between atoms: C_21  and  O_22 
ROOT
HETATM    1  C   UNL     1      41.404 -14.993   1.073  1.00  0.00     0.192 A 
HETATM    2  N   UNL     1      41.769 -15.936   1.999  1.00  0.00    -0.307 N 
HETATM    3  C   UNL     1      41.813 -15.264   3.210  1.00  0.00     0.164 A 
HETATM    4  N   UNL     1      41.448 -14.010   2.994  1.00  0.00    -0.128 NA
HETATM    5  N   UNL     1      41.191 -13.844   1.664  1.00  0.00    -0.122 NA
ENDROOT
BRANCH   1   6
HETATM    6  S   UNL     1      41.234 -15.297  -0.621  1.00  0.00    -0.081 SA
BRANCH   6   7
HETATM    7  C   UNL     1      40.432 -13.769  -1.182  1.00  0.00     0.185 C 
BRANCH   7   8
HETATM    8  C   UNL     1      38.931 -13.806  -0.946  1.00  0.00     0.227 C 
HETATM    9  N   UNL     1      38.543 -13.359   0.300  1.00  0.00    -0.361 N 
HETATM   10  H   UNL     1      39.188 -12.730   0.778  1.00  0.00     0.162 HD
HETATM   11  O   UNL     1      38.144 -14.225  -1.792  1.00  0.00    -0.273 OA
BRANCH   9  12
HETATM   12  C   UNL     1      37.150 -13.279   0.687  1.00  0.00     0.118 C 
HETATM   13  C   UNL     1      36.583 -11.888   0.472  1.00  0.00     0.026 C 
ENDBRANCH   9  12
ENDBRANCH   7   8
ENDBRANCH   6   7
ENDBRANCH   1   6
BRANCH   2  14
HETATM   14  C   UNL     1      41.893 -17.363   1.774  1.00  0.00     0.137 C 
BRANCH  14  15
HETATM   15  C   UNL     1      43.318 -17.802   1.429  1.00  0.00     0.059 C 
BRANCH  15  16
HETATM   16  C   UNL     1      43.754 -18.963   2.289  1.00  0.00    -0.057 A 
HETATM   17  C   UNL     1      44.143 -18.750   3.620  1.00  0.00     0.007 A 
HETATM   18  C   UNL     1      44.575 -19.816   4.409  1.00  0.00     0.001 A 
HETATM   19  C   UNL     1      44.621 -21.104   3.879  1.00  0.00     0.000 A 
HETATM   20  C   UNL     1      44.236 -21.326   2.558  1.00  0.00     0.001 A 
HETATM   21  C   UNL     1      43.806 -20.261   1.764  1.00  0.00     0.007 A 
ENDBRANCH  15  16
ENDBRANCH  14  15
ENDBRANCH   2  14
BRANCH   3  22
HETATM   22  C   UNL     1      42.128 -15.800   4.538  1.00  0.00     0.012 A 
HETATM   23  C   UNL     1      41.259 -16.623   5.259  1.00  0.00     0.018 A 
HETATM   24  C   UNL     1      41.630 -17.133   6.509  1.00  0.00     0.037 A 
HETATM   25  C   UNL     1      42.887 -16.857   7.048  1.00  0.00     0.068 A 
HETATM   26  C   UNL     1      43.767 -16.048   6.336  1.00  0.00     0.037 A 
HETATM   27  C   UNL     1      43.389 -15.528   5.091  1.00  0.00     0.018 A 
BRANCH  25  28
HETATM   28  O   UNL     1      43.131 -17.432   8.264  1.00  0.00    -0.356 OA
HETATM   29  C   UNL     1      44.146 -18.429   8.304  1.00  0.00     0.210 C 
ENDBRANCH  25  28
ENDBRANCH   3  22
TORSDOF 9
ENDMDL
MODEL 5
REMARK VINA RESULT:      -7.4      1.757      2.317
REMARK  9 active torsions:
REMARK  status: ('A' for Active; 'I' for Inactive)
REMARK    1  A    between atoms: C_2  and  N_3 
REMARK       I    between atoms: N_3  and  C_4 
REMARK    2  A    between atoms: C_4  and  C_5 
REMARK    3  A    between atoms: C_5  and  S_6 
REMARK    4  A    between atoms: S_6  and  C_7 
REMARK    5  A    between atoms: N_8  and  C_9 
REMARK    6  A    between atoms: C_9  and  C_10 
REMARK    7  A    between atoms: C_10  and  C_11 
REMARK    8  A    between atoms: C_17  and  C_18 
REMARK    9  A    between atoms: C_21  and  O_22 
ROOT
HETATM    1  C   UNL     1      40.877 -15.140   1.597  1.00  0.00     0.192 A 
HETATM    2  N   UNL     1      41.761 -15.768   2.438  1.00  0.00    -0.307 N 
HETATM    3  C   UNL     1      41.318 -15.480   3.719  1.00  0.00     0.164 A 
HETATM    4  N   UNL     1      40.210 -14.762   3.615  1.00  0.00    -0.128 NA
HETATM    5  N   UNL     1      39.936 -14.555   2.294  1.00  0.00    -0.122 NA
ENDROOT
BRANCH   1   6
HETATM    6  S   UNL     1      40.990 -15.148  -0.128  1.00  0.00    -0.081 SA
BRANCH   6   7
HETATM    7  C   UNL     1      39.708 -13.946  -0.579  1.00  0.00     0.185 C 
BRANCH   7   8
HETATM    8  C   UNL     1      40.305 -12.710  -1.234  1.00  0.00     0.227 C 
HETATM    9  N   UNL     1      41.668 -12.778  -1.435  1.00  0.00    -0.361 N 
HETATM   10  H   UNL     1      42.073 -13.713  -1.488  1.00  0.00     0.162 HD
HETATM   11  O   UNL     1      39.623 -11.731  -1.527  1.00  0.00    -0.273 OA
BRANCH   9  12
HETATM   12  C   UNL     1      42.401 -11.714  -2.086  1.00  0.00     0.118 C 
HETATM   13  C   UNL     1      42.412 -11.878  -3.595  1.00  0.00     0.026 C 
ENDBRANCH   9  12
ENDBRANCH   7   8
ENDBRANCH   6   7
ENDBRANCH   1   6
BRANCH   2  14
HETATM   14  C   UNL     1      42.816 -16.685   2.051  1.00  0.00     0.137 C 
BRANCH  14  15
HETATM   15  C   UNL     1      42.330 -18.124   1.862  1.00  0.00     0.059 C 
BRANCH  15  16
HETATM   16  C   UNL     1      43.225 -19.100   2.587  1.00  0.00    -0.057 A 
HETATM   17  C   UNL     1      43.732 -18.786   3.856  1.00  0.00     0.007 A 
HETATM   18  C   UNL     1      44.582 -19.673   4.517  1.00  0.00     0.001 A 
HETATM   19  C   UNL     1      44.932 -20.882   3.918  1.00  0.00     0.000 A 
HETATM   20  C   UNL     1      44.433 -21.204   2.658  1.00  0.00     0.001 A 
HETATM   21  C   UNL     1      43.584 -20.317   1.993  1.00  0.00     0.007 A 
ENDBRANCH  15  16
ENDBRANCH  14  15
ENDBRANCH   2  14
BRANCH   3  22
HETATM   22  C   UNL     1      41.883 -15.920   4.998  1.00  0.00     0.012 A 
HETATM   23  C   UNL     1      41.317 -16.932   5.779  1.00  0.00     0.018 A 
HETATM   24  C   UNL     1      41.923 -17.333   6.976  1.00  0.00     0.037 A 
HETATM   25  C   UNL     1      43.120 -16.754   7.400  1.00  0.00     0.068 A 
HETATM   26  C   UNL     1      43.701 -15.754   6.625  1.00  0.00     0.037 A 
HETATM   27  C   UNL     1      43.086 -15.345   5.434  1.00  0.00     0.018 A 
BRANCH  25  28
HETATM   28  O   UNL     1      43.616 -17.251   8.573  1.00  0.00    -0.356 OA
HETATM   29  C   UNL     1      44.237 -18.529   8.511  1.00  0.00     0.210 C 
ENDBRANCH  25  28
ENDBRANCH   3  22
TORSDOF 9
ENDMDL
MODEL 6
REMARK VINA RESULT:      -7.4      2.534      7.618
REMARK  9 active torsions:
REMARK  status: ('A' for Active; 'I' for Inactive)
REMARK    1  A    between atoms: C_2  and  N_3 
REMARK       I    between atoms: N_3  and  C_4 
REMARK    2  A    between atoms: C_4  and  C_5 
REMARK    3  A    between atoms: C_5  and  S_6 
REMARK    4  A    between atoms: S_6  and  C_7 
REMARK    5  A    between atoms: N_8  and  C_9 
REMARK    6  A    between atoms: C_9  and  C_10 
REMARK    7  A    between atoms: C_10  and  C_11 
REMARK    8  A    between atoms: C_17  and  C_18 
REMARK    9  A    between atoms: C_21  and  O_22 
ROOT
HETATM    1  C   UNL     1      40.614 -15.590   5.037  1.00  0.00     0.192 A 
HETATM    2  N   UNL     1      40.736 -15.856   3.697  1.00  0.00    -0.307 N 
HETATM    3  C   UNL     1      40.376 -14.682   3.055  1.00  0.00     0.164 A 
HETATM    4  N   UNL     1      40.106 -13.776   3.982  1.00  0.00    -0.128 NA
HETATM    5  N   UNL     1      40.258 -14.343   5.215  1.00  0.00    -0.122 NA
ENDROOT
BRANCH   1   6
HETATM    6  S   UNL     1      40.912 -16.737   6.295  1.00  0.00    -0.081 SA
BRANCH   6   7
HETATM    7  C   UNL     1      42.606 -16.306   6.784  1.00  0.00     0.185 C 
BRANCH   7   8
HETATM    8  C   UNL     1      43.197 -17.341   7.727  1.00  0.00     0.227 C 
HETATM    9  N   UNL     1      43.350 -18.593   7.169  1.00  0.00    -0.361 N 
HETATM   10  H   UNL     1      43.418 -18.632   6.152  1.00  0.00     0.162 HD
HETATM   11  O   UNL     1      43.484 -17.077   8.892  1.00  0.00    -0.273 OA
BRANCH   9  12
HETATM   12  C   UNL     1      43.940 -19.693   7.903  1.00  0.00     0.118 C 
HETATM   13  C   UNL     1      43.522 -21.038   7.337  1.00  0.00     0.026 C 
ENDBRANCH   9  12
ENDBRANCH   7   8
ENDBRANCH   6   7
ENDBRANCH   1   6
BRANCH   2  14
HETATM   14  C   UNL     1      41.301 -17.052   3.103  1.00  0.00     0.137 C 
BRANCH  14  15
HETATM   15  C   UNL     1      42.830 -17.058   3.087  1.00  0.00     0.059 C 
BRANCH  15  16
HETATM   16  C   UNL     1      43.370 -18.466   3.006  1.00  0.00    -0.057 A 
HETATM   17  C   UNL     1      44.242 -18.946   3.994  1.00  0.00     0.007 A 
HETATM   18  C   UNL     1      44.765 -20.236   3.909  1.00  0.00     0.001 A 
HETATM   19  C   UNL     1      44.423 -21.059   2.837  1.00  0.00     0.000 A 
HETATM   20  C   UNL     1      43.558 -20.591   1.850  1.00  0.00     0.001 A 
HETATM   21  C   UNL     1      43.033 -19.299   1.932  1.00  0.00     0.007 A 
ENDBRANCH  15  16
ENDBRANCH  14  15
ENDBRANCH   2  14
BRANCH   3  22
HETATM   22  C   UNL     1      40.348 -14.402   1.616  1.00  0.00     0.012 A 
HETATM   23  C   UNL     1      39.166 -14.285   0.880  1.00  0.00     0.018 A 
HETATM   24  C   UNL     1      39.203 -13.982  -0.486  1.00  0.00     0.037 A 
HETATM   25  C   UNL     1      40.417 -13.758  -1.136  1.00  0.00     0.068 A 
HETATM   26  C   UNL     1      41.601 -13.859  -0.413  1.00  0.00     0.037 A 
HETATM   27  C   UNL     1      41.564 -14.175   0.952  1.00  0.00     0.018 A 
BRANCH  25  28
HETATM   28  O   UNL     1      40.311 -13.449  -2.464  1.00  0.00    -0.356 OA
HETATM   29  C   UNL     1      41.083 -14.237  -3.363  1.00  0.00     0.210 C 
ENDBRANCH  25  28
ENDBRANCH   3  22
TORSDOF 9
ENDMDL
MODEL 7
REMARK VINA RESULT:      -7.3      1.699      4.092
REMARK  9 active torsions:
REMARK  status: ('A' for Active; 'I' for Inactive)
REMARK    1  A    between atoms: C_2  and  N_3 
REMARK       I    between atoms: N_3  and  C_4 
REMARK    2  A    between atoms: C_4  and  C_5 
REMARK    3  A    between atoms: C_5  and  S_6 
REMARK    4  A    between atoms: S_6  and  C_7 
REMARK    5  A    between atoms: N_8  and  C_9 
REMARK    6  A    between atoms: C_9  and  C_10 
REMARK    7  A    between atoms: C_10  and  C_11 
REMARK    8  A    between atoms: C_17  and  C_18 
REMARK    9  A    between atoms: C_21  and  O_22 
ROOT
HETATM    1  C   UNL     1      41.012 -15.869   1.159  1.00  0.00     0.192 A 
HETATM    2  N   UNL     1      41.356 -16.668   2.220  1.00  0.00    -0.307 N 
HETATM    3  C   UNL     1      42.447 -17.404   1.787  1.00  0.00     0.164 A 
HETATM    4  N   UNL     1      42.741 -17.013   0.557  1.00  0.00    -0.128 NA
HETATM    5  N   UNL     1      41.849 -16.055   0.170  1.00  0.00    -0.122 NA
ENDROOT
BRANCH   1   6
HETATM    6  S   UNL     1      39.680 -14.767   1.153  1.00  0.00    -0.081 SA
BRANCH   6   7
HETATM    7  C   UNL     1      40.347 -13.400   0.162  1.00  0.00     0.185 C 
BRANCH   7   8
HETATM    8  C   UNL     1      40.314 -13.719  -1.324  1.00  0.00     0.227 C 
HETATM    9  N   UNL     1      39.254 -14.513  -1.710  1.00  0.00    -0.361 N 
HETATM   10  H   UNL     1      38.435 -14.503  -1.102  1.00  0.00     0.162 HD
HETATM   11  O   UNL     1      41.179 -13.319  -2.100  1.00  0.00    -0.273 OA
BRANCH   9  12
HETATM   12  C   UNL     1      39.034 -14.881  -3.092  1.00  0.00     0.118 C 
HETATM   13  C   UNL     1      37.562 -15.092  -3.393  1.00  0.00     0.026 C 
ENDBRANCH   9  12
ENDBRANCH   7   8
ENDBRANCH   6   7
ENDBRANCH   1   6
BRANCH   2  14
HETATM   14  C   UNL     1      40.803 -16.607   3.559  1.00  0.00     0.137 C 
BRANCH  14  15
HETATM   15  C   UNL     1      41.278 -15.391   4.357  1.00  0.00     0.059 C 
BRANCH  15  16
HETATM   16  C   UNL     1      42.121 -15.808   5.538  1.00  0.00    -0.057 A 
HETATM   17  C   UNL     1      43.356 -15.188   5.777  1.00  0.00     0.007 A 
HETATM   18  C   UNL     1      44.152 -15.590   6.850  1.00  0.00     0.001 A 
HETATM   19  C   UNL     1      43.723 -16.613   7.694  1.00  0.00     0.000 A 
HETATM   20  C   UNL     1      42.497 -17.235   7.464  1.00  0.00     0.001 A 
HETATM   21  C   UNL     1      41.699 -16.837   6.390  1.00  0.00     0.007 A 
ENDBRANCH  15  16
ENDBRANCH  14  15
ENDBRANCH   2  14
BRANCH   3  22
HETATM   22  C   UNL     1      43.227 -18.398   2.530  1.00  0.00     0.012 A 
HETATM   23  C   UNL     1      43.795 -18.148   3.783  1.00  0.00     0.018 A 
HETATM   24  C   UNL     1      44.500 -19.151   4.460  1.00  0.00     0.037 A 
HETATM   25  C   UNL     1      44.625 -20.429   3.914  1.00  0.00     0.068 A 
HETATM   26  C   UNL     1      44.055 -20.695   2.674  1.00  0.00     0.037 A 
HETATM   27  C   UNL     1      43.360 -19.688   1.991  1.00  0.00     0.018 A 
BRANCH  25  28
HETATM   28  O   UNL     1      45.319 -21.319   4.686  1.00  0.00    -0.356 OA
HETATM   29  C   UNL     1      44.829 -22.654   4.715  1.00  0.00     0.210 C 
ENDBRANCH  25  28
ENDBRANCH   3  22
TORSDOF 9
ENDMDL
MODEL 8
REMARK VINA RESULT:      -7.2      3.356      7.936
REMARK  9 active torsions:
REMARK  status: ('A' for Active; 'I' for Inactive)
REMARK    1  A    between atoms: C_2  and  N_3 
REMARK       I    between atoms: N_3  and  C_4 
REMARK    2  A    between atoms: C_4  and  C_5 
REMARK    3  A    between atoms: C_5  and  S_6 
REMARK    4  A    between atoms: S_6  and  C_7 
REMARK    5  A    between atoms: N_8  and  C_9 
REMARK    6  A    between atoms: C_9  and  C_10 
REMARK    7  A    between atoms: C_10  and  C_11 
REMARK    8  A    between atoms: C_17  and  C_18 
REMARK    9  A    between atoms: C_21  and  O_22 
ROOT
HETATM    1  C   UNL     1      42.929 -14.260   5.832  1.00  0.00     0.192 A 
HETATM    2  N   UNL     1      42.598 -14.793   4.612  1.00  0.00    -0.307 N 
HETATM    3  C   UNL     1      41.705 -13.896   4.048  1.00  0.00     0.164 A 
HETATM    4  N   UNL     1      41.567 -12.879   4.884  1.00  0.00    -0.128 NA
HETATM    5  N   UNL     1      42.332 -13.106   5.992  1.00  0.00    -0.122 NA
ENDROOT
BRANCH   1   6
HETATM    6  S   UNL     1      43.995 -15.005   6.970  1.00  0.00    -0.081 SA
BRANCH   6   7
HETATM    7  C   UNL     1      45.450 -13.927   6.860  1.00  0.00     0.185 C 
BRANCH   7   8
HETATM    8  C   UNL     1      45.456 -12.880   7.963  1.00  0.00     0.227 C 
HETATM    9  N   UNL     1      44.260 -12.764   8.640  1.00  0.00    -0.361 N 
HETATM   10  H   UNL     1      43.645 -13.577   8.618  1.00  0.00     0.162 HD
HETATM   11  O   UNL     1      46.441 -12.185   8.202  1.00  0.00    -0.273 OA
BRANCH   9  12
HETATM   12  C   UNL     1      44.092 -11.852   9.751  1.00  0.00     0.118 C 
HETATM   13  C   UNL     1      44.402 -12.517  11.080  1.00  0.00     0.026 C 
ENDBRANCH   9  12
ENDBRANCH   7   8
ENDBRANCH   6   7
ENDBRANCH   1   6
BRANCH   2  14
HETATM   14  C   UNL     1      43.205 -15.951   3.984  1.00  0.00     0.137 C 
BRANCH  14  15
HETATM   15  C   UNL     1      42.334 -17.206   4.053  1.00  0.00     0.059 C 
BRANCH  15  16
HETATM   16  C   UNL     1      43.097 -18.425   3.594  1.00  0.00    -0.057 A 
HETATM   17  C   UNL     1      42.859 -18.969   2.323  1.00  0.00     0.007 A 
HETATM   18  C   UNL     1      43.541 -20.113   1.905  1.00  0.00     0.001 A 
HETATM   19  C   UNL     1      44.465 -20.723   2.752  1.00  0.00     0.000 A 
HETATM   20  C   UNL     1      44.708 -20.190   4.016  1.00  0.00     0.001 A 
HETATM   21  C   UNL     1      44.026 -19.047   4.438  1.00  0.00     0.007 A 
ENDBRANCH  15  16
ENDBRANCH  14  15
ENDBRANCH   2  14
BRANCH   3  22
HETATM   22  C   UNL     1      41.052 -13.963   2.737  1.00  0.00     0.012 A 
HETATM   23  C   UNL     1      41.661 -13.536   1.554  1.00  0.00     0.018 A 
HETATM   24  C   UNL     1      40.999 -13.659   0.327  1.00  0.00     0.037 A 
HETATM   25  C   UNL     1      39.731 -14.237   0.253  1.00  0.00     0.068 A 
HETATM   26  C   UNL     1      39.118 -14.677   1.422  1.00  0.00     0.037 A 
HETATM   27  C   UNL     1      39.776 -14.542   2.651  1.00  0.00     0.018 A 
BRANCH  25  28
HETATM   28  O   UNL     1      39.206 -14.315  -1.007  1.00  0.00    -0.356 OA
HETATM   29  C   UNL     1      40.107 -14.096  -2.086  1.00  0.00     0.210 C 
ENDBRANCH  25  28
ENDBRANCH   3  22
TORSDOF 9
ENDMDL
MODEL 9
REMARK VINA RESULT:      -7.2      2.561      7.403
REMARK  9 active torsions:
REMARK  status: ('A' for Active; 'I' for Inactive)
REMARK    1  A    between atoms: C_2  and  N_3 
REMARK       I    between atoms: N_3  and  C_4 
REMARK    2  A    between atoms: C_4  and  C_5 
REMARK    3  A    between atoms: C_5  and  S_6 
REMARK    4  A    between atoms: S_6  and  C_7 
REMARK    5  A    between atoms: N_8  and  C_9 
REMARK    6  A    between atoms: C_9  and  C_10 
REMARK    7  A    between atoms: C_10  and  C_11 
REMARK    8  A    between atoms: C_17  and  C_18 
REMARK    9  A    between atoms: C_21  and  O_22 
ROOT
HETATM    1  C   UNL     1      41.763 -16.497   4.751  1.00  0.00     0.192 A 
HETATM    2  N   UNL     1      42.175 -16.431   3.444  1.00  0.00    -0.307 N 
HETATM    3  C   UNL     1      41.434 -15.407   2.876  1.00  0.00     0.164 A 
HETATM    4  N   UNL     1      40.670 -14.883   3.822  1.00  0.00    -0.128 NA
HETATM    5  N   UNL     1      40.879 -15.561   4.988  1.00  0.00    -0.122 NA
ENDROOT
BRANCH   1   6
HETATM    6  S   UNL     1      42.350 -17.639   5.908  1.00  0.00    -0.081 SA
BRANCH   6   7
HETATM    7  C   UNL     1      44.032 -17.026   6.199  1.00  0.00     0.185 C 
BRANCH   7   8
HETATM    8  C   UNL     1      44.065 -15.985   7.307  1.00  0.00     0.227 C 
HETATM    9  N   UNL     1      44.587 -14.767   6.924  1.00  0.00    -0.361 N 
HETATM   10  H   UNL     1      44.551 -14.550   5.928  1.00  0.00     0.162 HD
HETATM   11  O   UNL     1      43.681 -16.230   8.448  1.00  0.00    -0.273 OA
BRANCH   9  12
HETATM   12  C   UNL     1      44.655 -13.642   7.832  1.00  0.00     0.118 C 
HETATM   13  C   UNL     1      45.952 -12.869   7.678  1.00  0.00     0.026 C 
ENDBRANCH   9  12
ENDBRANCH   7   8
ENDBRANCH   6   7
ENDBRANCH   1   6
BRANCH   2  14
HETATM   14  C   UNL     1      43.281 -17.159   2.852  1.00  0.00     0.137 C 
BRANCH  14  15
HETATM   15  C   UNL     1      42.837 -18.349   2.000  1.00  0.00     0.059 C 
BRANCH  15  16
HETATM   16  C   UNL     1      43.516 -19.622   2.446  1.00  0.00    -0.057 A 
HETATM   17  C   UNL     1      43.401 -20.790   1.678  1.00  0.00     0.007 A 
HETATM   18  C   UNL     1      44.002 -21.976   2.100  1.00  0.00     0.001 A 
HETATM   19  C   UNL     1      44.724 -22.007   3.293  1.00  0.00     0.000 A 
HETATM   20  C   UNL     1      44.843 -20.852   4.063  1.00  0.00     0.001 A 
HETATM   21  C   UNL     1      44.241 -19.664   3.643  1.00  0.00     0.007 A 
ENDBRANCH  15  16
ENDBRANCH  14  15
ENDBRANCH   2  14
BRANCH   3  22
HETATM   22  C   UNL     1      41.490 -14.896   1.503  1.00  0.00     0.012 A 
HETATM   23  C   UNL     1      41.089 -15.641   0.391  1.00  0.00     0.018 A 
HETATM   24  C   UNL     1      41.132 -15.086  -0.894  1.00  0.00     0.037 A 
HETATM   25  C   UNL     1      41.546 -13.767  -1.089  1.00  0.00     0.068 A 
HETATM   26  C   UNL     1      41.937 -13.010   0.012  1.00  0.00     0.037 A 
HETATM   27  C   UNL     1      41.905 -13.572   1.295  1.00  0.00     0.018 A 
BRANCH  25  28
HETATM   28  O   UNL     1      41.522 -13.342  -2.388  1.00  0.00    -0.356 OA
HETATM   29  C   UNL     1      41.280 -14.335  -3.377  1.00  0.00     0.210 C 
ENDBRANCH  25  28
ENDBRANCH   3  22
TORSDOF 9
ENDMDL
MODEL 10
REMARK VINA RESULT:      -7.1      8.138     11.465
REMARK  9 active torsions:
REMARK  status: ('A' for Active; 'I' for Inactive)
REMARK    1  A    between atoms: C_2  and  N_3 
REMARK       I    between atoms: N_3  and  C_4 
REMARK    2  A    between atoms: C_4  and  C_5 
REMARK    3  A    between atoms: C_5  and  S_6 
REMARK    4  A    between atoms: S_6  and  C_7 
REMARK    5  A    between atoms: N_8  and  C_9 
REMARK    6  A    between atoms: C_9  and  C_10 
REMARK    7  A    between atoms: C_10  and  C_11 
REMARK    8  A    between atoms: C_17  and  C_18 
REMARK    9  A    between atoms: C_21  and  O_22 
ROOT
HETATM    1  C   UNL     1      44.004 -12.318   9.143  1.00  0.00     0.192 A 
HETATM    2  N   UNL     1      43.290 -11.371   9.832  1.00  0.00    -0.307 N 
HETATM    3  C   UNL     1      43.584 -11.588  11.169  1.00  0.00     0.164 A 
HETATM    4  N   UNL     1      44.459 -12.580  11.237  1.00  0.00    -0.128 NA
HETATM    5  N   UNL     1      44.721 -13.030   9.975  1.00  0.00    -0.122 NA
ENDROOT
BRANCH   1   6
HETATM    6  S   UNL     1      43.969 -12.515   7.426  1.00  0.00    -0.081 SA
BRANCH   6   7
HETATM    7  C   UNL     1      44.987 -14.002   7.213  1.00  0.00     0.185 C 
BRANCH   7   8
HETATM    8  C   UNL     1      44.140 -15.212   6.851  1.00  0.00     0.227 C 
HETATM    9  N   UNL     1      42.794 -14.942   6.719  1.00  0.00    -0.361 N 
HETATM   10  H   UNL     1      42.543 -13.977   6.506  1.00  0.00     0.162 HD
HETATM   11  O   UNL     1      44.624 -16.334   6.717  1.00  0.00    -0.273 OA
BRANCH   9  12
HETATM   12  C   UNL     1      41.842 -15.962   6.333  1.00  0.00     0.118 C 
HETATM   13  C   UNL     1      40.676 -15.380   5.554  1.00  0.00     0.026 C 
ENDBRANCH   9  12
ENDBRANCH   7   8
ENDBRANCH   6   7
ENDBRANCH   1   6
BRANCH   2  14
HETATM   14  C   UNL     1      42.540 -10.270   9.259  1.00  0.00     0.137 C 
BRANCH  14  15
HETATM   15  C   UNL     1      41.025 -10.446   9.366  1.00  0.00     0.059 C 
BRANCH  15  16
HETATM   16  C   UNL     1      40.438  -9.511  10.396  1.00  0.00    -0.057 A 
HETATM   17  C   UNL     1      39.222  -9.822  11.022  1.00  0.00     0.007 A 
HETATM   18  C   UNL     1      38.662  -8.948  11.953  1.00  0.00     0.001 A 
HETATM   19  C   UNL     1      39.311  -7.755  12.269  1.00  0.00     0.000 A 
HETATM   20  C   UNL     1      40.520  -7.437  11.653  1.00  0.00     0.001 A 
HETATM   21  C   UNL     1      41.082  -8.310  10.719  1.00  0.00     0.007 A 
ENDBRANCH  15  16
ENDBRANCH  14  15
ENDBRANCH   2  14
BRANCH   3  22
HETATM   22  C   UNL     1      43.107 -10.846  12.339  1.00  0.00     0.012 A 
HETATM   23  C   UNL     1      43.729  -9.691  12.821  1.00  0.00     0.018 A 
HETATM   24  C   UNL     1      43.206  -9.004  13.923  1.00  0.00     0.037 A 
HETATM   25  C   UNL     1      42.034  -9.439  14.545  1.00  0.00     0.068 A 
HETATM   26  C   UNL     1      41.398 -10.581  14.068  1.00  0.00     0.037 A 
HETATM   27  C   UNL     1      41.930 -11.274  12.973  1.00  0.00     0.018 A 
BRANCH  25  28
HETATM   28  O   UNL     1      41.620  -8.668  15.595  1.00  0.00    -0.356 OA
HETATM   29  C   UNL     1      41.467  -7.276  15.341  1.00  0.00     0.210 C 
ENDBRANCH  25  28
ENDBRANCH   3  22
TORSDOF 9
ENDMDL
