MODEL 1
REMARK VINA RESULT:      -9.1      0.000      0.000
REMARK  6 active torsions:
REMARK  status: ('A' for Active; 'I' for Inactive)
REMARK    1  A    between atoms: C_4  and  N_5 
REMARK       I    between atoms: N_5  and  C_6 
REMARK       I    between atoms: C_6  and  N_7 
REMARK    2  A    between atoms: N_7  and  C_8 
REMARK    3  A    between atoms: C_11  and  C_12 
REMARK    4  A    between atoms: C_12  and  C_13 
REMARK       I    between atoms: C_13  and  N_14 
REMARK    5  A    between atoms: N_14  and  C_15 
REMARK    6  A    between atoms: C_17  and  C_18 
ROOT
HETATM    1  C   UNL     1      41.239 -14.179   3.568  1.00  0.00     0.174 A 
HETATM    2  S   UNL     1      39.911 -14.352   4.624  1.00  0.00    -0.062 SA
HETATM    3  C   UNL     1      40.987 -14.869   5.861  1.00  0.00     0.081 A 
HETATM    4  C   UNL     1      42.286 -14.863   5.386  1.00  0.00     0.052 A 
HETATM    5  N   UNL     1      42.413 -14.466   4.064  1.00  0.00    -0.228 NA
ENDROOT
BRANCH   4   6
HETATM    6  C   UNL     1      43.533 -15.215   6.130  1.00  0.00     0.163 C 
BRANCH   6   7
HETATM    7  C   UNL     1      43.984 -16.649   5.893  1.00  0.00     0.227 C 
HETATM    8  N   UNL     1      43.589 -17.177   4.675  1.00  0.00    -0.327 N 
HETATM    9  H   UNL     1      42.935 -16.602   4.132  1.00  0.00     0.169 HD
HETATM   10  O   UNL     1      44.683 -17.217   6.730  1.00  0.00    -0.273 OA
BRANCH   8  11
HETATM   11  C   UNL     1      43.885 -18.447   4.146  1.00  0.00     0.035 A 
HETATM   12  C   UNL     1      44.134 -19.579   4.928  1.00  0.00     0.048 A 
HETATM   13  C   UNL     1      44.431 -20.816   4.328  1.00  0.00     0.088 A 
HETATM   14  C   UNL     1      44.457 -20.901   2.940  1.00  0.00     0.131 A 
HETATM   15  F   UNL     1      44.721 -22.070   2.343  1.00  0.00    -0.205 F 
HETATM   16  C   UNL     1      44.217 -19.784   2.148  1.00  0.00     0.045 A 
HETATM   17  C   UNL     1      43.941 -18.556   2.751  1.00  0.00     0.032 A 
BRANCH  13  18
HETATM   18  C   UNL     1      44.716 -22.042   5.140  1.00  0.00     0.420 C 
HETATM   19  F   UNL     1      44.410 -21.901   6.462  1.00  0.00    -0.166 F 
HETATM   20  F   UNL     1      44.014 -23.131   4.718  1.00  0.00    -0.166 F 
HETATM   21  F   UNL     1      46.030 -22.405   5.113  1.00  0.00    -0.166 F 
ENDBRANCH  13  18
ENDBRANCH   8  11
ENDBRANCH   6   7
ENDBRANCH   4   6
BRANCH   1  22
HETATM   22  N   UNL     1      40.927 -13.719   2.321  1.00  0.00    -0.287 N 
HETATM   23  C   UNL     1      40.519 -14.576   1.316  1.00  0.00     0.326 C 
HETATM   24  N   UNL     1      40.516 -13.918   0.093  1.00  0.00    -0.309 N 
HETATM   25  O   UNL     1      40.209 -15.749   1.488  1.00  0.00    -0.247 OA
HETATM   26  H   UNL     1      40.928 -12.999   0.082  1.00  0.00     0.170 HD
HETATM   27  H   UNL     1      40.888 -12.722   2.197  1.00  0.00     0.172 HD
BRANCH  24  28
HETATM   28  C   UNL     1      40.179 -14.449  -1.171  1.00  0.00     0.036 A 
HETATM   29  C   UNL     1      40.971 -15.354  -1.878  1.00  0.00     0.029 A 
HETATM   30  C   UNL     1      40.568 -15.818  -3.135  1.00  0.00     0.002 A 
HETATM   31  C   UNL     1      39.369 -15.384  -3.694  1.00  0.00     0.000 A 
HETATM   32  C   UNL     1      38.567 -14.488  -2.994  1.00  0.00     0.002 A 
HETATM   33  C   UNL     1      38.968 -14.025  -1.738  1.00  0.00     0.029 A 
ENDBRANCH  24  28
ENDBRANCH   1  22
TORSDOF 6
ENDMDL
MODEL 2
REMARK VINA RESULT:      -8.9      6.551      9.694
REMARK  6 active torsions:
REMARK  status: ('A' for Active; 'I' for Inactive)
REMARK    1  A    between atoms: C_4  and  N_5 
REMARK       I    between atoms: N_5  and  C_6 
REMARK       I    between atoms: C_6  and  N_7 
REMARK    2  A    between atoms: N_7  and  C_8 
REMARK    3  A    between atoms: C_11  and  C_12 
REMARK    4  A    between atoms: C_12  and  C_13 
REMARK       I    between atoms: C_13  and  N_14 
REMARK    5  A    between atoms: N_14  and  C_15 
REMARK    6  A    between atoms: C_17  and  C_18 
ROOT
HETATM    1  C   UNL     1      39.228 -12.204   5.746  1.00  0.00     0.174 A 
HETATM    2  S   UNL     1      38.930 -11.797   4.117  1.00  0.00    -0.062 SA
HETATM    3  C   UNL     1      39.017 -10.133   4.538  1.00  0.00     0.081 A 
HETATM    4  C   UNL     1      39.279 -10.003   5.890  1.00  0.00     0.052 A 
HETATM    5  N   UNL     1      39.395 -11.205   6.571  1.00  0.00    -0.228 NA
ENDROOT
BRANCH   4   6
HETATM    6  C   UNL     1      39.459  -8.741   6.669  1.00  0.00     0.163 C 
BRANCH   6   7
HETATM    7  C   UNL     1      40.703  -8.754   7.547  1.00  0.00     0.227 C 
HETATM    8  N   UNL     1      40.502  -9.286   8.809  1.00  0.00    -0.327 N 
HETATM    9  H   UNL     1      39.528  -9.488   9.058  1.00  0.00     0.169 HD
HETATM   10  O   UNL     1      41.776  -8.360   7.095  1.00  0.00    -0.273 OA
BRANCH   8  11
HETATM   11  C   UNL     1      41.455  -9.479   9.827  1.00  0.00     0.035 A 
HETATM   12  C   UNL     1      42.353 -10.550   9.863  1.00  0.00     0.048 A 
HETATM   13  C   UNL     1      43.274 -10.682  10.918  1.00  0.00     0.088 A 
HETATM   14  C   UNL     1      43.291  -9.717  11.919  1.00  0.00     0.131 A 
HETATM   15  F   UNL     1      44.170  -9.810  12.926  1.00  0.00    -0.205 F 
HETATM   16  C   UNL     1      42.403  -8.648  11.901  1.00  0.00     0.045 A 
HETATM   17  C   UNL     1      41.480  -8.535  10.861  1.00  0.00     0.032 A 
BRANCH  13  18
HETATM   18  C   UNL     1      44.237 -11.827  10.990  1.00  0.00     0.420 C 
HETATM   19  F   UNL     1      44.168 -12.663   9.914  1.00  0.00    -0.166 F 
HETATM   20  F   UNL     1      45.536 -11.422  11.054  1.00  0.00    -0.166 F 
HETATM   21  F   UNL     1      44.035 -12.625  12.077  1.00  0.00    -0.166 F 
ENDBRANCH  13  18
ENDBRANCH   8  11
ENDBRANCH   6   7
ENDBRANCH   4   6
BRANCH   1  22
HETATM   22  N   UNL     1      39.298 -13.544   6.002  1.00  0.00    -0.287 N 
HETATM   23  C   UNL     1      40.492 -14.234   5.915  1.00  0.00     0.326 C 
HETATM   24  N   UNL     1      40.261 -15.603   5.960  1.00  0.00    -0.309 N 
HETATM   25  O   UNL     1      41.592 -13.707   5.810  1.00  0.00    -0.247 OA
HETATM   26  H   UNL     1      39.298 -15.894   5.905  1.00  0.00     0.170 HD
HETATM   27  H   UNL     1      38.473 -13.983   6.373  1.00  0.00     0.172 HD
BRANCH  24  28
HETATM   28  C   UNL     1      41.216 -16.641   5.884  1.00  0.00     0.036 A 
HETATM   29  C   UNL     1      42.032 -17.034   6.945  1.00  0.00     0.029 A 
HETATM   30  C   UNL     1      42.965 -18.063   6.778  1.00  0.00     0.002 A 
HETATM   31  C   UNL     1      43.088 -18.709   5.551  1.00  0.00     0.000 A 
HETATM   32  C   UNL     1      42.273 -18.331   4.489  1.00  0.00     0.002 A 
HETATM   33  C   UNL     1      41.340 -17.304   4.655  1.00  0.00     0.029 A 
ENDBRANCH  24  28
ENDBRANCH   1  22
TORSDOF 6
ENDMDL
MODEL 3
REMARK VINA RESULT:      -8.9      4.587      8.143
REMARK  6 active torsions:
REMARK  status: ('A' for Active; 'I' for Inactive)
REMARK    1  A    between atoms: C_4  and  N_5 
REMARK       I    between atoms: N_5  and  C_6 
REMARK       I    between atoms: C_6  and  N_7 
REMARK    2  A    between atoms: N_7  and  C_8 
REMARK    3  A    between atoms: C_11  and  C_12 
REMARK    4  A    between atoms: C_12  and  C_13 
REMARK       I    between atoms: C_13  and  N_14 
REMARK    5  A    between atoms: N_14  and  C_15 
REMARK    6  A    between atoms: C_17  and  C_18 
ROOT
HETATM    1  C   UNL     1      40.820 -11.545   6.018  1.00  0.00     0.174 A 
HETATM    2  S   UNL     1      39.662 -10.519   5.300  1.00  0.00    -0.062 SA
HETATM    3  C   UNL     1      40.266 -10.954   3.751  1.00  0.00     0.081 A 
HETATM    4  C   UNL     1      41.301 -11.861   3.887  1.00  0.00     0.052 A 
HETATM    5  N   UNL     1      41.609 -12.188   5.199  1.00  0.00    -0.228 NA
ENDROOT
BRANCH   4   6
HETATM    6  C   UNL     1      42.091 -12.516   2.802  1.00  0.00     0.163 C 
BRANCH   6   7
HETATM    7  C   UNL     1      42.876 -13.728   3.284  1.00  0.00     0.227 C 
HETATM    8  N   UNL     1      42.134 -14.895   3.358  1.00  0.00    -0.327 N 
HETATM    9  H   UNL     1      41.125 -14.790   3.210  1.00  0.00     0.169 HD
HETATM   10  O   UNL     1      44.078 -13.624   3.521  1.00  0.00    -0.273 OA
BRANCH   8  11
HETATM   11  C   UNL     1      42.578 -16.180   3.719  1.00  0.00     0.035 A 
HETATM   12  C   UNL     1      42.974 -17.156   2.799  1.00  0.00     0.048 A 
HETATM   13  C   UNL     1      43.401 -18.424   3.234  1.00  0.00     0.088 A 
HETATM   14  C   UNL     1      43.441 -18.688   4.599  1.00  0.00     0.131 A 
HETATM   15  F   UNL     1      43.859 -19.881   5.040  1.00  0.00    -0.205 F 
HETATM   16  C   UNL     1      43.048 -17.731   5.527  1.00  0.00     0.045 A 
HETATM   17  C   UNL     1      42.608 -16.482   5.086  1.00  0.00     0.032 A 
BRANCH  13  18
HETATM   18  C   UNL     1      43.815 -19.494   2.271  1.00  0.00     0.420 C 
HETATM   19  F   UNL     1      45.042 -20.025   2.544  1.00  0.00    -0.166 F 
HETATM   20  F   UNL     1      42.956 -20.551   2.253  1.00  0.00    -0.166 F 
HETATM   21  F   UNL     1      43.896 -19.050   0.985  1.00  0.00    -0.166 F 
ENDBRANCH  13  18
ENDBRANCH   8  11
ENDBRANCH   6   7
ENDBRANCH   4   6
BRANCH   1  22
HETATM   22  N   UNL     1      40.767 -11.610   7.381  1.00  0.00    -0.287 N 
HETATM   23  C   UNL     1      41.517 -10.762   8.173  1.00  0.00     0.326 C 
HETATM   24  N   UNL     1      41.494 -11.191   9.494  1.00  0.00    -0.309 N 
HETATM   25  O   UNL     1      42.117  -9.777   7.762  1.00  0.00    -0.247 OA
HETATM   26  H   UNL     1      41.077 -12.093   9.661  1.00  0.00     0.170 HD
HETATM   27  H   UNL     1      40.072 -12.214   7.783  1.00  0.00     0.172 HD
BRANCH  24  28
HETATM   28  C   UNL     1      42.146 -10.607  10.602  1.00  0.00     0.036 A 
HETATM   29  C   UNL     1      43.428 -10.953  11.029  1.00  0.00     0.029 A 
HETATM   30  C   UNL     1      43.994 -10.335  12.149  1.00  0.00     0.002 A 
HETATM   31  C   UNL     1      43.283  -9.364  12.851  1.00  0.00     0.000 A 
HETATM   32  C   UNL     1      42.007  -9.005  12.429  1.00  0.00     0.002 A 
HETATM   33  C   UNL     1      41.442  -9.621  11.309  1.00  0.00     0.029 A 
ENDBRANCH  24  28
ENDBRANCH   1  22
TORSDOF 6
ENDMDL
MODEL 4
REMARK VINA RESULT:      -8.8      1.451      2.410
REMARK  6 active torsions:
REMARK  status: ('A' for Active; 'I' for Inactive)
REMARK    1  A    between atoms: C_4  and  N_5 
REMARK       I    between atoms: N_5  and  C_6 
REMARK       I    between atoms: C_6  and  N_7 
REMARK    2  A    between atoms: N_7  and  C_8 
REMARK    3  A    between atoms: C_11  and  C_12 
REMARK    4  A    between atoms: C_12  and  C_13 
REMARK       I    between atoms: C_13  and  N_14 
REMARK    5  A    between atoms: N_14  and  C_15 
REMARK    6  A    between atoms: C_17  and  C_18 
ROOT
HETATM    1  C   UNL     1      41.585 -14.541   4.033  1.00  0.00     0.174 A 
HETATM    2  S   UNL     1      41.899 -12.918   4.452  1.00  0.00    -0.062 SA
HETATM    3  C   UNL     1      42.831 -13.464   5.789  1.00  0.00     0.081 A 
HETATM    4  C   UNL     1      42.847 -14.847   5.817  1.00  0.00     0.052 A 
HETATM    5  N   UNL     1      42.123 -15.450   4.801  1.00  0.00    -0.228 NA
ENDROOT
BRANCH   4   6
HETATM    6  C   UNL     1      43.554 -15.733   6.790  1.00  0.00     0.163 C 
BRANCH   6   7
HETATM    7  C   UNL     1      43.363 -17.214   6.496  1.00  0.00     0.227 C 
HETATM    8  N   UNL     1      44.156 -17.697   5.468  1.00  0.00    -0.327 N 
HETATM    9  H   UNL     1      44.678 -16.991   4.940  1.00  0.00     0.169 HD
HETATM   10  O   UNL     1      42.592 -17.881   7.184  1.00  0.00    -0.273 OA
BRANCH   8  11
HETATM   11  C   UNL     1      44.245 -19.019   4.994  1.00  0.00     0.035 A 
HETATM   12  C   UNL     1      44.038 -19.386   3.661  1.00  0.00     0.048 A 
HETATM   13  C   UNL     1      44.137 -20.731   3.261  1.00  0.00     0.088 A 
HETATM   14  C   UNL     1      44.463 -21.692   4.211  1.00  0.00     0.131 A 
HETATM   15  F   UNL     1      44.581 -22.977   3.854  1.00  0.00    -0.205 F 
HETATM   16  C   UNL     1      44.669 -21.346   5.542  1.00  0.00     0.045 A 
HETATM   17  C   UNL     1      44.550 -20.012   5.934  1.00  0.00     0.032 A 
BRANCH  13  18
HETATM   18  C   UNL     1      43.905 -21.154   1.843  1.00  0.00     0.420 C 
HETATM   19  F   UNL     1      42.760 -21.876   1.672  1.00  0.00    -0.166 F 
HETATM   20  F   UNL     1      43.801 -20.100   0.986  1.00  0.00    -0.166 F 
HETATM   21  F   UNL     1      44.903 -21.944   1.353  1.00  0.00    -0.166 F 
ENDBRANCH  13  18
ENDBRANCH   8  11
ENDBRANCH   6   7
ENDBRANCH   4   6
BRANCH   1  22
HETATM   22  N   UNL     1      40.829 -14.710   2.908  1.00  0.00    -0.287 N 
HETATM   23  C   UNL     1      41.379 -14.595   1.646  1.00  0.00     0.326 C 
HETATM   24  N   UNL     1      40.376 -14.548   0.686  1.00  0.00    -0.309 N 
HETATM   25  O   UNL     1      42.581 -14.540   1.415  1.00  0.00    -0.247 OA
HETATM   26  H   UNL     1      39.434 -14.461   1.031  1.00  0.00     0.170 HD
HETATM   27  H   UNL     1      39.888 -15.040   3.034  1.00  0.00     0.172 HD
BRANCH  24  28
HETATM   28  C   UNL     1      40.526 -14.418  -0.712  1.00  0.00     0.036 A 
HETATM   29  C   UNL     1      40.320 -13.231  -1.416  1.00  0.00     0.029 A 
HETATM   30  C   UNL     1      40.474 -13.195  -2.806  1.00  0.00     0.002 A 
HETATM   31  C   UNL     1      40.839 -14.343  -3.504  1.00  0.00     0.000 A 
HETATM   32  C   UNL     1      41.056 -15.531  -2.811  1.00  0.00     0.002 A 
HETATM   33  C   UNL     1      40.903 -15.567  -1.422  1.00  0.00     0.029 A 
ENDBRANCH  24  28
ENDBRANCH   1  22
TORSDOF 6
ENDMDL
MODEL 5
REMARK VINA RESULT:      -8.8      6.741      9.655
REMARK  6 active torsions:
REMARK  status: ('A' for Active; 'I' for Inactive)
REMARK    1  A    between atoms: C_4  and  N_5 
REMARK       I    between atoms: N_5  and  C_6 
REMARK       I    between atoms: C_6  and  N_7 
REMARK    2  A    between atoms: N_7  and  C_8 
REMARK    3  A    between atoms: C_11  and  C_12 
REMARK    4  A    between atoms: C_12  and  C_13 
REMARK       I    between atoms: C_13  and  N_14 
REMARK    5  A    between atoms: N_14  and  C_15 
REMARK    6  A    between atoms: C_17  and  C_18 
ROOT
HETATM    1  C   UNL     1      41.905 -14.511   5.843  1.00  0.00     0.174 A 
HETATM    2  S   UNL     1      40.207 -14.668   5.849  1.00  0.00    -0.062 SA
HETATM    3  C   UNL     1      40.068 -12.956   5.803  1.00  0.00     0.081 A 
HETATM    4  C   UNL     1      41.326 -12.382   5.775  1.00  0.00     0.052 A 
HETATM    5  N   UNL     1      42.372 -13.292   5.801  1.00  0.00    -0.228 NA
ENDROOT
BRANCH   4   6
HETATM    6  C   UNL     1      41.667 -10.930   5.707  1.00  0.00     0.163 C 
BRANCH   6   7
HETATM    7  C   UNL     1      41.847 -10.295   7.079  1.00  0.00     0.227 C 
HETATM    8  N   UNL     1      42.227 -11.182   8.072  1.00  0.00    -0.327 N 
HETATM    9  H   UNL     1      42.217 -12.173   7.811  1.00  0.00     0.169 HD
HETATM   10  O   UNL     1      41.704  -9.081   7.215  1.00  0.00    -0.273 OA
BRANCH   8  11
HETATM   11  C   UNL     1      42.515 -10.898   9.420  1.00  0.00     0.035 A 
HETATM   12  C   UNL     1      41.541 -10.725  10.407  1.00  0.00     0.048 A 
HETATM   13  C   UNL     1      41.905 -10.436  11.735  1.00  0.00     0.088 A 
HETATM   14  C   UNL     1      43.255 -10.342  12.056  1.00  0.00     0.131 A 
HETATM   15  F   UNL     1      43.629 -10.085  13.316  1.00  0.00    -0.205 F 
HETATM   16  C   UNL     1      44.237 -10.507  11.086  1.00  0.00     0.045 A 
HETATM   17  C   UNL     1      43.867 -10.775   9.768  1.00  0.00     0.032 A 
BRANCH  13  18
HETATM   18  C   UNL     1      40.882 -10.231  12.810  1.00  0.00     0.420 C 
HETATM   19  F   UNL     1      39.598 -10.358  12.369  1.00  0.00    -0.166 F 
HETATM   20  F   UNL     1      41.005 -11.123  13.833  1.00  0.00    -0.166 F 
HETATM   21  F   UNL     1      40.946  -8.993  13.377  1.00  0.00    -0.166 F 
ENDBRANCH  13  18
ENDBRANCH   8  11
ENDBRANCH   6   7
ENDBRANCH   4   6
BRANCH   1  22
HETATM   22  N   UNL     1      42.593 -15.690   5.845  1.00  0.00    -0.287 N 
HETATM   23  C   UNL     1      42.791 -16.412   4.683  1.00  0.00     0.326 C 
HETATM   24  N   UNL     1      43.277 -17.679   4.980  1.00  0.00    -0.309 N 
HETATM   25  O   UNL     1      42.563 -15.990   3.556  1.00  0.00    -0.247 OA
HETATM   26  H   UNL     1      43.282 -17.936   5.954  1.00  0.00     0.170 HD
HETATM   27  H   UNL     1      43.054 -15.950   6.700  1.00  0.00     0.172 HD
BRANCH  24  28
HETATM   28  C   UNL     1      43.590 -18.716   4.075  1.00  0.00     0.036 A 
HETATM   29  C   UNL     1      42.998 -18.867   2.820  1.00  0.00     0.029 A 
HETATM   30  C   UNL     1      43.355 -19.936   1.991  1.00  0.00     0.002 A 
HETATM   31  C   UNL     1      44.309 -20.861   2.407  1.00  0.00     0.000 A 
HETATM   32  C   UNL     1      44.912 -20.716   3.653  1.00  0.00     0.002 A 
HETATM   33  C   UNL     1      44.556 -19.647   4.481  1.00  0.00     0.029 A 
ENDBRANCH  24  28
ENDBRANCH   1  22
TORSDOF 6
ENDMDL
MODEL 6
REMARK VINA RESULT:      -8.7      5.706      8.936
REMARK  6 active torsions:
REMARK  status: ('A' for Active; 'I' for Inactive)
REMARK    1  A    between atoms: C_4  and  N_5 
REMARK       I    between atoms: N_5  and  C_6 
REMARK       I    between atoms: C_6  and  N_7 
REMARK    2  A    between atoms: N_7  and  C_8 
REMARK    3  A    between atoms: C_11  and  C_12 
REMARK    4  A    between atoms: C_12  and  C_13 
REMARK       I    between atoms: C_13  and  N_14 
REMARK    5  A    between atoms: N_14  and  C_15 
REMARK    6  A    between atoms: C_17  and  C_18 
ROOT
HETATM    1  C   UNL     1      40.029 -14.244   4.898  1.00  0.00     0.174 A 
HETATM    2  S   UNL     1      39.757 -13.854   3.261  1.00  0.00    -0.062 SA
HETATM    3  C   UNL     1      39.464 -12.223   3.718  1.00  0.00     0.081 A 
HETATM    4  C   UNL     1      39.606 -12.086   5.087  1.00  0.00     0.052 A 
HETATM    5  N   UNL     1      39.928 -13.260   5.751  1.00  0.00    -0.228 NA
ENDROOT
BRANCH   4   6
HETATM    6  C   UNL     1      39.466 -10.842   5.900  1.00  0.00     0.163 C 
BRANCH   6   7
HETATM    7  C   UNL     1      39.984 -10.997   7.324  1.00  0.00     0.227 C 
HETATM    8  N   UNL     1      41.272 -10.525   7.515  1.00  0.00    -0.327 N 
HETATM    9  H   UNL     1      41.775 -10.249   6.666  1.00  0.00     0.169 HD
HETATM   10  O   UNL     1      39.252 -11.462   8.194  1.00  0.00    -0.273 OA
BRANCH   8  11
HETATM   11  C   UNL     1      42.007 -10.483   8.714  1.00  0.00     0.035 A 
HETATM   12  C   UNL     1      43.204 -11.175   8.921  1.00  0.00     0.048 A 
HETATM   13  C   UNL     1      43.881 -11.091  10.151  1.00  0.00     0.088 A 
HETATM   14  C   UNL     1      43.349 -10.291  11.157  1.00  0.00     0.131 A 
HETATM   15  F   UNL     1      43.983 -10.180  12.332  1.00  0.00    -0.205 F 
HETATM   16  C   UNL     1      42.158  -9.600  10.970  1.00  0.00     0.045 A 
HETATM   17  C   UNL     1      41.483  -9.704   9.754  1.00  0.00     0.032 A 
BRANCH  13  18
HETATM   18  C   UNL     1      45.157 -11.833  10.405  1.00  0.00     0.420 C 
HETATM   19  F   UNL     1      45.067 -12.735  11.424  1.00  0.00    -0.166 F 
HETATM   20  F   UNL     1      45.578 -12.546   9.324  1.00  0.00    -0.166 F 
HETATM   21  F   UNL     1      46.192 -11.013  10.744  1.00  0.00    -0.166 F 
ENDBRANCH  13  18
ENDBRANCH   8  11
ENDBRANCH   6   7
ENDBRANCH   4   6
BRANCH   1  22
HETATM   22  N   UNL     1      40.362 -15.547   5.133  1.00  0.00    -0.287 N 
HETATM   23  C   UNL     1      41.591 -16.057   4.758  1.00  0.00     0.326 C 
HETATM   24  N   UNL     1      41.590 -17.442   4.862  1.00  0.00    -0.309 N 
HETATM   25  O   UNL     1      42.539 -15.377   4.385  1.00  0.00    -0.247 OA
HETATM   26  H   UNL     1      40.699 -17.873   5.046  1.00  0.00     0.170 HD
HETATM   27  H   UNL     1      39.729 -16.088   5.696  1.00  0.00     0.172 HD
BRANCH  24  28
HETATM   28  C   UNL     1      42.645 -18.330   4.557  1.00  0.00     0.036 A 
HETATM   29  C   UNL     1      43.490 -18.900   5.510  1.00  0.00     0.029 A 
HETATM   30  C   UNL     1      44.523 -19.758   5.119  1.00  0.00     0.002 A 
HETATM   31  C   UNL     1      44.719 -20.055   3.773  1.00  0.00     0.000 A 
HETATM   32  C   UNL     1      43.878 -19.499   2.815  1.00  0.00     0.002 A 
HETATM   33  C   UNL     1      42.844 -18.643   3.205  1.00  0.00     0.029 A 
ENDBRANCH  24  28
ENDBRANCH   1  22
TORSDOF 6
ENDMDL
MODEL 7
REMARK VINA RESULT:      -8.6      2.106      3.096
REMARK  6 active torsions:
REMARK  status: ('A' for Active; 'I' for Inactive)
REMARK    1  A    between atoms: C_4  and  N_5 
REMARK       I    between atoms: N_5  and  C_6 
REMARK       I    between atoms: C_6  and  N_7 
REMARK    2  A    between atoms: N_7  and  C_8 
REMARK    3  A    between atoms: C_11  and  C_12 
REMARK    4  A    between atoms: C_12  and  C_13 
REMARK       I    between atoms: C_13  and  N_14 
REMARK    5  A    between atoms: N_14  and  C_15 
REMARK    6  A    between atoms: C_17  and  C_18 
ROOT
HETATM    1  C   UNL     1      40.104 -12.254   2.735  1.00  0.00     0.174 A 
HETATM    2  S   UNL     1      38.801 -11.631   3.640  1.00  0.00    -0.062 SA
HETATM    3  C   UNL     1      39.704 -11.886   5.080  1.00  0.00     0.081 A 
HETATM    4  C   UNL     1      40.943 -12.418   4.769  1.00  0.00     0.052 A 
HETATM    5  N   UNL     1      41.155 -12.626   3.415  1.00  0.00    -0.228 NA
ENDROOT
BRANCH   4   6
HETATM    6  C   UNL     1      42.048 -12.769   5.710  1.00  0.00     0.163 C 
BRANCH   6   7
HETATM    7  C   UNL     1      42.938 -13.892   5.193  1.00  0.00     0.227 C 
HETATM    8  N   UNL     1      42.363 -15.150   5.259  1.00  0.00    -0.327 N 
HETATM    9  H   UNL     1      41.471 -15.206   5.761  1.00  0.00     0.169 HD
HETATM   10  O   UNL     1      44.042 -13.630   4.721  1.00  0.00    -0.273 OA
BRANCH   8  11
HETATM   11  C   UNL     1      42.906 -16.372   4.819  1.00  0.00     0.035 A 
HETATM   12  C   UNL     1      42.610 -16.959   3.585  1.00  0.00     0.048 A 
HETATM   13  C   UNL     1      43.186 -18.188   3.216  1.00  0.00     0.088 A 
HETATM   14  C   UNL     1      44.071 -18.805   4.094  1.00  0.00     0.131 A 
HETATM   15  F   UNL     1      44.647 -19.967   3.760  1.00  0.00    -0.205 F 
HETATM   16  C   UNL     1      44.373 -18.238   5.326  1.00  0.00     0.045 A 
HETATM   17  C   UNL     1      43.783 -17.027   5.692  1.00  0.00     0.032 A 
BRANCH  13  18
HETATM   18  C   UNL     1      42.876 -18.847   1.907  1.00  0.00     0.420 C 
HETATM   19  F   UNL     1      43.832 -18.641   0.956  1.00  0.00    -0.166 F 
HETATM   20  F   UNL     1      42.753 -20.199   2.013  1.00  0.00    -0.166 F 
HETATM   21  F   UNL     1      41.715 -18.403   1.350  1.00  0.00    -0.166 F 
ENDBRANCH  13  18
ENDBRANCH   8  11
ENDBRANCH   6   7
ENDBRANCH   4   6
BRANCH   1  22
HETATM   22  N   UNL     1      39.916 -12.259   1.382  1.00  0.00    -0.287 N 
HETATM   23  C   UNL     1      39.705 -13.434   0.686  1.00  0.00     0.326 C 
HETATM   24  N   UNL     1      39.804 -13.209  -0.681  1.00  0.00    -0.309 N 
HETATM   25  O   UNL     1      39.467 -14.516   1.209  1.00  0.00    -0.247 OA
HETATM   26  H   UNL     1      40.142 -12.302  -0.959  1.00  0.00     0.170 HD
HETATM   27  H   UNL     1      39.817 -11.366   0.931  1.00  0.00     0.172 HD
BRANCH  24  28
HETATM   28  C   UNL     1      39.669 -14.154  -1.721  1.00  0.00     0.036 A 
HETATM   29  C   UNL     1      40.652 -15.080  -2.072  1.00  0.00     0.029 A 
HETATM   30  C   UNL     1      40.442 -15.971  -3.131  1.00  0.00     0.002 A 
HETATM   31  C   UNL     1      39.247 -15.945  -3.845  1.00  0.00     0.000 A 
HETATM   32  C   UNL     1      38.256 -15.032  -3.498  1.00  0.00     0.002 A 
HETATM   33  C   UNL     1      38.465 -14.142  -2.440  1.00  0.00     0.029 A 
ENDBRANCH  24  28
ENDBRANCH   1  22
TORSDOF 6
ENDMDL
MODEL 8
REMARK VINA RESULT:      -8.5      1.874      2.446
REMARK  6 active torsions:
REMARK  status: ('A' for Active; 'I' for Inactive)
REMARK    1  A    between atoms: C_4  and  N_5 
REMARK       I    between atoms: N_5  and  C_6 
REMARK       I    between atoms: C_6  and  N_7 
REMARK    2  A    between atoms: N_7  and  C_8 
REMARK    3  A    between atoms: C_11  and  C_12 
REMARK    4  A    between atoms: C_12  and  C_13 
REMARK       I    between atoms: C_13  and  N_14 
REMARK    5  A    between atoms: N_14  and  C_15 
REMARK    6  A    between atoms: C_17  and  C_18 
ROOT
HETATM    1  C   UNL     1      39.633 -12.722   2.905  1.00  0.00     0.174 A 
HETATM    2  S   UNL     1      38.769 -11.582   3.833  1.00  0.00    -0.062 SA
HETATM    3  C   UNL     1      39.402 -12.295   5.263  1.00  0.00     0.081 A 
HETATM    4  C   UNL     1      40.238 -13.346   4.933  1.00  0.00     0.052 A 
HETATM    5  N   UNL     1      40.358 -13.580   3.572  1.00  0.00    -0.228 NA
ENDROOT
BRANCH   4   6
HETATM    6  C   UNL     1      41.015 -14.222   5.861  1.00  0.00     0.163 C 
BRANCH   6   7
HETATM    7  C   UNL     1      41.148 -15.654   5.359  1.00  0.00     0.227 C 
HETATM    8  N   UNL     1      42.049 -15.811   4.320  1.00  0.00    -0.327 N 
HETATM    9  H   UNL     1      42.423 -14.944   3.920  1.00  0.00     0.169 HD
HETATM   10  O   UNL     1      40.519 -16.556   5.908  1.00  0.00    -0.273 OA
BRANCH   8  11
HETATM   11  C   UNL     1      42.426 -17.004   3.677  1.00  0.00     0.035 A 
HETATM   12  C   UNL     1      43.364 -17.905   4.190  1.00  0.00     0.048 A 
HETATM   13  C   UNL     1      43.698 -19.077   3.486  1.00  0.00     0.088 A 
HETATM   14  C   UNL     1      43.064 -19.336   2.275  1.00  0.00     0.131 A 
HETATM   15  F   UNL     1      43.350 -20.453   1.594  1.00  0.00    -0.205 F 
HETATM   16  C   UNL     1      42.132 -18.449   1.748  1.00  0.00     0.045 A 
HETATM   17  C   UNL     1      41.821 -17.280   2.444  1.00  0.00     0.032 A 
BRANCH  13  18
HETATM   18  C   UNL     1      44.709 -20.052   4.005  1.00  0.00     0.420 C 
HETATM   19  F   UNL     1      44.166 -21.238   4.403  1.00  0.00    -0.166 F 
HETATM   20  F   UNL     1      45.653 -20.376   3.078  1.00  0.00    -0.166 F 
HETATM   21  F   UNL     1      45.389 -19.587   5.091  1.00  0.00    -0.166 F 
ENDBRANCH  13  18
ENDBRANCH   8  11
ENDBRANCH   6   7
ENDBRANCH   4   6
BRANCH   1  22
HETATM   22  N   UNL     1      39.499 -12.585   1.553  1.00  0.00    -0.287 N 
HETATM   23  C   UNL     1      39.256 -13.673   0.737  1.00  0.00     0.326 C 
HETATM   24  N   UNL     1      39.421 -13.323  -0.597  1.00  0.00    -0.309 N 
HETATM   25  O   UNL     1      38.943 -14.787   1.141  1.00  0.00    -0.247 OA
HETATM   26  H   UNL     1      39.815 -12.413  -0.771  1.00  0.00     0.170 HD
HETATM   27  H   UNL     1      39.462 -11.648   1.189  1.00  0.00     0.172 HD
BRANCH  24  28
HETATM   28  C   UNL     1      39.280 -14.153  -1.730  1.00  0.00     0.036 A 
HETATM   29  C   UNL     1      38.115 -14.247  -2.493  1.00  0.00     0.029 A 
HETATM   30  C   UNL     1      38.056 -15.109  -3.593  1.00  0.00     0.002 A 
HETATM   31  C   UNL     1      39.159 -15.883  -3.941  1.00  0.00     0.000 A 
HETATM   32  C   UNL     1      40.328 -15.792  -3.192  1.00  0.00     0.002 A 
HETATM   33  C   UNL     1      40.389 -14.929  -2.094  1.00  0.00     0.029 A 
ENDBRANCH  24  28
ENDBRANCH   1  22
TORSDOF 6
ENDMDL
MODEL 9
REMARK VINA RESULT:      -8.4      4.173      8.354
REMARK  6 active torsions:
REMARK  status: ('A' for Active; 'I' for Inactive)
REMARK    1  A    between atoms: C_4  and  N_5 
REMARK       I    between atoms: N_5  and  C_6 
REMARK       I    between atoms: C_6  and  N_7 
REMARK    2  A    between atoms: N_7  and  C_8 
REMARK    3  A    between atoms: C_11  and  C_12 
REMARK    4  A    between atoms: C_12  and  C_13 
REMARK       I    between atoms: C_13  and  N_14 
REMARK    5  A    between atoms: N_14  and  C_15 
REMARK    6  A    between atoms: C_17  and  C_18 
ROOT
HETATM    1  C   UNL     1      42.292 -15.084   4.061  1.00  0.00     0.174 A 
HETATM    2  S   UNL     1      42.460 -14.839   5.740  1.00  0.00    -0.062 SA
HETATM    3  C   UNL     1      41.163 -13.712   5.685  1.00  0.00     0.081 A 
HETATM    4  C   UNL     1      40.684 -13.609   4.392  1.00  0.00     0.052 A 
HETATM    5  N   UNL     1      41.347 -14.404   3.469  1.00  0.00    -0.228 NA
ENDROOT
BRANCH   4   6
HETATM    6  C   UNL     1      39.552 -12.768   3.900  1.00  0.00     0.163 C 
BRANCH   6   7
HETATM    7  C   UNL     1      39.607 -12.510   2.401  1.00  0.00     0.227 C 
HETATM    8  N   UNL     1      39.097 -13.539   1.628  1.00  0.00    -0.327 N 
HETATM    9  H   UNL     1      38.864 -14.401   2.131  1.00  0.00     0.169 HD
HETATM   10  O   UNL     1      40.032 -11.436   1.979  1.00  0.00    -0.273 OA
BRANCH   8  11
HETATM   11  C   UNL     1      38.964 -13.584   0.227  1.00  0.00     0.035 A 
HETATM   12  C   UNL     1      39.813 -14.308  -0.615  1.00  0.00     0.048 A 
HETATM   13  C   UNL     1      39.623 -14.300  -2.009  1.00  0.00     0.088 A 
HETATM   14  C   UNL     1      38.562 -13.572  -2.538  1.00  0.00     0.131 A 
HETATM   15  F   UNL     1      38.349 -13.561  -3.860  1.00  0.00    -0.205 F 
HETATM   16  C   UNL     1      37.711 -12.844  -1.715  1.00  0.00     0.045 A 
HETATM   17  C   UNL     1      37.918 -12.842  -0.335  1.00  0.00     0.032 A 
BRANCH  13  18
HETATM   18  C   UNL     1      40.527 -15.053  -2.936  1.00  0.00     0.420 C 
HETATM   19  F   UNL     1      39.856 -15.766  -3.886  1.00  0.00    -0.166 F 
HETATM   20  F   UNL     1      41.376 -14.240  -3.623  1.00  0.00    -0.166 F 
HETATM   21  F   UNL     1      41.311 -15.963  -2.292  1.00  0.00    -0.166 F 
ENDBRANCH  13  18
ENDBRANCH   8  11
ENDBRANCH   6   7
ENDBRANCH   4   6
BRANCH   1  22
HETATM   22  N   UNL     1      43.148 -16.003   3.524  1.00  0.00    -0.287 N 
HETATM   23  C   UNL     1      42.881 -17.358   3.580  1.00  0.00     0.326 C 
HETATM   24  N   UNL     1      44.004 -18.086   3.210  1.00  0.00    -0.309 N 
HETATM   25  O   UNL     1      41.805 -17.840   3.913  1.00  0.00    -0.247 OA
HETATM   26  H   UNL     1      44.857 -17.562   3.098  1.00  0.00     0.170 HD
HETATM   27  H   UNL     1      43.917 -15.650   2.981  1.00  0.00     0.172 HD
BRANCH  24  28
HETATM   28  C   UNL     1      44.141 -19.490   3.153  1.00  0.00     0.036 A 
HETATM   29  C   UNL     1      44.704 -20.265   4.168  1.00  0.00     0.029 A 
HETATM   30  C   UNL     1      44.816 -21.652   4.022  1.00  0.00     0.002 A 
HETATM   31  C   UNL     1      44.365 -22.276   2.863  1.00  0.00     0.000 A 
HETATM   32  C   UNL     1      43.794 -21.515   1.848  1.00  0.00     0.002 A 
HETATM   33  C   UNL     1      43.680 -20.129   1.993  1.00  0.00     0.029 A 
ENDBRANCH  24  28
ENDBRANCH   1  22
TORSDOF 6
ENDMDL
MODEL 10
REMARK VINA RESULT:      -8.3      4.845      8.836
REMARK  6 active torsions:
REMARK  status: ('A' for Active; 'I' for Inactive)
REMARK    1  A    between atoms: C_4  and  N_5 
REMARK       I    between atoms: N_5  and  C_6 
REMARK       I    between atoms: C_6  and  N_7 
REMARK    2  A    between atoms: N_7  and  C_8 
REMARK    3  A    between atoms: C_11  and  C_12 
REMARK    4  A    between atoms: C_12  and  C_13 
REMARK       I    between atoms: C_13  and  N_14 
REMARK    5  A    between atoms: N_14  and  C_15 
REMARK    6  A    between atoms: C_17  and  C_18 
ROOT
HETATM    1  C   UNL     1      42.536 -15.517   4.238  1.00  0.00     0.174 A 
HETATM    2  S   UNL     1      42.505 -15.263   5.924  1.00  0.00    -0.062 SA
HETATM    3  C   UNL     1      41.247 -14.112   5.707  1.00  0.00     0.081 A 
HETATM    4  C   UNL     1      40.930 -14.009   4.365  1.00  0.00     0.052 A 
HETATM    5  N   UNL     1      41.683 -14.823   3.533  1.00  0.00    -0.228 NA
ENDROOT
BRANCH   4   6
HETATM    6  C   UNL     1      39.882 -13.150   3.736  1.00  0.00     0.163 C 
BRANCH   6   7
HETATM    7  C   UNL     1      40.070 -12.982   2.235  1.00  0.00     0.227 C 
HETATM    8  N   UNL     1      39.750 -14.106   1.492  1.00  0.00    -0.327 N 
HETATM    9  H   UNL     1      39.553 -14.955   2.032  1.00  0.00     0.169 HD
HETATM   10  O   UNL     1      40.427 -11.897   1.780  1.00  0.00    -0.273 OA
BRANCH   8  11
HETATM   11  C   UNL     1      39.772 -14.252   0.093  1.00  0.00     0.035 A 
HETATM   12  C   UNL     1      38.838 -13.669  -0.768  1.00  0.00     0.048 A 
HETATM   13  C   UNL     1      38.918 -13.865  -2.159  1.00  0.00     0.088 A 
HETATM   14  C   UNL     1      39.957 -14.637  -2.668  1.00  0.00     0.131 A 
HETATM   15  F   UNL     1      40.067 -14.825  -3.990  1.00  0.00    -0.205 F 
HETATM   16  C   UNL     1      40.892 -15.228  -1.827  1.00  0.00     0.045 A 
HETATM   17  C   UNL     1      40.794 -15.043  -0.447  1.00  0.00     0.032 A 
BRANCH  13  18
HETATM   18  C   UNL     1      37.923 -13.264  -3.103  1.00  0.00     0.420 C 
HETATM   19  F   UNL     1      38.478 -12.397  -3.997  1.00  0.00    -0.166 F 
HETATM   20  F   UNL     1      37.278 -14.199  -3.855  1.00  0.00    -0.166 F 
HETATM   21  F   UNL     1      36.950 -12.551  -2.468  1.00  0.00    -0.166 F 
ENDBRANCH  13  18
ENDBRANCH   8  11
ENDBRANCH   6   7
ENDBRANCH   4   6
BRANCH   1  22
HETATM   22  N   UNL     1      43.432 -16.456   3.813  1.00  0.00    -0.287 N 
HETATM   23  C   UNL     1      43.147 -17.807   3.876  1.00  0.00     0.326 C 
HETATM   24  N   UNL     1      44.295 -18.553   3.639  1.00  0.00    -0.309 N 
HETATM   25  O   UNL     1      42.039 -18.272   4.112  1.00  0.00    -0.247 OA
HETATM   26  H   UNL     1      45.159 -18.038   3.600  1.00  0.00     0.170 HD
HETATM   27  H   UNL     1      44.255 -16.123   3.341  1.00  0.00     0.172 HD
BRANCH  24  28
HETATM   28  C   UNL     1      44.422 -19.959   3.632  1.00  0.00     0.036 A 
HETATM   29  C   UNL     1      44.272 -20.754   2.495  1.00  0.00     0.029 A 
HETATM   30  C   UNL     1      44.399 -22.145   2.581  1.00  0.00     0.002 A 
HETATM   31  C   UNL     1      44.680 -22.752   3.802  1.00  0.00     0.000 A 
HETATM   32  C   UNL     1      44.840 -21.968   4.940  1.00  0.00     0.002 A 
HETATM   33  C   UNL     1      44.715 -20.578   4.855  1.00  0.00     0.029 A 
ENDBRANCH  24  28
ENDBRANCH   1  22
TORSDOF 6
ENDMDL
