MODEL 1
REMARK VINA RESULT:      -8.9      0.000      0.000
REMARK  9 active torsions:
REMARK  status: ('A' for Active; 'I' for Inactive)
REMARK    1  A    between atoms: C_2  and  O_3 
REMARK    2  A    between atoms: O_3  and  C_4 
REMARK    3  A    between atoms: C_7  and  C_8 
REMARK       I    between atoms: C_8  and  N_9 
REMARK    4  A    between atoms: N_9  and  C_10 
REMARK    5  A    between atoms: C_10  and  N_11 
REMARK    6  A    between atoms: N_11  and  C_12 
REMARK    7  A    between atoms: C_15  and  N_16 
REMARK    8  A    between atoms: N_19  and  C_21 
REMARK    9  A    between atoms: C_21  and  C_22 
ROOT
HETATM    1  C   UNL     1      39.577 -12.038   5.234  1.00  0.00     0.034 A 
HETATM    2  C   UNL     1      39.722 -13.102   6.116  1.00  0.00     0.032 A 
HETATM    3  C   UNL     1      40.142 -14.353   5.660  1.00  0.00     0.031 A 
HETATM    4  C   UNL     1      40.426 -14.598   4.310  1.00  0.00     0.030 A 
HETATM    5  C   UNL     1      40.177 -13.544   3.421  1.00  0.00     0.031 A 
HETATM    6  C   UNL     1      39.746 -12.283   3.873  1.00  0.00     0.032 A 
ENDROOT
BRANCH   1   7
HETATM    7  N   UNL     1      39.244 -10.735   5.657  1.00  0.00    -0.333 N 
HETATM    8  H   UNL     1      38.342 -10.372   5.342  1.00  0.00     0.168 HD
BRANCH   7   9
HETATM    9  C   UNL     1      40.059  -9.780   6.222  1.00  0.00     0.179 C 
HETATM   10  S   UNL     1      40.567  -8.312   5.593  1.00  0.00    -0.040 SA
BRANCH   9  11
HETATM   11  N   UNL     1      40.492 -10.046   7.504  1.00  0.00    -0.299 N 
HETATM   12  C   UNL     1      39.782 -10.427   8.635  1.00  0.00     0.257 C 
HETATM   13  O   UNL     1      38.559 -10.437   8.706  1.00  0.00    -0.267 OA
HETATM   14  H   UNL     1      41.488  -9.903   7.603  1.00  0.00     0.171 HD
BRANCH  12  15
HETATM   15  C   UNL     1      40.641 -10.726   9.817  1.00  0.00     0.032 A 
HETATM   16  C   UNL     1      40.037 -11.023  11.040  1.00  0.00     0.020 A 
HETATM   17  C   UNL     1      40.828 -11.177  12.184  1.00  0.00     0.038 A 
HETATM   18  C   UNL     1      42.218 -11.032  12.114  1.00  0.00     0.068 A 
HETATM   19  C   UNL     1      42.824 -10.811  10.878  1.00  0.00     0.038 A 
HETATM   20  C   UNL     1      42.040 -10.661   9.731  1.00  0.00     0.020 A 
BRANCH  18  21
HETATM   21  O   UNL     1      42.880 -11.137  13.306  1.00  0.00    -0.352 OA
BRANCH  21  22
HETATM   22  C   UNL     1      42.432 -10.267  14.349  1.00  0.00     0.171 C 
HETATM   23  C   UNL     1      43.138  -8.933  14.195  1.00  0.00     0.034 C 
ENDBRANCH  21  22
ENDBRANCH  18  21
ENDBRANCH  12  15
ENDBRANCH   9  11
ENDBRANCH   7   9
ENDBRANCH   1   7
BRANCH   4  24
HETATM   24  N   UNL     1      40.902 -15.831   3.911  1.00  0.00    -0.378 N 
HETATM   25  C   UNL     1      41.232 -16.911   4.843  1.00  0.00     0.150 C 
HETATM   26  C   UNL     1      42.605 -17.513   4.453  1.00  0.00     0.255 C 
HETATM   27  N   UNL     1      42.668 -17.888   2.967  1.00  0.00    -0.064 N 
HETATM   28  H   UNL     1      42.001 -18.657   2.813  1.00  0.00     0.280 HD
HETATM   29  C   UNL     1      42.222 -16.736   2.065  1.00  0.00     0.255 C 
HETATM   30  C   UNL     1      40.840 -16.221   2.496  1.00  0.00     0.150 C 
BRANCH  27  31
HETATM   31  C   UNL     1      44.028 -18.394   2.554  1.00  0.00     0.276 C 
BRANCH  31  32
HETATM   32  C   UNL     1      44.214 -19.865   2.767  1.00  0.00     0.006 A 
HETATM   33  C   UNL     1      44.743 -20.323   3.977  1.00  0.00     0.124 A 
HETATM   34  F   UNL     1      45.120 -19.424   4.898  1.00  0.00    -0.206 F 
HETATM   35  C   UNL     1      44.909 -21.677   4.233  1.00  0.00     0.043 A 
HETATM   36  C   UNL     1      44.545 -22.604   3.260  1.00  0.00     0.003 A 
HETATM   37  C   UNL     1      44.019 -22.167   2.042  1.00  0.00     0.001 A 
HETATM   38  C   UNL     1      43.850 -20.804   1.794  1.00  0.00     0.012 A 
ENDBRANCH  31  32
ENDBRANCH  27  31
ENDBRANCH   4  24
TORSDOF 9
ENDMDL
MODEL 2
REMARK VINA RESULT:      -8.5      1.095      1.764
REMARK  9 active torsions:
REMARK  status: ('A' for Active; 'I' for Inactive)
REMARK    1  A    between atoms: C_2  and  O_3 
REMARK    2  A    between atoms: O_3  and  C_4 
REMARK    3  A    between atoms: C_7  and  C_8 
REMARK       I    between atoms: C_8  and  N_9 
REMARK    4  A    between atoms: N_9  and  C_10 
REMARK    5  A    between atoms: C_10  and  N_11 
REMARK    6  A    between atoms: N_11  and  C_12 
REMARK    7  A    between atoms: C_15  and  N_16 
REMARK    8  A    between atoms: N_19  and  C_21 
REMARK    9  A    between atoms: C_21  and  C_22 
ROOT
HETATM    1  C   UNL     1      40.212 -11.718   5.137  1.00  0.00     0.034 A 
HETATM    2  C   UNL     1      41.324 -12.058   4.378  1.00  0.00     0.032 A 
HETATM    3  C   UNL     1      41.763 -13.382   4.311  1.00  0.00     0.031 A 
HETATM    4  C   UNL     1      41.118 -14.417   5.001  1.00  0.00     0.030 A 
HETATM    5  C   UNL     1      40.061 -14.041   5.841  1.00  0.00     0.031 A 
HETATM    6  C   UNL     1      39.620 -12.707   5.920  1.00  0.00     0.032 A 
ENDROOT
BRANCH   1   7
HETATM    7  N   UNL     1      39.677 -10.414   5.166  1.00  0.00    -0.333 N 
HETATM    8  H   UNL     1      38.976 -10.194   4.455  1.00  0.00     0.168 HD
BRANCH   7   9
HETATM    9  C   UNL     1      40.137  -9.310   5.849  1.00  0.00     0.179 C 
HETATM   10  S   UNL     1      40.319  -7.732   5.315  1.00  0.00    -0.040 SA
BRANCH   9  11
HETATM   11  N   UNL     1      40.462  -9.519   7.173  1.00  0.00    -0.299 N 
HETATM   12  C   UNL     1      39.663  -9.869   8.253  1.00  0.00     0.257 C 
HETATM   13  O   UNL     1      38.438  -9.898   8.219  1.00  0.00    -0.267 OA
HETATM   14  H   UNL     1      41.443  -9.354   7.351  1.00  0.00     0.171 HD
BRANCH  12  15
HETATM   15  C   UNL     1      40.420 -10.106   9.515  1.00  0.00     0.032 A 
HETATM   16  C   UNL     1      41.796 -10.332   9.452  1.00  0.00     0.020 A 
HETATM   17  C   UNL     1      42.495 -10.684  10.612  1.00  0.00     0.038 A 
HETATM   18  C   UNL     1      41.827 -10.815  11.834  1.00  0.00     0.068 A 
HETATM   19  C   UNL     1      40.468 -10.513  11.909  1.00  0.00     0.038 A 
HETATM   20  C   UNL     1      39.765 -10.156  10.755  1.00  0.00     0.020 A 
BRANCH  18  21
HETATM   21  O   UNL     1      42.599 -11.228  12.884  1.00  0.00    -0.352 OA
BRANCH  21  22
HETATM   22  C   UNL     1      42.462 -10.478  14.094  1.00  0.00     0.171 C 
HETATM   23  C   UNL     1      43.339  -9.244  13.993  1.00  0.00     0.034 C 
ENDBRANCH  21  22
ENDBRANCH  18  21
ENDBRANCH  12  15
ENDBRANCH   9  11
ENDBRANCH   7   9
ENDBRANCH   1   7
BRANCH   4  24
HETATM   24  N   UNL     1      41.543 -15.722   4.855  1.00  0.00    -0.378 N 
HETATM   25  C   UNL     1      41.398 -16.741   5.896  1.00  0.00     0.150 C 
HETATM   26  C   UNL     1      42.735 -17.511   6.040  1.00  0.00     0.255 C 
HETATM   27  N   UNL     1      43.252 -18.023   4.690  1.00  0.00    -0.064 N 
HETATM   28  H   UNL     1      42.587 -18.732   4.352  1.00  0.00     0.280 HD
HETATM   29  C   UNL     1      43.288 -16.918   3.633  1.00  0.00     0.255 C 
HETATM   30  C   UNL     1      41.918 -16.231   3.528  1.00  0.00     0.150 C 
BRANCH  27  31
HETATM   31  C   UNL     1      44.597 -18.697   4.803  1.00  0.00     0.276 C 
BRANCH  31  32
HETATM   32  C   UNL     1      44.593 -20.128   4.356  1.00  0.00     0.006 A 
HETATM   33  C   UNL     1      44.521 -20.421   2.991  1.00  0.00     0.124 A 
HETATM   34  F   UNL     1      44.405 -19.409   2.118  1.00  0.00    -0.206 F 
HETATM   35  C   UNL     1      44.542 -21.728   2.525  1.00  0.00     0.043 A 
HETATM   36  C   UNL     1      44.632 -22.775   3.438  1.00  0.00     0.003 A 
HETATM   37  C   UNL     1      44.699 -22.504   4.807  1.00  0.00     0.001 A 
HETATM   38  C   UNL     1      44.683 -21.187   5.267  1.00  0.00     0.012 A 
ENDBRANCH  31  32
ENDBRANCH  27  31
ENDBRANCH   4  24
TORSDOF 9
ENDMDL
MODEL 3
REMARK VINA RESULT:      -8.4      3.872     10.982
REMARK  9 active torsions:
REMARK  status: ('A' for Active; 'I' for Inactive)
REMARK    1  A    between atoms: C_2  and  O_3 
REMARK    2  A    between atoms: O_3  and  C_4 
REMARK    3  A    between atoms: C_7  and  C_8 
REMARK       I    between atoms: C_8  and  N_9 
REMARK    4  A    between atoms: N_9  and  C_10 
REMARK    5  A    between atoms: C_10  and  N_11 
REMARK    6  A    between atoms: N_11  and  C_12 
REMARK    7  A    between atoms: C_15  and  N_16 
REMARK    8  A    between atoms: N_19  and  C_21 
REMARK    9  A    between atoms: C_21  and  C_22 
ROOT
HETATM    1  C   UNL     1      39.903 -13.146   3.912  1.00  0.00     0.034 A 
HETATM    2  C   UNL     1      40.022 -11.766   3.807  1.00  0.00     0.032 A 
HETATM    3  C   UNL     1      40.114 -10.969   4.951  1.00  0.00     0.031 A 
HETATM    4  C   UNL     1      40.083 -11.512   6.241  1.00  0.00     0.030 A 
HETATM    5  C   UNL     1      39.860 -12.893   6.331  1.00  0.00     0.031 A 
HETATM    6  C   UNL     1      39.759 -13.700   5.182  1.00  0.00     0.032 A 
ENDROOT
BRANCH   1   7
HETATM    7  N   UNL     1      39.897 -13.999   2.790  1.00  0.00    -0.333 N 
HETATM    8  H   UNL     1      39.076 -14.597   2.677  1.00  0.00     0.168 HD
BRANCH   7   9
HETATM    9  C   UNL     1      40.943 -14.334   1.959  1.00  0.00     0.179 C 
HETATM   10  S   UNL     1      41.508 -13.543   0.594  1.00  0.00    -0.040 SA
BRANCH   9  11
HETATM   11  N   UNL     1      41.654 -15.460   2.317  1.00  0.00    -0.299 N 
HETATM   12  C   UNL     1      41.288 -16.800   2.305  1.00  0.00     0.257 C 
HETATM   13  O   UNL     1      40.146 -17.196   2.104  1.00  0.00    -0.267 OA
HETATM   14  H   UNL     1      42.575 -15.230   2.665  1.00  0.00     0.171 HD
BRANCH  12  15
HETATM   15  C   UNL     1      42.392 -17.732   2.670  1.00  0.00     0.032 A 
HETATM   16  C   UNL     1      42.734 -18.761   1.790  1.00  0.00     0.020 A 
HETATM   17  C   UNL     1      43.678 -19.719   2.177  1.00  0.00     0.038 A 
HETATM   18  C   UNL     1      44.279 -19.658   3.438  1.00  0.00     0.068 A 
HETATM   19  C   UNL     1      43.993 -18.587   4.284  1.00  0.00     0.038 A 
HETATM   20  C   UNL     1      43.055 -17.624   3.902  1.00  0.00     0.020 A 
BRANCH  18  21
HETATM   21  O   UNL     1      45.134 -20.684   3.732  1.00  0.00    -0.352 OA
BRANCH  21  22
HETATM   22  C   UNL     1      44.633 -22.002   3.493  1.00  0.00     0.171 C 
HETATM   23  C   UNL     1      44.647 -22.764   4.805  1.00  0.00     0.034 C 
ENDBRANCH  21  22
ENDBRANCH  18  21
ENDBRANCH  12  15
ENDBRANCH   9  11
ENDBRANCH   7   9
ENDBRANCH   1   7
BRANCH   4  24
HETATM   24  N   UNL     1      40.243 -10.697   7.344  1.00  0.00    -0.378 N 
HETATM   25  C   UNL     1      41.500 -10.578   8.085  1.00  0.00     0.150 C 
HETATM   26  C   UNL     1      41.202 -10.668   9.603  1.00  0.00     0.255 C 
HETATM   27  N   UNL     1      40.095  -9.697  10.031  1.00  0.00    -0.064 N 
HETATM   28  H   UNL     1      40.453  -8.741   9.899  1.00  0.00     0.280 HD
HETATM   29  C   UNL     1      38.850  -9.822   9.150  1.00  0.00     0.255 C 
HETATM   30  C   UNL     1      39.227  -9.686   7.667  1.00  0.00     0.150 C 
BRANCH  27  31
HETATM   31  C   UNL     1      39.733  -9.837  11.488  1.00  0.00     0.276 C 
BRANCH  31  32
HETATM   32  C   UNL     1      40.884  -9.606  12.420  1.00  0.00     0.006 A 
HETATM   33  C   UNL     1      41.259 -10.616  13.311  1.00  0.00     0.124 A 
HETATM   34  F   UNL     1      40.541 -11.749  13.344  1.00  0.00    -0.206 F 
HETATM   35  C   UNL     1      42.335 -10.462  14.174  1.00  0.00     0.043 A 
HETATM   36  C   UNL     1      43.056  -9.272  14.158  1.00  0.00     0.003 A 
HETATM   37  C   UNL     1      42.695  -8.249  13.279  1.00  0.00     0.001 A 
HETATM   38  C   UNL     1      41.615  -8.413  12.410  1.00  0.00     0.012 A 
ENDBRANCH  31  32
ENDBRANCH  27  31
ENDBRANCH   4  24
TORSDOF 9
ENDMDL
MODEL 4
REMARK VINA RESULT:      -8.2      4.097     11.334
REMARK  9 active torsions:
REMARK  status: ('A' for Active; 'I' for Inactive)
REMARK    1  A    between atoms: C_2  and  O_3 
REMARK    2  A    between atoms: O_3  and  C_4 
REMARK    3  A    between atoms: C_7  and  C_8 
REMARK       I    between atoms: C_8  and  N_9 
REMARK    4  A    between atoms: N_9  and  C_10 
REMARK    5  A    between atoms: C_10  and  N_11 
REMARK    6  A    between atoms: N_11  and  C_12 
REMARK    7  A    between atoms: C_15  and  N_16 
REMARK    8  A    between atoms: N_19  and  C_21 
REMARK    9  A    between atoms: C_21  and  C_22 
ROOT
HETATM    1  C   UNL     1      39.607 -12.542   4.503  1.00  0.00     0.034 A 
HETATM    2  C   UNL     1      39.505 -11.157   4.527  1.00  0.00     0.032 A 
HETATM    3  C   UNL     1      39.430 -10.470   5.741  1.00  0.00     0.031 A 
HETATM    4  C   UNL     1      39.444 -11.132   6.975  1.00  0.00     0.030 A 
HETATM    5  C   UNL     1      39.445 -12.533   6.929  1.00  0.00     0.031 A 
HETATM    6  C   UNL     1      39.513 -13.232   5.710  1.00  0.00     0.032 A 
ENDROOT
BRANCH   1   7
HETATM    7  N   UNL     1      39.776 -13.274   3.310  1.00  0.00    -0.333 N 
HETATM    8  H   UNL     1      39.024 -13.920   3.062  1.00  0.00     0.168 HD
BRANCH   7   9
HETATM    9  C   UNL     1      40.917 -13.439   2.557  1.00  0.00     0.179 C 
HETATM   10  S   UNL     1      41.757 -12.312   1.643  1.00  0.00    -0.040 SA
BRANCH   9  11
HETATM   11  N   UNL     1      41.475 -14.700   2.583  1.00  0.00    -0.299 N 
HETATM   12  C   UNL     1      40.937 -15.931   2.232  1.00  0.00     0.257 C 
HETATM   13  O   UNL     1      39.754 -16.113   1.971  1.00  0.00    -0.267 OA
HETATM   14  H   UNL     1      42.417 -14.688   2.949  1.00  0.00     0.171 HD
BRANCH  12  15
HETATM   15  C   UNL     1      41.909 -17.059   2.303  1.00  0.00     0.032 A 
HETATM   16  C   UNL     1      42.083 -17.734   3.513  1.00  0.00     0.020 A 
HETATM   17  C   UNL     1      43.083 -18.706   3.627  1.00  0.00     0.038 A 
HETATM   18  C   UNL     1      43.913 -19.005   2.542  1.00  0.00     0.068 A 
HETATM   19  C   UNL     1      43.688 -18.385   1.314  1.00  0.00     0.038 A 
HETATM   20  C   UNL     1      42.687 -17.417   1.192  1.00  0.00     0.020 A 
BRANCH  18  21
HETATM   21  O   UNL     1      44.897 -19.921   2.791  1.00  0.00    -0.352 OA
BRANCH  21  22
HETATM   22  C   UNL     1      44.458 -21.261   3.028  1.00  0.00     0.171 C 
HETATM   23  C   UNL     1      44.180 -21.918   1.689  1.00  0.00     0.034 C 
ENDBRANCH  21  22
ENDBRANCH  18  21
ENDBRANCH  12  15
ENDBRANCH   9  11
ENDBRANCH   7   9
ENDBRANCH   1   7
BRANCH   4  24
HETATM   24  N   UNL     1      39.434 -10.412   8.152  1.00  0.00    -0.378 N 
HETATM   25  C   UNL     1      38.821  -9.089   8.286  1.00  0.00     0.150 C 
HETATM   26  C   UNL     1      39.799  -8.152   9.039  1.00  0.00     0.255 C 
HETATM   27  N   UNL     1      40.302  -8.777  10.347  1.00  0.00    -0.064 N 
HETATM   28  H   UNL     1      39.494  -8.862  10.980  1.00  0.00     0.280 HD
HETATM   29  C   UNL     1      40.843 -10.192  10.136  1.00  0.00     0.255 C 
HETATM   30  C   UNL     1      39.802 -11.063   9.417  1.00  0.00     0.150 C 
BRANCH  27  31
HETATM   31  C   UNL     1      41.322  -7.914  11.046  1.00  0.00     0.276 C 
BRANCH  31  32
HETATM   32  C   UNL     1      41.743  -8.442  12.384  1.00  0.00     0.006 A 
HETATM   33  C   UNL     1      40.821  -8.463  13.435  1.00  0.00     0.124 A 
HETATM   34  F   UNL     1      39.595  -7.958  13.230  1.00  0.00    -0.206 F 
HETATM   35  C   UNL     1      41.153  -8.967  14.685  1.00  0.00     0.043 A 
HETATM   36  C   UNL     1      42.438  -9.460  14.901  1.00  0.00     0.003 A 
HETATM   37  C   UNL     1      43.375  -9.444  13.866  1.00  0.00     0.001 A 
HETATM   38  C   UNL     1      43.032  -8.940  12.610  1.00  0.00     0.012 A 
ENDBRANCH  31  32
ENDBRANCH  27  31
ENDBRANCH   4  24
TORSDOF 9
ENDMDL
MODEL 5
REMARK VINA RESULT:      -8.0      4.244      6.253
REMARK  9 active torsions:
REMARK  status: ('A' for Active; 'I' for Inactive)
REMARK    1  A    between atoms: C_2  and  O_3 
REMARK    2  A    between atoms: O_3  and  C_4 
REMARK    3  A    between atoms: C_7  and  C_8 
REMARK       I    between atoms: C_8  and  N_9 
REMARK    4  A    between atoms: N_9  and  C_10 
REMARK    5  A    between atoms: C_10  and  N_11 
REMARK    6  A    between atoms: N_11  and  C_12 
REMARK    7  A    between atoms: C_15  and  N_16 
REMARK    8  A    between atoms: N_19  and  C_21 
REMARK    9  A    between atoms: C_21  and  C_22 
ROOT
HETATM    1  C   UNL     1      41.739 -13.000   5.475  1.00  0.00     0.034 A 
HETATM    2  C   UNL     1      42.617 -13.253   4.428  1.00  0.00     0.032 A 
HETATM    3  C   UNL     1      42.162 -13.827   3.239  1.00  0.00     0.031 A 
HETATM    4  C   UNL     1      40.820 -14.179   3.047  1.00  0.00     0.030 A 
HETATM    5  C   UNL     1      39.969 -14.011   4.149  1.00  0.00     0.031 A 
HETATM    6  C   UNL     1      40.423 -13.441   5.352  1.00  0.00     0.032 A 
ENDROOT
BRANCH   1   7
HETATM    7  N   UNL     1      42.131 -12.342   6.658  1.00  0.00    -0.333 N 
HETATM    8  H   UNL     1      42.734 -12.869   7.293  1.00  0.00     0.168 HD
BRANCH   7   9
HETATM    9  C   UNL     1      41.622 -11.188   7.209  1.00  0.00     0.179 C 
HETATM   10  S   UNL     1      40.762  -9.951   6.473  1.00  0.00    -0.040 SA
BRANCH   9  11
HETATM   11  N   UNL     1      41.809 -11.040   8.567  1.00  0.00    -0.299 N 
HETATM   12  C   UNL     1      42.975 -10.885   9.305  1.00  0.00     0.257 C 
HETATM   13  O   UNL     1      44.102 -11.019   8.842  1.00  0.00    -0.267 OA
HETATM   14  H   UNL     1      40.936 -11.084   9.075  1.00  0.00     0.171 HD
BRANCH  12  15
HETATM   15  C   UNL     1      42.745 -10.646  10.758  1.00  0.00     0.032 A 
HETATM   16  C   UNL     1      43.734 -10.008  11.509  1.00  0.00     0.020 A 
HETATM   17  C   UNL     1      43.587  -9.894  12.896  1.00  0.00     0.038 A 
HETATM   18  C   UNL     1      42.460 -10.417  13.537  1.00  0.00     0.068 A 
HETATM   19  C   UNL     1      41.438 -10.985  12.777  1.00  0.00     0.038 A 
HETATM   20  C   UNL     1      41.577 -11.097  11.391  1.00  0.00     0.020 A 
BRANCH  18  21
HETATM   21  O   UNL     1      42.455 -10.307  14.901  1.00  0.00    -0.352 OA
BRANCH  21  22
HETATM   22  C   UNL     1      41.294  -9.703  15.475  1.00  0.00     0.171 C 
HETATM   23  C   UNL     1      41.704  -8.387  16.109  1.00  0.00     0.034 C 
ENDBRANCH  21  22
ENDBRANCH  18  21
ENDBRANCH  12  15
ENDBRANCH   9  11
ENDBRANCH   7   9
ENDBRANCH   1   7
BRANCH   4  24
HETATM   24  N   UNL     1      40.398 -14.682   1.833  1.00  0.00    -0.378 N 
HETATM   25  C   UNL     1      41.065 -15.785   1.139  1.00  0.00     0.150 C 
HETATM   26  C   UNL     1      41.239 -15.411  -0.354  1.00  0.00     0.255 C 
HETATM   27  N   UNL     1      39.923 -14.941  -0.986  1.00  0.00    -0.064 N 
HETATM   28  H   UNL     1      39.280 -15.745  -0.999  1.00  0.00     0.280 HD
HETATM   29  C   UNL     1      39.244 -13.852  -0.153  1.00  0.00     0.255 C 
HETATM   30  C   UNL     1      39.078 -14.315   1.302  1.00  0.00     0.150 C 
BRANCH  27  31
HETATM   31  C   UNL     1      40.095 -14.490  -2.415  1.00  0.00     0.276 C 
BRANCH  31  32
HETATM   32  C   UNL     1      38.819 -14.054  -3.068  1.00  0.00     0.006 A 
HETATM   33  C   UNL     1      37.955 -15.016  -3.598  1.00  0.00     0.124 A 
HETATM   34  F   UNL     1      38.319 -16.306  -3.554  1.00  0.00    -0.206 F 
HETATM   35  C   UNL     1      36.748 -14.666  -4.188  1.00  0.00     0.043 A 
HETATM   36  C   UNL     1      36.390 -13.322  -4.259  1.00  0.00     0.003 A 
HETATM   37  C   UNL     1      37.242 -12.344  -3.740  1.00  0.00     0.001 A 
HETATM   38  C   UNL     1      38.451 -12.705  -3.144  1.00  0.00     0.012 A 
ENDBRANCH  31  32
ENDBRANCH  27  31
ENDBRANCH   4  24
TORSDOF 9
ENDMDL
MODEL 6
REMARK VINA RESULT:      -7.8      1.558      2.059
REMARK  9 active torsions:
REMARK  status: ('A' for Active; 'I' for Inactive)
REMARK    1  A    between atoms: C_2  and  O_3 
REMARK    2  A    between atoms: O_3  and  C_4 
REMARK    3  A    between atoms: C_7  and  C_8 
REMARK       I    between atoms: C_8  and  N_9 
REMARK    4  A    between atoms: N_9  and  C_10 
REMARK    5  A    between atoms: C_10  and  N_11 
REMARK    6  A    between atoms: N_11  and  C_12 
REMARK    7  A    between atoms: C_15  and  N_16 
REMARK    8  A    between atoms: N_19  and  C_21 
REMARK    9  A    between atoms: C_21  and  C_22 
ROOT
HETATM    1  C   UNL     1      40.178 -12.298   5.189  1.00  0.00     0.034 A 
HETATM    2  C   UNL     1      40.806 -12.366   3.952  1.00  0.00     0.032 A 
HETATM    3  C   UNL     1      41.193 -13.597   3.416  1.00  0.00     0.031 A 
HETATM    4  C   UNL     1      40.978 -14.805   4.092  1.00  0.00     0.030 A 
HETATM    5  C   UNL     1      40.437 -14.709   5.381  1.00  0.00     0.031 A 
HETATM    6  C   UNL     1      40.053 -13.472   5.930  1.00  0.00     0.032 A 
ENDROOT
BRANCH   1   7
HETATM    7  N   UNL     1      39.689 -11.093   5.731  1.00  0.00    -0.333 N 
HETATM    8  H   UNL     1      38.706 -10.878   5.550  1.00  0.00     0.168 HD
BRANCH   7   9
HETATM    9  C   UNL     1      40.399 -10.036   6.256  1.00  0.00     0.179 C 
HETATM   10  S   UNL     1      41.224  -8.813   5.460  1.00  0.00    -0.040 SA
BRANCH   9  11
HETATM   11  N   UNL     1      40.404  -9.943   7.632  1.00  0.00    -0.299 N 
HETATM   12  C   UNL     1      41.457  -9.997   8.535  1.00  0.00     0.257 C 
HETATM   13  O   UNL     1      42.603 -10.310   8.234  1.00  0.00    -0.267 OA
HETATM   14  H   UNL     1      39.470  -9.849   8.007  1.00  0.00     0.171 HD
BRANCH  12  15
HETATM   15  C   UNL     1      41.055  -9.746   9.949  1.00  0.00     0.032 A 
HETATM   16  C   UNL     1      41.250  -8.477  10.497  1.00  0.00     0.020 A 
HETATM   17  C   UNL     1      40.998  -8.264  11.858  1.00  0.00     0.038 A 
HETATM   18  C   UNL     1      40.558  -9.311  12.673  1.00  0.00     0.068 A 
HETATM   19  C   UNL     1      40.291 -10.557  12.107  1.00  0.00     0.038 A 
HETATM   20  C   UNL     1      40.536 -10.775  10.748  1.00  0.00     0.020 A 
BRANCH  18  21
HETATM   21  O   UNL     1      40.411  -9.003  13.998  1.00  0.00    -0.352 OA
BRANCH  21  22
HETATM   22  C   UNL     1      41.593  -8.566  14.673  1.00  0.00     0.171 C 
HETATM   23  C   UNL     1      42.386  -9.791  15.089  1.00  0.00     0.034 C 
ENDBRANCH  21  22
ENDBRANCH  18  21
ENDBRANCH  12  15
ENDBRANCH   9  11
ENDBRANCH   7   9
ENDBRANCH   1   7
BRANCH   4  24
HETATM   24  N   UNL     1      41.315 -16.005   3.498  1.00  0.00    -0.378 N 
HETATM   25  C   UNL     1      41.202 -17.300   4.171  1.00  0.00     0.150 C 
HETATM   26  C   UNL     1      42.501 -18.110   3.932  1.00  0.00     0.255 C 
HETATM   27  N   UNL     1      42.872 -18.174   2.444  1.00  0.00    -0.064 N 
HETATM   28  H   UNL     1      42.141 -18.720   1.966  1.00  0.00     0.280 HD
HETATM   29  C   UNL     1      42.880 -16.790   1.794  1.00  0.00     0.255 C 
HETATM   30  C   UNL     1      41.547 -16.070   2.048  1.00  0.00     0.150 C 
BRANCH  27  31
HETATM   31  C   UNL     1      44.181 -18.885   2.205  1.00  0.00     0.276 C 
BRANCH  31  32
HETATM   32  C   UNL     1      44.381 -20.089   3.072  1.00  0.00     0.006 A 
HETATM   33  C   UNL     1      44.288 -21.365   2.509  1.00  0.00     0.124 A 
HETATM   34  F   UNL     1      43.968 -21.476   1.210  1.00  0.00    -0.206 F 
HETATM   35  C   UNL     1      44.492 -22.512   3.264  1.00  0.00     0.043 A 
HETATM   36  C   UNL     1      44.792 -22.391   4.618  1.00  0.00     0.003 A 
HETATM   37  C   UNL     1      44.884 -21.126   5.202  1.00  0.00     0.001 A 
HETATM   38  C   UNL     1      44.683 -19.977   4.435  1.00  0.00     0.012 A 
ENDBRANCH  31  32
ENDBRANCH  27  31
ENDBRANCH   4  24
TORSDOF 9
ENDMDL
MODEL 7
REMARK VINA RESULT:      -7.8      3.761     10.684
REMARK  9 active torsions:
REMARK  status: ('A' for Active; 'I' for Inactive)
REMARK    1  A    between atoms: C_2  and  O_3 
REMARK    2  A    between atoms: O_3  and  C_4 
REMARK    3  A    between atoms: C_7  and  C_8 
REMARK       I    between atoms: C_8  and  N_9 
REMARK    4  A    between atoms: N_9  and  C_10 
REMARK    5  A    between atoms: C_10  and  N_11 
REMARK    6  A    between atoms: N_11  and  C_12 
REMARK    7  A    between atoms: C_15  and  N_16 
REMARK    8  A    between atoms: N_19  and  C_21 
REMARK    9  A    between atoms: C_21  and  C_22 
ROOT
HETATM    1  C   UNL     1      39.773 -11.650   3.424  1.00  0.00     0.034 A 
HETATM    2  C   UNL     1      39.124 -12.239   4.501  1.00  0.00     0.032 A 
HETATM    3  C   UNL     1      39.432 -11.864   5.811  1.00  0.00     0.031 A 
HETATM    4  C   UNL     1      40.401 -10.895   6.100  1.00  0.00     0.030 A 
HETATM    5  C   UNL     1      41.117 -10.385   5.008  1.00  0.00     0.031 A 
HETATM    6  C   UNL     1      40.817 -10.765   3.687  1.00  0.00     0.032 A 
ENDROOT
BRANCH   1   7
HETATM    7  N   UNL     1      39.435 -11.928   2.084  1.00  0.00    -0.333 N 
HETATM    8  H   UNL     1      38.463 -11.761   1.815  1.00  0.00     0.168 HD
BRANCH   7   9
HETATM    9  C   UNL     1      40.156 -12.630   1.144  1.00  0.00     0.179 C 
HETATM   10  S   UNL     1      40.624 -12.167  -0.397  1.00  0.00    -0.040 SA
BRANCH   9  11
HETATM   11  N   UNL     1      40.588 -13.880   1.534  1.00  0.00    -0.299 N 
HETATM   12  C   UNL     1      39.870 -15.032   1.829  1.00  0.00     0.257 C 
HETATM   13  O   UNL     1      38.651 -15.069   1.943  1.00  0.00    -0.267 OA
HETATM   14  H   UNL     1      41.593 -13.916   1.637  1.00  0.00     0.171 HD
BRANCH  12  15
HETATM   15  C   UNL     1      40.723 -16.222   2.111  1.00  0.00     0.032 A 
HETATM   16  C   UNL     1      41.056 -16.524   3.432  1.00  0.00     0.020 A 
HETATM   17  C   UNL     1      41.960 -17.559   3.700  1.00  0.00     0.038 A 
HETATM   18  C   UNL     1      42.535 -18.290   2.656  1.00  0.00     0.068 A 
HETATM   19  C   UNL     1      42.142 -18.037   1.342  1.00  0.00     0.038 A 
HETATM   20  C   UNL     1      41.236 -17.008   1.068  1.00  0.00     0.020 A 
BRANCH  18  21
HETATM   21  O   UNL     1      43.454 -19.230   3.033  1.00  0.00    -0.352 OA
BRANCH  21  22
HETATM   22  C   UNL     1      43.690 -20.284   2.097  1.00  0.00     0.171 C 
HETATM   23  C   UNL     1      44.438 -21.397   2.807  1.00  0.00     0.034 C 
ENDBRANCH  21  22
ENDBRANCH  18  21
ENDBRANCH  12  15
ENDBRANCH   9  11
ENDBRANCH   7   9
ENDBRANCH   1   7
BRANCH   4  24
HETATM   24  N   UNL     1      40.629 -10.505   7.405  1.00  0.00    -0.378 N 
HETATM   25  C   UNL     1      41.890  -9.923   7.866  1.00  0.00     0.150 C 
HETATM   26  C   UNL     1      42.312 -10.612   9.188  1.00  0.00     0.255 C 
HETATM   27  N   UNL     1      41.177 -10.619  10.220  1.00  0.00    -0.064 N 
HETATM   28  H   UNL     1      40.997  -9.642  10.490  1.00  0.00     0.280 HD
HETATM   29  C   UNL     1      39.871 -11.157   9.634  1.00  0.00     0.255 C 
HETATM   30  C   UNL     1      39.507 -10.399   8.348  1.00  0.00     0.150 C 
BRANCH  27  31
HETATM   31  C   UNL     1      41.543 -11.364  11.480  1.00  0.00     0.276 C 
BRANCH  31  32
HETATM   32  C   UNL     1      41.871 -10.469  12.636  1.00  0.00     0.006 A 
HETATM   33  C   UNL     1      43.191 -10.051  12.830  1.00  0.00     0.124 A 
HETATM   34  F   UNL     1      44.141 -10.509  12.001  1.00  0.00    -0.206 F 
HETATM   35  C   UNL     1      43.541  -9.201  13.869  1.00  0.00     0.043 A 
HETATM   36  C   UNL     1      42.554  -8.755  14.745  1.00  0.00     0.003 A 
HETATM   37  C   UNL     1      41.230  -9.164  14.572  1.00  0.00     0.001 A 
HETATM   38  C   UNL     1      40.886 -10.015  13.522  1.00  0.00     0.012 A 
ENDBRANCH  31  32
ENDBRANCH  27  31
ENDBRANCH   4  24
TORSDOF 9
ENDMDL
MODEL 8
REMARK VINA RESULT:      -7.8      4.303     10.843
REMARK  9 active torsions:
REMARK  status: ('A' for Active; 'I' for Inactive)
REMARK    1  A    between atoms: C_2  and  O_3 
REMARK    2  A    between atoms: O_3  and  C_4 
REMARK    3  A    between atoms: C_7  and  C_8 
REMARK       I    between atoms: C_8  and  N_9 
REMARK    4  A    between atoms: N_9  and  C_10 
REMARK    5  A    between atoms: C_10  and  N_11 
REMARK    6  A    between atoms: N_11  and  C_12 
REMARK    7  A    between atoms: C_15  and  N_16 
REMARK    8  A    between atoms: N_19  and  C_21 
REMARK    9  A    between atoms: C_21  and  C_22 
ROOT
HETATM    1  C   UNL     1      40.263 -11.965   3.247  1.00  0.00     0.034 A 
HETATM    2  C   UNL     1      41.490 -11.921   3.898  1.00  0.00     0.032 A 
HETATM    3  C   UNL     1      41.593 -11.393   5.187  1.00  0.00     0.031 A 
HETATM    4  C   UNL     1      40.485 -10.881   5.874  1.00  0.00     0.030 A 
HETATM    5  C   UNL     1      39.277 -10.840   5.164  1.00  0.00     0.031 A 
HETATM    6  C   UNL     1      39.168 -11.363   3.862  1.00  0.00     0.032 A 
ENDROOT
BRANCH   1   7
HETATM    7  N   UNL     1      40.091 -12.569   1.985  1.00  0.00    -0.333 N 
HETATM    8  H   UNL     1      40.195 -11.960   1.171  1.00  0.00     0.168 HD
BRANCH   7   9
HETATM    9  C   UNL     1      39.554 -13.802   1.688  1.00  0.00     0.179 C 
HETATM   10  S   UNL     1      38.061 -14.177   1.025  1.00  0.00    -0.040 SA
BRANCH   9  11
HETATM   11  N   UNL     1      40.371 -14.885   1.934  1.00  0.00    -0.299 N 
HETATM   12  C   UNL     1      41.201 -15.601   1.081  1.00  0.00     0.257 C 
HETATM   13  O   UNL     1      41.216 -15.462  -0.136  1.00  0.00    -0.267 OA
HETATM   14  H   UNL     1      40.306 -15.196   2.893  1.00  0.00     0.171 HD
BRANCH  12  15
HETATM   15  C   UNL     1      42.011 -16.650   1.764  1.00  0.00     0.032 A 
HETATM   16  C   UNL     1      43.029 -17.291   1.057  1.00  0.00     0.020 A 
HETATM   17  C   UNL     1      43.709 -18.365   1.643  1.00  0.00     0.038 A 
HETATM   18  C   UNL     1      43.375 -18.804   2.928  1.00  0.00     0.068 A 
HETATM   19  C   UNL     1      42.411 -18.113   3.661  1.00  0.00     0.038 A 
HETATM   20  C   UNL     1      41.732 -17.036   3.083  1.00  0.00     0.020 A 
BRANCH  18  21
HETATM   21  O   UNL     1      44.059 -19.903   3.370  1.00  0.00    -0.352 OA
BRANCH  21  22
HETATM   22  C   UNL     1      44.519 -19.849   4.723  1.00  0.00     0.171 C 
HETATM   23  C   UNL     1      44.713 -21.270   5.219  1.00  0.00     0.034 C 
ENDBRANCH  21  22
ENDBRANCH  18  21
ENDBRANCH  12  15
ENDBRANCH   9  11
ENDBRANCH   7   9
ENDBRANCH   1   7
BRANCH   4  24
HETATM   24  N   UNL     1      40.617 -10.428   7.171  1.00  0.00    -0.378 N 
HETATM   25  C   UNL     1      41.893 -10.011   7.756  1.00  0.00     0.150 C 
HETATM   26  C   UNL     1      42.039 -10.650   9.160  1.00  0.00     0.255 C 
HETATM   27  N   UNL     1      40.805 -10.402  10.036  1.00  0.00    -0.064 N 
HETATM   28  H   UNL     1      40.754  -9.391  10.222  1.00  0.00     0.280 HD
HETATM   29  C   UNL     1      39.507 -10.779   9.319  1.00  0.00     0.255 C 
HETATM   30  C   UNL     1      39.424 -10.078   7.955  1.00  0.00     0.150 C 
BRANCH  27  31
HETATM   31  C   UNL     1      40.896 -11.093  11.374  1.00  0.00     0.276 C 
BRANCH  31  32
HETATM   32  C   UNL     1      41.489 -10.240  12.453  1.00  0.00     0.006 A 
HETATM   33  C   UNL     1      40.650  -9.447  13.241  1.00  0.00     0.124 A 
HETATM   34  F   UNL     1      39.335  -9.432  12.973  1.00  0.00    -0.206 F 
HETATM   35  C   UNL     1      41.147  -8.660  14.272  1.00  0.00     0.043 A 
HETATM   36  C   UNL     1      42.516  -8.656  14.525  1.00  0.00     0.003 A 
HETATM   37  C   UNL     1      43.372  -9.437  13.746  1.00  0.00     0.001 A 
HETATM   38  C   UNL     1      42.864 -10.229  12.715  1.00  0.00     0.012 A 
ENDBRANCH  31  32
ENDBRANCH  27  31
ENDBRANCH   4  24
TORSDOF 9
ENDMDL
MODEL 9
REMARK VINA RESULT:      -7.7      6.265     10.483
REMARK  9 active torsions:
REMARK  status: ('A' for Active; 'I' for Inactive)
REMARK    1  A    between atoms: C_2  and  O_3 
REMARK    2  A    between atoms: O_3  and  C_4 
REMARK    3  A    between atoms: C_7  and  C_8 
REMARK       I    between atoms: C_8  and  N_9 
REMARK    4  A    between atoms: N_9  and  C_10 
REMARK    5  A    between atoms: C_10  and  N_11 
REMARK    6  A    between atoms: N_11  and  C_12 
REMARK    7  A    between atoms: C_15  and  N_16 
REMARK    8  A    between atoms: N_19  and  C_21 
REMARK    9  A    between atoms: C_21  and  C_22 
ROOT
HETATM    1  C   UNL     1      41.467 -15.357  -0.394  1.00  0.00     0.034 A 
HETATM    2  C   UNL     1      41.365 -14.359   0.566  1.00  0.00     0.032 A 
HETATM    3  C   UNL     1      41.492 -14.661   1.924  1.00  0.00     0.031 A 
HETATM    4  C   UNL     1      41.716 -15.966   2.380  1.00  0.00     0.030 A 
HETATM    5  C   UNL     1      41.714 -16.974   1.405  1.00  0.00     0.031 A 
HETATM    6  C   UNL     1      41.579 -16.678   0.037  1.00  0.00     0.032 A 
ENDROOT
BRANCH   1   7
HETATM    7  N   UNL     1      41.436 -15.091  -1.778  1.00  0.00    -0.333 N 
HETATM    8  H   UNL     1      41.856 -15.797  -2.386  1.00  0.00     0.168 HD
BRANCH   7   9
HETATM    9  C   UNL     1      41.150 -13.907  -2.420  1.00  0.00     0.179 C 
HETATM   10  S   UNL     1      42.141 -12.584  -2.696  1.00  0.00    -0.040 SA
BRANCH   9  11
HETATM   11  N   UNL     1      39.879 -13.803  -2.945  1.00  0.00    -0.299 N 
HETATM   12  C   UNL     1      38.667 -13.524  -2.327  1.00  0.00     0.257 C 
HETATM   13  O   UNL     1      38.513 -13.475  -1.112  1.00  0.00    -0.267 OA
HETATM   14  H   UNL     1      39.864 -13.995  -3.937  1.00  0.00     0.171 HD
BRANCH  12  15
HETATM   15  C   UNL     1      37.521 -13.393  -3.271  1.00  0.00     0.032 A 
HETATM   16  C   UNL     1      36.972 -12.131  -3.505  1.00  0.00     0.020 A 
HETATM   17  C   UNL     1      35.817 -12.013  -4.287  1.00  0.00     0.038 A 
HETATM   18  C   UNL     1      35.205 -13.146  -4.831  1.00  0.00     0.068 A 
HETATM   19  C   UNL     1      35.799 -14.396  -4.660  1.00  0.00     0.038 A 
HETATM   20  C   UNL     1      36.956 -14.521  -3.885  1.00  0.00     0.020 A 
BRANCH  18  21
HETATM   21  O   UNL     1      34.046 -12.916  -5.519  1.00  0.00    -0.352 OA
BRANCH  21  22
HETATM   22  C   UNL     1      33.327 -11.735  -5.153  1.00  0.00     0.171 C 
HETATM   23  C   UNL     1      32.184 -12.135  -4.240  1.00  0.00     0.034 C 
ENDBRANCH  21  22
ENDBRANCH  18  21
ENDBRANCH  12  15
ENDBRANCH   9  11
ENDBRANCH   7   9
ENDBRANCH   1   7
BRANCH   4  24
HETATM   24  N   UNL     1      41.902 -16.212   3.725  1.00  0.00    -0.378 N 
HETATM   25  C   UNL     1      42.779 -15.411   4.580  1.00  0.00     0.150 C 
HETATM   26  C   UNL     1      43.652 -16.360   5.440  1.00  0.00     0.255 C 
HETATM   27  N   UNL     1      42.809 -17.413   6.170  1.00  0.00    -0.064 N 
HETATM   28  H   UNL     1      42.221 -16.919   6.856  1.00  0.00     0.280 HD
HETATM   29  C   UNL     1      41.855 -18.142   5.222  1.00  0.00     0.255 C 
HETATM   30  C   UNL     1      41.004 -17.134   4.436  1.00  0.00     0.150 C 
BRANCH  27  31
HETATM   31  C   UNL     1      43.653 -18.398   6.940  1.00  0.00     0.276 C 
BRANCH  31  32
HETATM   32  C   UNL     1      44.122 -19.561   6.120  1.00  0.00     0.006 A 
HETATM   33  C   UNL     1      43.955 -20.859   6.610  1.00  0.00     0.124 A 
HETATM   34  F   UNL     1      43.424 -21.026   7.830  1.00  0.00    -0.206 F 
HETATM   35  C   UNL     1      44.347 -21.971   5.876  1.00  0.00     0.043 A 
HETATM   36  C   UNL     1      44.926 -21.789   4.623  1.00  0.00     0.003 A 
HETATM   37  C   UNL     1      45.107 -20.500   4.117  1.00  0.00     0.001 A 
HETATM   38  C   UNL     1      44.705 -19.388   4.858  1.00  0.00     0.012 A 
ENDBRANCH  31  32
ENDBRANCH  27  31
ENDBRANCH   4  24
TORSDOF 9
ENDMDL
MODEL 10
REMARK VINA RESULT:      -7.6      3.803     10.225
REMARK  9 active torsions:
REMARK  status: ('A' for Active; 'I' for Inactive)
REMARK    1  A    between atoms: C_2  and  O_3 
REMARK    2  A    between atoms: O_3  and  C_4 
REMARK    3  A    between atoms: C_7  and  C_8 
REMARK       I    between atoms: C_8  and  N_9 
REMARK    4  A    between atoms: N_9  and  C_10 
REMARK    5  A    between atoms: C_10  and  N_11 
REMARK    6  A    between atoms: N_11  and  C_12 
REMARK    7  A    between atoms: C_15  and  N_16 
REMARK    8  A    between atoms: N_19  and  C_21 
REMARK    9  A    between atoms: C_21  and  C_22 
ROOT
HETATM    1  C   UNL     1      40.202 -12.121   3.726  1.00  0.00     0.034 A 
HETATM    2  C   UNL     1      39.202 -11.216   4.058  1.00  0.00     0.032 A 
HETATM    3  C   UNL     1      39.139 -10.661   5.339  1.00  0.00     0.031 A 
HETATM    4  C   UNL     1      40.062 -10.991   6.340  1.00  0.00     0.030 A 
HETATM    5  C   UNL     1      41.001 -11.981   6.019  1.00  0.00     0.031 A 
HETATM    6  C   UNL     1      41.065 -12.549   4.734  1.00  0.00     0.032 A 
ENDROOT
BRANCH   1   7
HETATM    7  N   UNL     1      40.362 -12.639   2.425  1.00  0.00    -0.333 N 
HETATM    8  H   UNL     1      40.687 -11.983   1.711  1.00  0.00     0.168 HD
BRANCH   7   9
HETATM    9  C   UNL     1      39.906 -13.833   1.913  1.00  0.00     0.179 C 
HETATM   10  S   UNL     1      38.469 -14.165   1.116  1.00  0.00    -0.040 SA
BRANCH   9  11
HETATM   11  N   UNL     1      40.765 -14.904   2.037  1.00  0.00    -0.299 N 
HETATM   12  C   UNL     1      42.148 -14.941   2.163  1.00  0.00     0.257 C 
HETATM   13  O   UNL     1      42.876 -13.966   2.020  1.00  0.00    -0.267 OA
HETATM   14  H   UNL     1      40.275 -15.787   1.997  1.00  0.00     0.171 HD
BRANCH  12  15
HETATM   15  C   UNL     1      42.699 -16.309   2.383  1.00  0.00     0.032 A 
HETATM   16  C   UNL     1      43.006 -16.719   3.681  1.00  0.00     0.020 A 
HETATM   17  C   UNL     1      43.643 -17.948   3.887  1.00  0.00     0.038 A 
HETATM   18  C   UNL     1      43.979 -18.767   2.804  1.00  0.00     0.068 A 
HETATM   19  C   UNL     1      43.602 -18.390   1.516  1.00  0.00     0.038 A 
HETATM   20  C   UNL     1      42.961 -17.167   1.304  1.00  0.00     0.020 A 
BRANCH  18  21
HETATM   21  O   UNL     1      44.659 -19.911   3.121  1.00  0.00    -0.352 OA
BRANCH  21  22
HETATM   22  C   UNL     1      44.470 -21.015   2.233  1.00  0.00     0.171 C 
HETATM   23  C   UNL     1      44.407 -22.287   3.058  1.00  0.00     0.034 C 
ENDBRANCH  21  22
ENDBRANCH  18  21
ENDBRANCH  12  15
ENDBRANCH   9  11
ENDBRANCH   7   9
ENDBRANCH   1   7
BRANCH   4  24
HETATM   24  N   UNL     1      40.004 -10.371   7.572  1.00  0.00    -0.378 N 
HETATM   25  C   UNL     1      40.201  -8.933   7.763  1.00  0.00     0.150 C 
HETATM   26  C   UNL     1      41.165  -8.709   8.955  1.00  0.00     0.255 C 
HETATM   27  N   UNL     1      40.725  -9.482  10.205  1.00  0.00    -0.064 N 
HETATM   28  H   UNL     1      39.833  -9.077  10.521  1.00  0.00     0.280 HD
HETATM   29  C   UNL     1      40.453 -10.956   9.901  1.00  0.00     0.255 C 
HETATM   30  C   UNL     1      39.463 -11.090   8.734  1.00  0.00     0.150 C 
BRANCH  27  31
HETATM   31  C   UNL     1      41.702  -9.343  11.346  1.00  0.00     0.276 C 
BRANCH  31  32
HETATM   32  C   UNL     1      42.866 -10.282  11.259  1.00  0.00     0.006 A 
HETATM   33  C   UNL     1      42.856 -11.460  12.011  1.00  0.00     0.124 A 
HETATM   34  F   UNL     1      41.822 -11.693  12.833  1.00  0.00    -0.206 F 
HETATM   35  C   UNL     1      43.898 -12.376  11.945  1.00  0.00     0.043 A 
HETATM   36  C   UNL     1      44.983 -12.112  11.113  1.00  0.00     0.003 A 
HETATM   37  C   UNL     1      45.015 -10.938  10.358  1.00  0.00     0.001 A 
HETATM   38  C   UNL     1      43.962 -10.026  10.426  1.00  0.00     0.012 A 
ENDBRANCH  31  32
ENDBRANCH  27  31
ENDBRANCH   4  24
TORSDOF 9
ENDMDL
