MODEL 1
REMARK VINA RESULT:      -9.3      0.000      0.000
REMARK  6 active torsions:
REMARK  status: ('A' for Active; 'I' for Inactive)
REMARK    1  A    between atoms: C_7  and  C_8 
REMARK    2  A    between atoms: N_9  and  N_10 
REMARK       I    between atoms: N_10  and  C_11 
REMARK    3  A    between atoms: C_11  and  C_12 
REMARK    4  A    between atoms: C_12  and  N_13 
REMARK       I    between atoms: N_13  and  C_14 
REMARK    5  A    between atoms: C_14  and  C_15 
REMARK    6  A    between atoms: C_16  and  C_17 
ROOT
HETATM    1  N   UNL     1      43.720 -14.069   6.838  1.00  0.00    -0.246 N 
HETATM    2  C   UNL     1      44.354 -13.249   7.761  1.00  0.00     0.255 C 
HETATM    3  O   UNL     1      45.354 -13.539   8.416  1.00  0.00    -0.270 OA
HETATM    4  H   UNL     1      42.854 -13.750   6.396  1.00  0.00     0.192 HD
ENDROOT
BRANCH   1   5
HETATM    5  N   UNL     1      44.199 -15.322   6.595  1.00  0.00    -0.184 NA
HETATM    6  C   UNL     1      43.344 -16.165   6.115  1.00  0.00     0.153 C 
BRANCH   6   7
HETATM    7  C   UNL     1      43.757 -17.525   5.816  1.00  0.00     0.018 A 
HETATM    8  C   UNL     1      44.084 -18.472   6.779  1.00  0.00     0.018 A 
HETATM    9  C   UNL     1      44.108 -18.390   8.263  1.00  0.00     0.069 C 
HETATM   10  N   UNL     1      44.418 -19.633   6.125  1.00  0.00    -0.358 N 
HETATM   11  H   UNL     1      44.699 -20.494   6.573  1.00  0.00     0.166 HD
HETATM   12  C   UNL     1      44.319 -19.472   4.766  1.00  0.00     0.043 A 
HETATM   13  C   UNL     1      43.905 -18.160   4.537  1.00  0.00     0.004 A 
HETATM   14  C   UNL     1      44.562 -20.386   3.732  1.00  0.00     0.030 A 
HETATM   15  C   UNL     1      43.727 -17.745   3.198  1.00  0.00     0.014 A 
HETATM   16  C   UNL     1      43.966 -18.644   2.152  1.00  0.00     0.001 A 
HETATM   17  C   UNL     1      44.377 -19.946   2.419  1.00  0.00     0.002 A 
ENDBRANCH   6   7
ENDBRANCH   1   5
BRANCH   2  18
HETATM   18  C   UNL     1      43.696 -11.876   7.878  1.00  0.00     0.227 C 
BRANCH  18  19
HETATM   19  N   UNL     1      43.512 -11.466   9.261  1.00  0.00    -0.349 N 
HETATM   20  C   UNL     1      44.486 -10.789   9.944  1.00  0.00     0.241 C 
HETATM   21  O   UNL     1      45.530 -10.414   9.421  1.00  0.00    -0.269 OA
HETATM   22  H   UNL     1      42.617 -11.659   9.691  1.00  0.00     0.163 HD
BRANCH  20  23
HETATM   23  C   UNL     1      44.135 -10.524  11.358  1.00  0.00     0.075 C 
HETATM   24  C   UNL     1      43.128  -9.687  11.650  1.00  0.00     0.017 C 
BRANCH  24  25
HETATM   25  C   UNL     1      42.691  -9.350  13.014  1.00  0.00    -0.036 A 
HETATM   26  C   UNL     1      42.521 -10.315  14.017  1.00  0.00     0.011 A 
HETATM   27  C   UNL     1      42.128  -9.942  15.305  1.00  0.00     0.001 A 
HETATM   28  C   UNL     1      41.915  -8.599  15.610  1.00  0.00     0.000 A 
HETATM   29  C   UNL     1      42.098  -7.629  14.629  1.00  0.00     0.001 A 
HETATM   30  C   UNL     1      42.489  -8.002  13.340  1.00  0.00     0.011 A 
ENDBRANCH  24  25
ENDBRANCH  20  23
ENDBRANCH  18  19
ENDBRANCH   2  18
TORSDOF 6
ENDMDL
MODEL 2
REMARK VINA RESULT:      -9.2      6.870     10.364
REMARK  6 active torsions:
REMARK  status: ('A' for Active; 'I' for Inactive)
REMARK    1  A    between atoms: C_7  and  C_8 
REMARK    2  A    between atoms: N_9  and  N_10 
REMARK       I    between atoms: N_10  and  C_11 
REMARK    3  A    between atoms: C_11  and  C_12 
REMARK    4  A    between atoms: C_12  and  N_13 
REMARK       I    between atoms: N_13  and  C_14 
REMARK    5  A    between atoms: C_14  and  C_15 
REMARK    6  A    between atoms: C_16  and  C_17 
ROOT
HETATM    1  N   UNL     1      42.804 -15.052   2.618  1.00  0.00    -0.246 N 
HETATM    2  C   UNL     1      43.150 -13.817   3.148  1.00  0.00     0.255 C 
HETATM    3  O   UNL     1      44.098 -13.594   3.899  1.00  0.00    -0.270 OA
HETATM    4  H   UNL     1      41.955 -15.135   2.054  1.00  0.00     0.192 HD
ENDROOT
BRANCH   1   5
HETATM    5  N   UNL     1      43.540 -16.157   2.926  1.00  0.00    -0.184 NA
HETATM    6  C   UNL     1      42.983 -16.992   3.741  1.00  0.00     0.153 C 
BRANCH   6   7
HETATM    7  C   UNL     1      43.683 -18.204   4.128  1.00  0.00     0.018 A 
HETATM    8  C   UNL     1      44.387 -18.355   5.317  1.00  0.00     0.018 A 
HETATM    9  C   UNL     1      44.614 -17.416   6.445  1.00  0.00     0.069 C 
HETATM   10  N   UNL     1      44.907 -19.627   5.334  1.00  0.00    -0.358 N 
HETATM   11  H   UNL     1      45.465 -20.018   6.080  1.00  0.00     0.166 HD
HETATM   12  C   UNL     1      44.564 -20.309   4.193  1.00  0.00     0.043 A 
HETATM   13  C   UNL     1      43.795 -19.445   3.414  1.00  0.00     0.004 A 
HETATM   14  C   UNL     1      44.876 -21.617   3.801  1.00  0.00     0.030 A 
HETATM   15  C   UNL     1      43.315 -19.922   2.174  1.00  0.00     0.014 A 
HETATM   16  C   UNL     1      43.617 -21.225   1.764  1.00  0.00     0.001 A 
HETATM   17  C   UNL     1      44.386 -22.060   2.569  1.00  0.00     0.002 A 
ENDBRANCH   6   7
ENDBRANCH   1   5
BRANCH   2  18
HETATM   18  C   UNL     1      42.232 -12.693   2.669  1.00  0.00     0.227 C 
BRANCH  18  19
HETATM   19  N   UNL     1      41.582 -13.009   1.408  1.00  0.00    -0.349 N 
HETATM   20  C   UNL     1      41.959 -12.410   0.237  1.00  0.00     0.241 C 
HETATM   21  O   UNL     1      42.910 -11.640   0.156  1.00  0.00    -0.269 OA
HETATM   22  H   UNL     1      40.868 -13.726   1.416  1.00  0.00     0.163 HD
BRANCH  20  23
HETATM   23  C   UNL     1      41.130 -12.814  -0.923  1.00  0.00     0.075 C 
HETATM   24  C   UNL     1      40.635 -14.059  -0.987  1.00  0.00     0.017 C 
BRANCH  24  25
HETATM   25  C   UNL     1      39.800 -14.570  -2.086  1.00  0.00    -0.036 A 
HETATM   26  C   UNL     1      40.257 -15.524  -3.006  1.00  0.00     0.011 A 
HETATM   27  C   UNL     1      39.417 -15.998  -4.017  1.00  0.00     0.001 A 
HETATM   28  C   UNL     1      38.106 -15.536  -4.112  1.00  0.00     0.000 A 
HETATM   29  C   UNL     1      37.633 -14.604  -3.193  1.00  0.00     0.001 A 
HETATM   30  C   UNL     1      38.474 -14.128  -2.183  1.00  0.00     0.011 A 
ENDBRANCH  24  25
ENDBRANCH  20  23
ENDBRANCH  18  19
ENDBRANCH   2  18
TORSDOF 6
ENDMDL
MODEL 3
REMARK VINA RESULT:      -9.1      2.905      3.242
REMARK  6 active torsions:
REMARK  status: ('A' for Active; 'I' for Inactive)
REMARK    1  A    between atoms: C_7  and  C_8 
REMARK    2  A    between atoms: N_9  and  N_10 
REMARK       I    between atoms: N_10  and  C_11 
REMARK    3  A    between atoms: C_11  and  C_12 
REMARK    4  A    between atoms: C_12  and  N_13 
REMARK       I    between atoms: N_13  and  C_14 
REMARK    5  A    between atoms: C_14  and  C_15 
REMARK    6  A    between atoms: C_16  and  C_17 
ROOT
HETATM    1  N   UNL     1      40.535 -14.796   6.351  1.00  0.00    -0.246 N 
HETATM    2  C   UNL     1      40.235 -13.569   5.778  1.00  0.00     0.255 C 
HETATM    3  O   UNL     1      40.773 -13.086   4.783  1.00  0.00    -0.270 OA
HETATM    4  H   UNL     1      40.068 -15.072   7.219  1.00  0.00     0.192 HD
ENDROOT
BRANCH   1   5
HETATM    5  N   UNL     1      41.509 -15.582   5.811  1.00  0.00    -0.184 NA
HETATM    6  C   UNL     1      41.516 -16.814   6.204  1.00  0.00     0.153 C 
BRANCH   6   7
HETATM    7  C   UNL     1      42.512 -17.735   5.684  1.00  0.00     0.018 A 
HETATM    8  C   UNL     1      43.467 -18.375   6.463  1.00  0.00     0.018 A 
HETATM    9  C   UNL     1      43.736 -18.320   7.923  1.00  0.00     0.069 C 
HETATM   10  N   UNL     1      44.224 -19.164   5.630  1.00  0.00    -0.358 N 
HETATM   11  H   UNL     1      44.995 -19.748   5.922  1.00  0.00     0.166 HD
HETATM   12  C   UNL     1      43.790 -19.057   4.332  1.00  0.00     0.043 A 
HETATM   13  C   UNL     1      42.715 -18.169   4.330  1.00  0.00     0.004 A 
HETATM   14  C   UNL     1      44.267 -19.679   3.171  1.00  0.00     0.030 A 
HETATM   15  C   UNL     1      42.088 -17.890   3.095  1.00  0.00     0.014 A 
HETATM   16  C   UNL     1      42.551 -18.501   1.924  1.00  0.00     0.001 A 
HETATM   17  C   UNL     1      43.626 -19.384   1.965  1.00  0.00     0.002 A 
ENDBRANCH   6   7
ENDBRANCH   1   5
BRANCH   2  18
HETATM   18  C   UNL     1      39.099 -12.844   6.499  1.00  0.00     0.227 C 
BRANCH  18  19
HETATM   19  N   UNL     1      39.446 -12.497   7.868  1.00  0.00    -0.349 N 
HETATM   20  C   UNL     1      39.410 -11.203   8.311  1.00  0.00     0.241 C 
HETATM   21  O   UNL     1      39.010 -10.271   7.620  1.00  0.00    -0.269 OA
HETATM   22  H   UNL     1      39.672 -13.254   8.500  1.00  0.00     0.163 HD
BRANCH  20  23
HETATM   23  C   UNL     1      39.864 -11.048   9.712  1.00  0.00     0.075 C 
HETATM   24  C   UNL     1      41.133 -10.696   9.966  1.00  0.00     0.017 C 
BRANCH  24  25
HETATM   25  C   UNL     1      41.695 -10.512  11.314  1.00  0.00    -0.036 A 
HETATM   26  C   UNL     1      42.969  -9.971  11.539  1.00  0.00     0.011 A 
HETATM   27  C   UNL     1      43.448  -9.792  12.839  1.00  0.00     0.001 A 
HETATM   28  C   UNL     1      42.654 -10.138  13.931  1.00  0.00     0.000 A 
HETATM   29  C   UNL     1      41.380 -10.658  13.723  1.00  0.00     0.001 A 
HETATM   30  C   UNL     1      40.902 -10.839  12.422  1.00  0.00     0.011 A 
ENDBRANCH  24  25
ENDBRANCH  20  23
ENDBRANCH  18  19
ENDBRANCH   2  18
TORSDOF 6
ENDMDL
MODEL 4
REMARK VINA RESULT:      -8.9      3.447      4.289
REMARK  6 active torsions:
REMARK  status: ('A' for Active; 'I' for Inactive)
REMARK    1  A    between atoms: C_7  and  C_8 
REMARK    2  A    between atoms: N_9  and  N_10 
REMARK       I    between atoms: N_10  and  C_11 
REMARK    3  A    between atoms: C_11  and  C_12 
REMARK    4  A    between atoms: C_12  and  N_13 
REMARK       I    between atoms: N_13  and  C_14 
REMARK    5  A    between atoms: C_14  and  C_15 
REMARK    6  A    between atoms: C_16  and  C_17 
ROOT
HETATM    1  N   UNL     1      43.297 -13.330   6.543  1.00  0.00    -0.246 N 
HETATM    2  C   UNL     1      44.379 -14.082   6.979  1.00  0.00     0.255 C 
HETATM    3  O   UNL     1      44.524 -15.293   6.824  1.00  0.00    -0.270 OA
HETATM    4  H   UNL     1      43.248 -12.337   6.783  1.00  0.00     0.192 HD
ENDROOT
BRANCH   1   5
HETATM    5  N   UNL     1      42.269 -13.932   5.881  1.00  0.00    -0.184 NA
HETATM    6  C   UNL     1      42.405 -14.023   4.599  1.00  0.00     0.153 C 
BRANCH   6   7
HETATM    7  C   UNL     1      41.366 -14.653   3.802  1.00  0.00     0.018 A 
HETATM    8  C   UNL     1      41.181 -16.026   3.705  1.00  0.00     0.018 A 
HETATM    9  C   UNL     1      41.915 -17.159   4.326  1.00  0.00     0.069 C 
HETATM   10  N   UNL     1      40.110 -16.244   2.872  1.00  0.00    -0.358 N 
HETATM   11  H   UNL     1      39.743 -17.151   2.619  1.00  0.00     0.166 HD
HETATM   12  C   UNL     1      39.592 -15.054   2.424  1.00  0.00     0.043 A 
HETATM   13  C   UNL     1      40.356 -14.035   2.990  1.00  0.00     0.004 A 
HETATM   14  C   UNL     1      38.510 -14.811   1.568  1.00  0.00     0.030 A 
HETATM   15  C   UNL     1      40.016 -12.699   2.677  1.00  0.00     0.014 A 
HETATM   16  C   UNL     1      38.939 -12.437   1.823  1.00  0.00     0.001 A 
HETATM   17  C   UNL     1      38.197 -13.480   1.278  1.00  0.00     0.002 A 
ENDBRANCH   6   7
ENDBRANCH   1   5
BRANCH   2  18
HETATM   18  C   UNL     1      45.444 -13.234   7.671  1.00  0.00     0.227 C 
BRANCH  18  19
HETATM   19  N   UNL     1      44.986 -12.699   8.943  1.00  0.00    -0.349 N 
HETATM   20  C   UNL     1      45.487 -11.531   9.452  1.00  0.00     0.241 C 
HETATM   21  O   UNL     1      46.283 -10.824   8.844  1.00  0.00    -0.269 OA
HETATM   22  H   UNL     1      44.246 -13.197   9.420  1.00  0.00     0.163 HD
BRANCH  20  23
HETATM   23  C   UNL     1      44.943 -11.193  10.788  1.00  0.00     0.075 C 
HETATM   24  C   UNL     1      43.659 -10.828  10.912  1.00  0.00     0.017 C 
BRANCH  24  25
HETATM   25  C   UNL     1      43.011 -10.472  12.185  1.00  0.00    -0.036 A 
HETATM   26  C   UNL     1      41.800 -11.040  12.606  1.00  0.00     0.011 A 
HETATM   27  C   UNL     1      41.237 -10.688  13.836  1.00  0.00     0.001 A 
HETATM   28  C   UNL     1      41.885  -9.776  14.666  1.00  0.00     0.000 A 
HETATM   29  C   UNL     1      43.097  -9.219  14.270  1.00  0.00     0.001 A 
HETATM   30  C   UNL     1      43.659  -9.569  13.038  1.00  0.00     0.011 A 
ENDBRANCH  24  25
ENDBRANCH  20  23
ENDBRANCH  18  19
ENDBRANCH   2  18
TORSDOF 6
ENDMDL
MODEL 5
REMARK VINA RESULT:      -8.8      2.125      3.129
REMARK  6 active torsions:
REMARK  status: ('A' for Active; 'I' for Inactive)
REMARK    1  A    between atoms: C_7  and  C_8 
REMARK    2  A    between atoms: N_9  and  N_10 
REMARK       I    between atoms: N_10  and  C_11 
REMARK    3  A    between atoms: C_11  and  C_12 
REMARK    4  A    between atoms: C_12  and  N_13 
REMARK       I    between atoms: N_13  and  C_14 
REMARK    5  A    between atoms: C_14  and  C_15 
REMARK    6  A    between atoms: C_16  and  C_17 
ROOT
HETATM    1  N   UNL     1      44.241 -13.763   5.913  1.00  0.00    -0.246 N 
HETATM    2  C   UNL     1      44.596 -14.118   7.207  1.00  0.00     0.255 C 
HETATM    3  O   UNL     1      44.346 -15.190   7.755  1.00  0.00    -0.270 OA
HETATM    4  H   UNL     1      44.444 -12.818   5.579  1.00  0.00     0.192 HD
ENDROOT
BRANCH   1   5
HETATM    5  N   UNL     1      43.547 -14.638   5.131  1.00  0.00    -0.184 NA
HETATM    6  C   UNL     1      43.727 -14.513   3.857  1.00  0.00     0.153 C 
BRANCH   6   7
HETATM    7  C   UNL     1      43.037 -15.401   2.937  1.00  0.00     0.018 A 
HETATM    8  C   UNL     1      42.098 -14.982   2.003  1.00  0.00     0.018 A 
HETATM    9  C   UNL     1      41.566 -13.631   1.689  1.00  0.00     0.069 C 
HETATM   10  N   UNL     1      41.669 -16.093   1.316  1.00  0.00    -0.358 N 
HETATM   11  H   UNL     1      40.985 -16.090   0.573  1.00  0.00     0.166 HD
HETATM   12  C   UNL     1      42.301 -17.222   1.775  1.00  0.00     0.043 A 
HETATM   13  C   UNL     1      43.167 -16.824   2.792  1.00  0.00     0.004 A 
HETATM   14  C   UNL     1      42.168 -18.555   1.365  1.00  0.00     0.030 A 
HETATM   15  C   UNL     1      43.941 -17.819   3.432  1.00  0.00     0.014 A 
HETATM   16  C   UNL     1      43.822 -19.156   3.036  1.00  0.00     0.001 A 
HETATM   17  C   UNL     1      42.947 -19.516   2.015  1.00  0.00     0.002 A 
ENDBRANCH   6   7
ENDBRANCH   1   5
BRANCH   2  18
HETATM   18  C   UNL     1      45.392 -13.026   7.919  1.00  0.00     0.227 C 
BRANCH  18  19
HETATM   19  N   UNL     1      44.579 -12.271   8.859  1.00  0.00    -0.349 N 
HETATM   20  C   UNL     1      45.053 -11.143   9.472  1.00  0.00     0.241 C 
HETATM   21  O   UNL     1      46.147 -10.651   9.214  1.00  0.00    -0.269 OA
HETATM   22  H   UNL     1      43.629 -12.583   9.011  1.00  0.00     0.163 HD
BRANCH  20  23
HETATM   23  C   UNL     1      44.100 -10.559  10.445  1.00  0.00     0.075 C 
HETATM   24  C   UNL     1      44.091 -10.997  11.713  1.00  0.00     0.017 C 
BRANCH  24  25
HETATM   25  C   UNL     1      43.193 -10.492  12.764  1.00  0.00    -0.036 A 
HETATM   26  C   UNL     1      43.587  -9.526  13.701  1.00  0.00     0.011 A 
HETATM   27  C   UNL     1      42.689  -9.059  14.664  1.00  0.00     0.001 A 
HETATM   28  C   UNL     1      41.382  -9.540  14.694  1.00  0.00     0.000 A 
HETATM   29  C   UNL     1      40.971 -10.485  13.758  1.00  0.00     0.001 A 
HETATM   30  C   UNL     1      41.870 -10.954  12.795  1.00  0.00     0.011 A 
ENDBRANCH  24  25
ENDBRANCH  20  23
ENDBRANCH  18  19
ENDBRANCH   2  18
TORSDOF 6
ENDMDL
MODEL 6
REMARK VINA RESULT:      -8.8      3.091      3.823
REMARK  6 active torsions:
REMARK  status: ('A' for Active; 'I' for Inactive)
REMARK    1  A    between atoms: C_7  and  C_8 
REMARK    2  A    between atoms: N_9  and  N_10 
REMARK       I    between atoms: N_10  and  C_11 
REMARK    3  A    between atoms: C_11  and  C_12 
REMARK    4  A    between atoms: C_12  and  N_13 
REMARK       I    between atoms: N_13  and  C_14 
REMARK    5  A    between atoms: C_14  and  C_15 
REMARK    6  A    between atoms: C_16  and  C_17 
ROOT
HETATM    1  N   UNL     1      40.840 -14.489   6.174  1.00  0.00    -0.246 N 
HETATM    2  C   UNL     1      40.317 -13.319   5.641  1.00  0.00     0.255 C 
HETATM    3  O   UNL     1      40.489 -12.908   4.495  1.00  0.00    -0.270 OA
HETATM    4  H   UNL     1      40.685 -14.702   7.162  1.00  0.00     0.192 HD
ENDROOT
BRANCH   1   5
HETATM    5  N   UNL     1      41.627 -15.296   5.408  1.00  0.00    -0.184 NA
HETATM    6  C   UNL     1      41.035 -16.316   4.878  1.00  0.00     0.153 C 
BRANCH   6   7
HETATM    7  C   UNL     1      41.785 -17.235   4.040  1.00  0.00     0.018 A 
HETATM    8  C   UNL     1      41.601 -17.371   2.669  1.00  0.00     0.018 A 
HETATM    9  C   UNL     1      40.673 -16.684   1.734  1.00  0.00     0.069 C 
HETATM   10  N   UNL     1      42.484 -18.324   2.223  1.00  0.00    -0.358 N 
HETATM   11  H   UNL     1      42.576 -18.629   1.264  1.00  0.00     0.166 HD
HETATM   12  C   UNL     1      43.238 -18.813   3.260  1.00  0.00     0.043 A 
HETATM   13  C   UNL     1      42.826 -18.150   4.416  1.00  0.00     0.004 A 
HETATM   14  C   UNL     1      44.248 -19.785   3.258  1.00  0.00     0.030 A 
HETATM   15  C   UNL     1      43.461 -18.483   5.634  1.00  0.00     0.014 A 
HETATM   16  C   UNL     1      44.471 -19.452   5.651  1.00  0.00     0.001 A 
HETATM   17  C   UNL     1      44.857 -20.092   4.477  1.00  0.00     0.002 A 
ENDBRANCH   6   7
ENDBRANCH   1   5
BRANCH   2  18
HETATM   18  C   UNL     1      39.437 -12.562   6.635  1.00  0.00     0.227 C 
BRANCH  18  19
HETATM   19  N   UNL     1      40.202 -12.005   7.739  1.00  0.00    -0.349 N 
HETATM   20  C   UNL     1      39.741 -10.942   8.466  1.00  0.00     0.241 C 
HETATM   21  O   UNL     1      38.632 -10.445   8.295  1.00  0.00    -0.269 OA
HETATM   22  H   UNL     1      41.071 -12.461   7.983  1.00  0.00     0.163 HD
BRANCH  20  23
HETATM   23  C   UNL     1      40.695 -10.479   9.500  1.00  0.00     0.075 C 
HETATM   24  C   UNL     1      40.574 -10.916  10.762  1.00  0.00     0.017 C 
BRANCH  24  25
HETATM   25  C   UNL     1      41.463 -10.527  11.870  1.00  0.00    -0.036 A 
HETATM   26  C   UNL     1      42.746 -10.000  11.665  1.00  0.00     0.011 A 
HETATM   27  C   UNL     1      43.542  -9.622  12.749  1.00  0.00     0.001 A 
HETATM   28  C   UNL     1      43.060  -9.751  14.050  1.00  0.00     0.000 A 
HETATM   29  C   UNL     1      41.780 -10.254  14.267  1.00  0.00     0.001 A 
HETATM   30  C   UNL     1      40.985 -10.635  13.182  1.00  0.00     0.011 A 
ENDBRANCH  24  25
ENDBRANCH  20  23
ENDBRANCH  18  19
ENDBRANCH   2  18
TORSDOF 6
ENDMDL
MODEL 7
REMARK VINA RESULT:      -8.7      7.081     10.165
REMARK  6 active torsions:
REMARK  status: ('A' for Active; 'I' for Inactive)
REMARK    1  A    between atoms: C_7  and  C_8 
REMARK    2  A    between atoms: N_9  and  N_10 
REMARK       I    between atoms: N_10  and  C_11 
REMARK    3  A    between atoms: C_11  and  C_12 
REMARK    4  A    between atoms: C_12  and  N_13 
REMARK       I    between atoms: N_13  and  C_14 
REMARK    5  A    between atoms: C_14  and  C_15 
REMARK    6  A    between atoms: C_16  and  C_17 
ROOT
HETATM    1  N   UNL     1      41.461 -15.528   3.512  1.00  0.00    -0.246 N 
HETATM    2  C   UNL     1      40.481 -15.529   2.529  1.00  0.00     0.255 C 
HETATM    3  O   UNL     1      39.982 -16.526   2.009  1.00  0.00    -0.270 OA
HETATM    4  H   UNL     1      41.852 -14.637   3.828  1.00  0.00     0.192 HD
ENDROOT
BRANCH   1   5
HETATM    5  N   UNL     1      41.958 -16.706   3.982  1.00  0.00    -0.184 NA
HETATM    6  C   UNL     1      43.153 -17.006   3.589  1.00  0.00     0.153 C 
BRANCH   6   7
HETATM    7  C   UNL     1      43.776 -18.239   4.038  1.00  0.00     0.018 A 
HETATM    8  C   UNL     1      44.404 -18.395   5.268  1.00  0.00     0.018 A 
HETATM    9  C   UNL     1      44.608 -17.443   6.390  1.00  0.00     0.069 C 
HETATM   10  N   UNL     1      44.865 -19.687   5.339  1.00  0.00    -0.358 N 
HETATM   11  H   UNL     1      45.363 -20.086   6.123  1.00  0.00     0.166 HD
HETATM   12  C   UNL     1      44.558 -20.378   4.193  1.00  0.00     0.043 A 
HETATM   13  C   UNL     1      43.872 -19.499   3.355  1.00  0.00     0.004 A 
HETATM   14  C   UNL     1      44.833 -21.706   3.843  1.00  0.00     0.030 A 
HETATM   15  C   UNL     1      43.443 -19.980   2.098  1.00  0.00     0.014 A 
HETATM   16  C   UNL     1      43.709 -21.303   1.730  1.00  0.00     0.001 A 
HETATM   17  C   UNL     1      44.395 -22.153   2.594  1.00  0.00     0.002 A 
ENDBRANCH   6   7
ENDBRANCH   1   5
BRANCH   2  18
HETATM   18  C   UNL     1      40.026 -14.121   2.150  1.00  0.00     0.227 C 
BRANCH  18  19
HETATM   19  N   UNL     1      40.577 -13.684   0.877  1.00  0.00    -0.349 N 
HETATM   20  C   UNL     1      41.818 -13.114   0.791  1.00  0.00     0.241 C 
HETATM   21  O   UNL     1      42.573 -13.008   1.752  1.00  0.00    -0.269 OA
HETATM   22  H   UNL     1      40.029 -13.859   0.046  1.00  0.00     0.163 HD
BRANCH  20  23
HETATM   23  C   UNL     1      42.169 -12.675  -0.579  1.00  0.00     0.075 C 
HETATM   24  C   UNL     1      41.774 -11.469  -1.014  1.00  0.00     0.017 C 
BRANCH  24  25
HETATM   25  C   UNL     1      42.064 -10.927  -2.351  1.00  0.00    -0.036 A 
HETATM   26  C   UNL     1      42.163 -11.735  -3.493  1.00  0.00     0.011 A 
HETATM   27  C   UNL     1      42.415 -11.170  -4.746  1.00  0.00     0.001 A 
HETATM   28  C   UNL     1      42.556  -9.790  -4.876  1.00  0.00     0.000 A 
HETATM   29  C   UNL     1      42.441  -8.974  -3.754  1.00  0.00     0.001 A 
HETATM   30  C   UNL     1      42.192  -9.539  -2.500  1.00  0.00     0.011 A 
ENDBRANCH  24  25
ENDBRANCH  20  23
ENDBRANCH  18  19
ENDBRANCH   2  18
TORSDOF 6
ENDMDL
MODEL 8
REMARK VINA RESULT:      -8.6      2.703     11.438
REMARK  6 active torsions:
REMARK  status: ('A' for Active; 'I' for Inactive)
REMARK    1  A    between atoms: C_7  and  C_8 
REMARK    2  A    between atoms: N_9  and  N_10 
REMARK       I    between atoms: N_10  and  C_11 
REMARK    3  A    between atoms: C_11  and  C_12 
REMARK    4  A    between atoms: C_12  and  N_13 
REMARK       I    between atoms: N_13  and  C_14 
REMARK    5  A    between atoms: C_14  and  C_15 
REMARK    6  A    between atoms: C_16  and  C_17 
ROOT
HETATM    1  N   UNL     1      41.404 -11.964   5.937  1.00  0.00    -0.246 N 
HETATM    2  C   UNL     1      42.171 -13.084   5.649  1.00  0.00     0.255 C 
HETATM    3  O   UNL     1      43.163 -13.460   6.272  1.00  0.00    -0.270 OA
HETATM    4  H   UNL     1      40.636 -11.709   5.312  1.00  0.00     0.192 HD
ENDROOT
BRANCH   1   5
HETATM    5  N   UNL     1      41.733 -11.165   6.992  1.00  0.00    -0.184 NA
HETATM    6  C   UNL     1      40.797 -10.975   7.863  1.00  0.00     0.153 C 
BRANCH   6   7
HETATM    7  C   UNL     1      41.047 -10.143   9.027  1.00  0.00     0.018 A 
HETATM    8  C   UNL     1      40.285  -9.034   9.373  1.00  0.00     0.018 A 
HETATM    9  C   UNL     1      39.098  -8.422   8.724  1.00  0.00     0.069 C 
HETATM   10  N   UNL     1      40.817  -8.507  10.526  1.00  0.00    -0.358 N 
HETATM   11  H   UNL     1      40.464  -7.694  11.011  1.00  0.00     0.166 HD
HETATM   12  C   UNL     1      41.901  -9.239  10.941  1.00  0.00     0.043 A 
HETATM   13  C   UNL     1      42.073 -10.275  10.023  1.00  0.00     0.004 A 
HETATM   14  C   UNL     1      42.733  -9.061  12.054  1.00  0.00     0.030 A 
HETATM   15  C   UNL     1      43.139 -11.178  10.234  1.00  0.00     0.014 A 
HETATM   16  C   UNL     1      43.981 -11.016  11.341  1.00  0.00     0.001 A 
HETATM   17  C   UNL     1      43.778  -9.971  12.237  1.00  0.00     0.002 A 
ENDBRANCH   6   7
ENDBRANCH   1   5
BRANCH   2  18
HETATM   18  C   UNL     1      41.635 -13.873   4.455  1.00  0.00     0.227 C 
BRANCH  18  19
HETATM   19  N   UNL     1      42.008 -15.277   4.507  1.00  0.00    -0.349 N 
HETATM   20  C   UNL     1      42.976 -15.792   3.688  1.00  0.00     0.241 C 
HETATM   21  O   UNL     1      43.644 -15.101   2.925  1.00  0.00    -0.269 OA
HETATM   22  H   UNL     1      41.558 -15.855   5.204  1.00  0.00     0.163 HD
BRANCH  20  23
HETATM   23  C   UNL     1      43.161 -17.254   3.844  1.00  0.00     0.075 C 
HETATM   24  C   UNL     1      43.795 -17.951   2.891  1.00  0.00     0.017 C 
BRANCH  24  25
HETATM   25  C   UNL     1      44.037 -19.402   2.938  1.00  0.00    -0.036 A 
HETATM   26  C   UNL     1      44.623 -20.039   4.041  1.00  0.00     0.011 A 
HETATM   27  C   UNL     1      44.809 -21.424   4.049  1.00  0.00     0.001 A 
HETATM   28  C   UNL     1      44.397 -22.191   2.962  1.00  0.00     0.000 A 
HETATM   29  C   UNL     1      43.797 -21.574   1.868  1.00  0.00     0.001 A 
HETATM   30  C   UNL     1      43.613 -20.188   1.859  1.00  0.00     0.011 A 
ENDBRANCH  24  25
ENDBRANCH  20  23
ENDBRANCH  18  19
ENDBRANCH   2  18
TORSDOF 6
ENDMDL
MODEL 9
REMARK VINA RESULT:      -8.5      7.062     11.356
REMARK  6 active torsions:
REMARK  status: ('A' for Active; 'I' for Inactive)
REMARK    1  A    between atoms: C_7  and  C_8 
REMARK    2  A    between atoms: N_9  and  N_10 
REMARK       I    between atoms: N_10  and  C_11 
REMARK    3  A    between atoms: C_11  and  C_12 
REMARK    4  A    between atoms: C_12  and  N_13 
REMARK       I    between atoms: N_13  and  C_14 
REMARK    5  A    between atoms: C_14  and  C_15 
REMARK    6  A    between atoms: C_16  and  C_17 
ROOT
HETATM    1  N   UNL     1      41.103 -14.410   1.903  1.00  0.00    -0.246 N 
HETATM    2  C   UNL     1      40.522 -13.826   3.020  1.00  0.00     0.255 C 
HETATM    3  O   UNL     1      39.904 -12.763   3.039  1.00  0.00    -0.270 OA
HETATM    4  H   UNL     1      41.650 -15.267   2.014  1.00  0.00     0.192 HD
ENDROOT
BRANCH   1   5
HETATM    5  N   UNL     1      41.019 -13.795   0.690  1.00  0.00    -0.184 NA
HETATM    6  C   UNL     1      41.796 -14.265  -0.231  1.00  0.00     0.153 C 
BRANCH   6   7
HETATM    7  C   UNL     1      41.779 -13.682  -1.561  1.00  0.00     0.018 A 
HETATM    8  C   UNL     1      41.357 -14.352  -2.703  1.00  0.00     0.018 A 
HETATM    9  C   UNL     1      40.842 -15.733  -2.893  1.00  0.00     0.069 C 
HETATM   10  N   UNL     1      41.480 -13.487  -3.763  1.00  0.00    -0.358 N 
HETATM   11  H   UNL     1      41.243 -13.702  -4.722  1.00  0.00     0.166 HD
HETATM   12  C   UNL     1      41.969 -12.274  -3.347  1.00  0.00     0.043 A 
HETATM   13  C   UNL     1      42.167 -12.361  -1.969  1.00  0.00     0.004 A 
HETATM   14  C   UNL     1      42.246 -11.116  -4.085  1.00  0.00     0.030 A 
HETATM   15  C   UNL     1      42.672 -11.225  -1.298  1.00  0.00     0.014 A 
HETATM   16  C   UNL     1      42.956 -10.059  -2.019  1.00  0.00     0.001 A 
HETATM   17  C   UNL     1      42.744 -10.008  -3.393  1.00  0.00     0.002 A 
ENDBRANCH   6   7
ENDBRANCH   1   5
BRANCH   2  18
HETATM   18  C   UNL     1      40.690 -14.672   4.281  1.00  0.00     0.227 C 
BRANCH  18  19
HETATM   19  N   UNL     1      41.074 -16.042   3.981  1.00  0.00    -0.349 N 
HETATM   20  C   UNL     1      42.290 -16.545   4.357  1.00  0.00     0.241 C 
HETATM   21  O   UNL     1      43.095 -15.912   5.034  1.00  0.00    -0.269 OA
HETATM   22  H   UNL     1      40.390 -16.630   3.523  1.00  0.00     0.163 HD
BRANCH  20  23
HETATM   23  C   UNL     1      42.518 -17.935   3.898  1.00  0.00     0.075 C 
HETATM   24  C   UNL     1      43.718 -18.507   4.078  1.00  0.00     0.017 C 
BRANCH  24  25
HETATM   25  C   UNL     1      44.059 -19.879   3.666  1.00  0.00    -0.036 A 
HETATM   26  C   UNL     1      44.590 -20.827   4.551  1.00  0.00     0.011 A 
HETATM   27  C   UNL     1      44.874 -22.126   4.118  1.00  0.00     0.001 A 
HETATM   28  C   UNL     1      44.615 -22.495   2.800  1.00  0.00     0.000 A 
HETATM   29  C   UNL     1      44.069 -21.569   1.916  1.00  0.00     0.001 A 
HETATM   30  C   UNL     1      43.788 -20.270   2.348  1.00  0.00     0.011 A 
ENDBRANCH  24  25
ENDBRANCH  20  23
ENDBRANCH  18  19
ENDBRANCH   2  18
TORSDOF 6
ENDMDL
MODEL 10
REMARK VINA RESULT:      -8.1      7.451     11.590
REMARK  6 active torsions:
REMARK  status: ('A' for Active; 'I' for Inactive)
REMARK    1  A    between atoms: C_7  and  C_8 
REMARK    2  A    between atoms: N_9  and  N_10 
REMARK       I    between atoms: N_10  and  C_11 
REMARK    3  A    between atoms: C_11  and  C_12 
REMARK    4  A    between atoms: C_12  and  N_13 
REMARK       I    between atoms: N_13  and  C_14 
REMARK    5  A    between atoms: C_14  and  C_15 
REMARK    6  A    between atoms: C_16  and  C_17 
ROOT
HETATM    1  N   UNL     1      41.214 -17.225   0.536  1.00  0.00    -0.246 N 
HETATM    2  C   UNL     1      41.421 -15.893   0.207  1.00  0.00     0.255 C 
HETATM    3  O   UNL     1      42.046 -15.073   0.877  1.00  0.00    -0.270 OA
HETATM    4  H   UNL     1      40.621 -17.804  -0.066  1.00  0.00     0.192 HD
ENDROOT
BRANCH   1   5
HETATM    5  N   UNL     1      41.721 -17.729   1.696  1.00  0.00    -0.184 NA
HETATM    6  C   UNL     1      42.869 -18.316   1.598  1.00  0.00     0.153 C 
BRANCH   6   7
HETATM    7  C   UNL     1      43.498 -18.882   2.778  1.00  0.00     0.018 A 
HETATM    8  C   UNL     1      43.990 -20.179   2.855  1.00  0.00     0.018 A 
HETATM    9  C   UNL     1      44.021 -21.275   1.853  1.00  0.00     0.069 C 
HETATM   10  N   UNL     1      44.511 -20.353   4.115  1.00  0.00    -0.358 N 
HETATM   11  H   UNL     1      44.940 -21.201   4.456  1.00  0.00     0.166 HD
HETATM   12  C   UNL     1      44.373 -19.208   4.860  1.00  0.00     0.043 A 
HETATM   13  C   UNL     1      43.742 -18.264   4.051  1.00  0.00     0.004 A 
HETATM   14  C   UNL     1      44.761 -18.944   6.180  1.00  0.00     0.030 A 
HETATM   15  C   UNL     1      43.486 -16.987   4.598  1.00  0.00     0.014 A 
HETATM   16  C   UNL     1      43.865 -16.704   5.915  1.00  0.00     0.001 A 
HETATM   17  C   UNL     1      44.495 -17.671   6.693  1.00  0.00     0.002 A 
ENDBRANCH   6   7
ENDBRANCH   1   5
BRANCH   2  18
HETATM   18  C   UNL     1      40.806 -15.517  -1.140  1.00  0.00     0.227 C 
BRANCH  18  19
HETATM   19  N   UNL     1      41.048 -14.127  -1.490  1.00  0.00    -0.349 N 
HETATM   20  C   UNL     1      41.525 -13.770  -2.723  1.00  0.00     0.241 C 
HETATM   21  O   UNL     1      41.700 -14.576  -3.631  1.00  0.00    -0.269 OA
HETATM   22  H   UNL     1      40.808 -13.424  -0.805  1.00  0.00     0.163 HD
BRANCH  20  23
HETATM   23  C   UNL     1      41.771 -12.316  -2.859  1.00  0.00     0.075 C 
HETATM   24  C   UNL     1      41.972 -11.785  -4.074  1.00  0.00     0.017 C 
BRANCH  24  25
HETATM   25  C   UNL     1      42.223 -10.357  -4.330  1.00  0.00    -0.036 A 
HETATM   26  C   UNL     1      42.291  -9.818  -5.623  1.00  0.00     0.011 A 
HETATM   27  C   UNL     1      42.506  -8.451  -5.814  1.00  0.00     0.001 A 
HETATM   28  C   UNL     1      42.640  -7.603  -4.717  1.00  0.00     0.000 A 
HETATM   29  C   UNL     1      42.555  -8.122  -3.428  1.00  0.00     0.001 A 
HETATM   30  C   UNL     1      42.343  -9.490  -3.236  1.00  0.00     0.011 A 
ENDBRANCH  24  25
ENDBRANCH  20  23
ENDBRANCH  18  19
ENDBRANCH   2  18
TORSDOF 6
ENDMDL
