MODEL 1
REMARK VINA RESULT:      -7.6      0.000      0.000
REMARK  9 active torsions:
REMARK  status: ('A' for Active; 'I' for Inactive)
REMARK    1  A    between atoms: C_2  and  C_3 
REMARK    2  A    between atoms: C_3  and  O_4 
REMARK    3  A    between atoms: C_3  and  C_5 
REMARK    4  A    between atoms: C_5  and  N_6 
REMARK    5  A    between atoms: N_6  and  C_8 
REMARK    6  A    between atoms: N_6  and  C_21 
REMARK    7  A    between atoms: C_8  and  C_9 
REMARK    8  A    between atoms: C_10  and  C_11 
REMARK    9  A    between atoms: C_21  and  C_22 
ROOT
HETATM    1  N   UNL     1      43.063 -16.472   7.376  1.00  0.00    -0.061 N 
HETATM    2  H   UNL     1      42.623 -15.950   8.136  1.00  0.00     0.280 HD
ENDROOT
BRANCH   1   3
HETATM    3  C   UNL     1      43.986 -15.475   6.684  1.00  0.00     0.267 C 
BRANCH   3   4
HETATM    4  C   UNL     1      44.060 -14.105   7.398  1.00  0.00     0.143 C 
BRANCH   4   5
HETATM    5  C   UNL     1      45.468 -13.514   7.237  1.00  0.00     0.029 C 
HETATM    6  C   UNL     1      45.848 -12.546   8.350  1.00  0.00     0.007 C 
ENDBRANCH   4   5
BRANCH   4   7
HETATM    7  O   UNL     1      43.095 -13.226   6.823  1.00  0.00    -0.394 OA
HETATM    8  H   UNL     1      43.521 -12.372   6.618  1.00  0.00     0.210 HD
ENDBRANCH   4   7
ENDBRANCH   3   4
ENDBRANCH   1   3
BRANCH   1   9
HETATM    9  C   UNL     1      41.897 -16.997   6.560  1.00  0.00     0.277 C 
BRANCH   9  10
HETATM   10  C   UNL     1      41.159 -16.091   5.637  1.00  0.00     0.016 A 
HETATM   11  C   UNL     1      41.334 -16.047   4.211  1.00  0.00     0.096 A 
HETATM   12  N   UNL     1      40.578 -15.088   3.662  1.00  0.00    -0.174 NA
HETATM   13  N   UNL     1      39.875 -14.579   4.672  1.00  0.00    -0.288 N 
HETATM   14  H   UNL     1      39.198 -13.849   4.466  1.00  0.00     0.188 HD
HETATM   15  C   UNL     1      40.203 -15.121   5.882  1.00  0.00     0.120 A 
BRANCH  11  16
HETATM   16  C   UNL     1      42.225 -16.849   3.375  1.00  0.00    -0.005 A 
HETATM   17  C   UNL     1      43.306 -16.266   2.701  1.00  0.00     0.014 A 
HETATM   18  C   UNL     1      44.137 -17.046   1.894  1.00  0.00     0.001 A 
HETATM   19  C   UNL     1      43.903 -18.415   1.765  1.00  0.00     0.000 A 
HETATM   20  C   UNL     1      42.843 -19.008   2.448  1.00  0.00     0.001 A 
HETATM   21  C   UNL     1      42.009 -18.228   3.253  1.00  0.00     0.014 A 
ENDBRANCH  11  16
ENDBRANCH   9  10
ENDBRANCH   1   9
BRANCH   1  22
HETATM   22  C   UNL     1      43.811 -17.605   8.049  1.00  0.00     0.273 C 
BRANCH  22  23
HETATM   23  C   UNL     1      44.102 -18.756   7.122  1.00  0.00    -0.033 A 
HETATM   24  C   UNL     1      44.849 -18.565   5.949  1.00  0.00     0.009 A 
HETATM   25  C   UNL     1      45.086 -19.631   5.081  1.00  0.00     0.001 A 
HETATM   26  C   UNL     1      44.587 -20.898   5.376  1.00  0.00     0.000 A 
HETATM   27  C   UNL     1      43.855 -21.104   6.543  1.00  0.00     0.001 A 
HETATM   28  C   UNL     1      43.614 -20.040   7.413  1.00  0.00     0.009 A 
ENDBRANCH  22  23
ENDBRANCH   1  22
TORSDOF 9
ENDMDL
MODEL 2
REMARK VINA RESULT:      -7.6      3.017      5.479
REMARK  9 active torsions:
REMARK  status: ('A' for Active; 'I' for Inactive)
REMARK    1  A    between atoms: C_2  and  C_3 
REMARK    2  A    between atoms: C_3  and  O_4 
REMARK    3  A    between atoms: C_3  and  C_5 
REMARK    4  A    between atoms: C_5  and  N_6 
REMARK    5  A    between atoms: N_6  and  C_8 
REMARK    6  A    between atoms: N_6  and  C_21 
REMARK    7  A    between atoms: C_8  and  C_9 
REMARK    8  A    between atoms: C_10  and  C_11 
REMARK    9  A    between atoms: C_21  and  C_22 
ROOT
HETATM    1  N   UNL     1      43.521 -18.622   2.795  1.00  0.00    -0.061 N 
HETATM    2  H   UNL     1      44.373 -18.682   3.358  1.00  0.00     0.280 HD
ENDROOT
BRANCH   1   3
HETATM    3  C   UNL     1      43.449 -19.940   2.033  1.00  0.00     0.267 C 
BRANCH   3   4
HETATM    4  C   UNL     1      44.598 -20.917   2.379  1.00  0.00     0.143 C 
BRANCH   4   5
HETATM    5  C   UNL     1      44.724 -21.045   3.904  1.00  0.00     0.029 C 
HETATM    6  C   UNL     1      44.702 -22.487   4.393  1.00  0.00     0.007 C 
ENDBRANCH   4   5
BRANCH   4   7
HETATM    7  O   UNL     1      44.315 -22.192   1.805  1.00  0.00    -0.394 OA
HETATM    8  H   UNL     1      44.714 -22.888   2.360  1.00  0.00     0.210 HD
ENDBRANCH   4   7
ENDBRANCH   3   4
ENDBRANCH   1   3
BRANCH   1   9
HETATM    9  C   UNL     1      43.711 -17.367   1.965  1.00  0.00     0.277 C 
BRANCH   9  10
HETATM   10  C   UNL     1      42.529 -16.644   1.418  1.00  0.00     0.016 A 
HETATM   11  C   UNL     1      41.878 -15.531   2.055  1.00  0.00     0.096 A 
HETATM   12  N   UNL     1      40.807 -15.135   1.356  1.00  0.00    -0.174 NA
HETATM   13  N   UNL     1      40.802 -15.900   0.265  1.00  0.00    -0.288 N 
HETATM   14  H   UNL     1      40.081 -15.736  -0.432  1.00  0.00     0.188 HD
HETATM   15  C   UNL     1      41.792 -16.840   0.264  1.00  0.00     0.120 A 
BRANCH  11  16
HETATM   16  C   UNL     1      42.215 -14.876   3.318  1.00  0.00    -0.005 A 
HETATM   17  C   UNL     1      43.536 -14.518   3.618  1.00  0.00     0.014 A 
HETATM   18  C   UNL     1      43.840 -13.907   4.837  1.00  0.00     0.001 A 
HETATM   19  C   UNL     1      42.827 -13.638   5.757  1.00  0.00     0.000 A 
HETATM   20  C   UNL     1      41.507 -13.971   5.458  1.00  0.00     0.001 A 
HETATM   21  C   UNL     1      41.202 -14.586   4.242  1.00  0.00     0.014 A 
ENDBRANCH  11  16
ENDBRANCH   9  10
ENDBRANCH   1   9
BRANCH   1  22
HETATM   22  C   UNL     1      42.394 -18.450   3.793  1.00  0.00     0.273 C 
BRANCH  22  23
HETATM   23  C   UNL     1      42.854 -17.905   5.119  1.00  0.00    -0.033 A 
HETATM   24  C   UNL     1      44.221 -17.742   5.396  1.00  0.00     0.009 A 
HETATM   25  C   UNL     1      44.638 -17.267   6.640  1.00  0.00     0.001 A 
HETATM   26  C   UNL     1      43.698 -16.945   7.617  1.00  0.00     0.000 A 
HETATM   27  C   UNL     1      42.339 -17.091   7.351  1.00  0.00     0.001 A 
HETATM   28  C   UNL     1      41.917 -17.567   6.109  1.00  0.00     0.009 A 
ENDBRANCH  22  23
ENDBRANCH   1  22
TORSDOF 9
ENDMDL
MODEL 3
REMARK VINA RESULT:      -7.5      1.949      4.504
REMARK  9 active torsions:
REMARK  status: ('A' for Active; 'I' for Inactive)
REMARK    1  A    between atoms: C_2  and  C_3 
REMARK    2  A    between atoms: C_3  and  O_4 
REMARK    3  A    between atoms: C_3  and  C_5 
REMARK    4  A    between atoms: C_5  and  N_6 
REMARK    5  A    between atoms: N_6  and  C_8 
REMARK    6  A    between atoms: N_6  and  C_21 
REMARK    7  A    between atoms: C_8  and  C_9 
REMARK    8  A    between atoms: C_10  and  C_11 
REMARK    9  A    between atoms: C_21  and  C_22 
ROOT
HETATM    1  N   UNL     1      41.281 -15.232   4.908  1.00  0.00    -0.061 N 
HETATM    2  H   UNL     1      42.156 -15.295   4.381  1.00  0.00     0.280 HD
ENDROOT
BRANCH   1   3
HETATM    3  C   UNL     1      41.435 -14.004   5.798  1.00  0.00     0.267 C 
BRANCH   3   4
HETATM    4  C   UNL     1      42.668 -13.138   5.446  1.00  0.00     0.143 C 
BRANCH   4   5
HETATM    5  C   UNL     1      43.908 -14.034   5.315  1.00  0.00     0.029 C 
HETATM    6  C   UNL     1      44.678 -14.193   6.619  1.00  0.00     0.007 C 
ENDBRANCH   4   5
BRANCH   4   7
HETATM    7  O   UNL     1      42.425 -12.460   4.215  1.00  0.00    -0.394 OA
HETATM    8  H   UNL     1      43.263 -12.083   3.886  1.00  0.00     0.210 HD
ENDBRANCH   4   7
ENDBRANCH   3   4
ENDBRANCH   1   3
BRANCH   1   9
HETATM    9  C   UNL     1      41.172 -16.571   5.611  1.00  0.00     0.277 C 
BRANCH   9  10
HETATM   10  C   UNL     1      42.362 -17.167   6.280  1.00  0.00     0.016 A 
HETATM   11  C   UNL     1      43.442 -17.830   5.601  1.00  0.00     0.096 A 
HETATM   12  N   UNL     1      44.334 -18.315   6.473  1.00  0.00    -0.174 NA
HETATM   13  N   UNL     1      43.902 -17.918   7.669  1.00  0.00    -0.288 N 
HETATM   14  H   UNL     1      44.463 -18.151   8.484  1.00  0.00     0.188 HD
HETATM   15  C   UNL     1      42.710 -17.252   7.616  1.00  0.00     0.120 A 
BRANCH  11  16
HETATM   16  C   UNL     1      43.621 -18.052   4.167  1.00  0.00    -0.005 A 
HETATM   17  C   UNL     1      43.951 -16.997   3.306  1.00  0.00     0.014 A 
HETATM   18  C   UNL     1      44.102 -17.227   1.937  1.00  0.00     0.001 A 
HETATM   19  C   UNL     1      43.937 -18.512   1.420  1.00  0.00     0.000 A 
HETATM   20  C   UNL     1      43.629 -19.571   2.272  1.00  0.00     0.001 A 
HETATM   21  C   UNL     1      43.474 -19.342   3.641  1.00  0.00     0.014 A 
ENDBRANCH  11  16
ENDBRANCH   9  10
ENDBRANCH   1   9
BRANCH   1  22
HETATM   22  C   UNL     1      40.195 -15.076   3.862  1.00  0.00     0.273 C 
BRANCH  22  23
HETATM   23  C   UNL     1      40.627 -15.518   2.488  1.00  0.00    -0.033 A 
HETATM   24  C   UNL     1      41.289 -14.634   1.622  1.00  0.00     0.009 A 
HETATM   25  C   UNL     1      41.656 -15.044   0.340  1.00  0.00     0.001 A 
HETATM   26  C   UNL     1      41.373 -16.339  -0.089  1.00  0.00     0.000 A 
HETATM   27  C   UNL     1      40.726 -17.229   0.765  1.00  0.00     0.001 A 
HETATM   28  C   UNL     1      40.356 -16.823   2.048  1.00  0.00     0.009 A 
ENDBRANCH  22  23
ENDBRANCH   1  22
TORSDOF 9
ENDMDL
MODEL 4
REMARK VINA RESULT:      -7.4      2.185      4.260
REMARK  9 active torsions:
REMARK  status: ('A' for Active; 'I' for Inactive)
REMARK    1  A    between atoms: C_2  and  C_3 
REMARK    2  A    between atoms: C_3  and  O_4 
REMARK    3  A    between atoms: C_3  and  C_5 
REMARK    4  A    between atoms: C_5  and  N_6 
REMARK    5  A    between atoms: N_6  and  C_8 
REMARK    6  A    between atoms: N_6  and  C_21 
REMARK    7  A    between atoms: C_8  and  C_9 
REMARK    8  A    between atoms: C_10  and  C_11 
REMARK    9  A    between atoms: C_21  and  C_22 
ROOT
HETATM    1  N   UNL     1      42.858 -17.740   4.512  1.00  0.00    -0.061 N 
HETATM    2  H   UNL     1      42.890 -18.593   5.074  1.00  0.00     0.280 HD
ENDROOT
BRANCH   1   3
HETATM    3  C   UNL     1      43.532 -16.671   5.366  1.00  0.00     0.267 C 
BRANCH   3   4
HETATM    4  C   UNL     1      42.717 -16.279   6.620  1.00  0.00     0.143 C 
BRANCH   4   5
HETATM    5  C   UNL     1      42.831 -17.387   7.677  1.00  0.00     0.029 C 
HETATM    6  C   UNL     1      44.153 -18.143   7.619  1.00  0.00     0.007 C 
ENDBRANCH   4   5
BRANCH   4   7
HETATM    7  O   UNL     1      43.226 -15.054   7.143  1.00  0.00    -0.394 OA
HETATM    8  H   UNL     1      43.412 -14.444   6.404  1.00  0.00     0.210 HD
ENDBRANCH   4   7
ENDBRANCH   3   4
ENDBRANCH   1   3
BRANCH   1   9
HETATM    9  C   UNL     1      41.384 -17.543   4.217  1.00  0.00     0.277 C 
BRANCH   9  10
HETATM   10  C   UNL     1      40.955 -16.808   2.994  1.00  0.00     0.016 A 
HETATM   11  C   UNL     1      40.709 -15.394   2.927  1.00  0.00     0.096 A 
HETATM   12  N   UNL     1      40.277 -15.037   1.711  1.00  0.00    -0.174 NA
HETATM   13  N   UNL     1      40.315 -16.154   0.987  1.00  0.00    -0.288 N 
HETATM   14  H   UNL     1      40.057 -16.099   0.005  1.00  0.00     0.188 HD
HETATM   15  C   UNL     1      40.685 -17.251   1.712  1.00  0.00     0.120 A 
BRANCH  11  16
HETATM   16  C   UNL     1      40.827 -14.394   3.987  1.00  0.00    -0.005 A 
HETATM   17  C   UNL     1      39.886 -14.323   5.023  1.00  0.00     0.014 A 
HETATM   18  C   UNL     1      40.008 -13.351   6.019  1.00  0.00     0.001 A 
HETATM   19  C   UNL     1      41.074 -12.453   5.994  1.00  0.00     0.000 A 
HETATM   20  C   UNL     1      42.027 -12.530   4.980  1.00  0.00     0.001 A 
HETATM   21  C   UNL     1      41.905 -13.499   3.982  1.00  0.00     0.014 A 
ENDBRANCH  11  16
ENDBRANCH   9  10
ENDBRANCH   1   9
BRANCH   1  22
HETATM   22  C   UNL     1      43.628 -18.064   3.248  1.00  0.00     0.273 C 
BRANCH  22  23
HETATM   23  C   UNL     1      43.931 -19.532   3.097  1.00  0.00    -0.033 A 
HETATM   24  C   UNL     1      43.571 -20.225   1.931  1.00  0.00     0.009 A 
HETATM   25  C   UNL     1      43.827 -21.592   1.815  1.00  0.00     0.001 A 
HETATM   26  C   UNL     1      44.449 -22.279   2.856  1.00  0.00     0.000 A 
HETATM   27  C   UNL     1      44.821 -21.599   4.014  1.00  0.00     0.001 A 
HETATM   28  C   UNL     1      44.566 -20.233   4.135  1.00  0.00     0.009 A 
ENDBRANCH  22  23
ENDBRANCH   1  22
TORSDOF 9
ENDMDL
MODEL 5
REMARK VINA RESULT:      -7.4      2.038      3.507
REMARK  9 active torsions:
REMARK  status: ('A' for Active; 'I' for Inactive)
REMARK    1  A    between atoms: C_2  and  C_3 
REMARK    2  A    between atoms: C_3  and  O_4 
REMARK    3  A    between atoms: C_3  and  C_5 
REMARK    4  A    between atoms: C_5  and  N_6 
REMARK    5  A    between atoms: N_6  and  C_8 
REMARK    6  A    between atoms: N_6  and  C_21 
REMARK    7  A    between atoms: C_8  and  C_9 
REMARK    8  A    between atoms: C_10  and  C_11 
REMARK    9  A    between atoms: C_21  and  C_22 
ROOT
HETATM    1  N   UNL     1      42.131 -14.123   5.166  1.00  0.00    -0.061 N 
HETATM    2  H   UNL     1      41.484 -14.800   5.577  1.00  0.00     0.280 HD
ENDROOT
BRANCH   1   3
HETATM    3  C   UNL     1      41.542 -12.755   5.493  1.00  0.00     0.267 C 
BRANCH   3   4
HETATM    4  C   UNL     1      40.184 -12.828   6.230  1.00  0.00     0.143 C 
BRANCH   4   5
HETATM    5  C   UNL     1      39.091 -12.187   5.362  1.00  0.00     0.029 C 
HETATM    6  C   UNL     1      39.643 -11.364   4.206  1.00  0.00     0.007 C 
ENDBRANCH   4   5
BRANCH   4   7
HETATM    7  O   UNL     1      39.864 -14.195   6.484  1.00  0.00    -0.394 OA
HETATM    8  H   UNL     1      39.059 -14.433   5.988  1.00  0.00     0.210 HD
ENDBRANCH   4   7
ENDBRANCH   3   4
ENDBRANCH   1   3
BRANCH   1   9
HETATM    9  C   UNL     1      42.189 -14.505   3.699  1.00  0.00     0.277 C 
BRANCH   9  10
HETATM   10  C   UNL     1      41.038 -15.201   3.059  1.00  0.00     0.016 A 
HETATM   11  C   UNL     1      41.061 -16.553   2.572  1.00  0.00     0.096 A 
HETATM   12  N   UNL     1      39.899 -16.876   1.992  1.00  0.00    -0.174 NA
HETATM   13  N   UNL     1      39.118 -15.811   2.162  1.00  0.00    -0.288 N 
HETATM   14  H   UNL     1      38.161 -15.859   1.823  1.00  0.00     0.188 HD
HETATM   15  C   UNL     1      39.757 -14.767   2.768  1.00  0.00     0.120 A 
BRANCH  11  16
HETATM   16  C   UNL     1      42.161 -17.516   2.602  1.00  0.00    -0.005 A 
HETATM   17  C   UNL     1      42.460 -18.239   3.764  1.00  0.00     0.014 A 
HETATM   18  C   UNL     1      43.524 -19.143   3.777  1.00  0.00     0.001 A 
HETATM   19  C   UNL     1      44.289 -19.341   2.627  1.00  0.00     0.000 A 
HETATM   20  C   UNL     1      43.985 -18.642   1.461  1.00  0.00     0.001 A 
HETATM   21  C   UNL     1      42.924 -17.735   1.447  1.00  0.00     0.014 A 
ENDBRANCH  11  16
ENDBRANCH   9  10
ENDBRANCH   1   9
BRANCH   1  22
HETATM   22  C   UNL     1      43.461 -14.376   5.848  1.00  0.00     0.273 C 
BRANCH  22  23
HETATM   23  C   UNL     1      43.591 -15.773   6.395  1.00  0.00    -0.033 A 
HETATM   24  C   UNL     1      44.818 -16.452   6.351  1.00  0.00     0.009 A 
HETATM   25  C   UNL     1      44.920 -17.759   6.831  1.00  0.00     0.001 A 
HETATM   26  C   UNL     1      43.802 -18.397   7.364  1.00  0.00     0.000 A 
HETATM   27  C   UNL     1      42.581 -17.730   7.424  1.00  0.00     0.001 A 
HETATM   28  C   UNL     1      42.474 -16.424   6.944  1.00  0.00     0.009 A 
ENDBRANCH  22  23
ENDBRANCH   1  22
TORSDOF 9
ENDMDL
MODEL 6
REMARK VINA RESULT:      -7.4      2.583      4.973
REMARK  9 active torsions:
REMARK  status: ('A' for Active; 'I' for Inactive)
REMARK    1  A    between atoms: C_2  and  C_3 
REMARK    2  A    between atoms: C_3  and  O_4 
REMARK    3  A    between atoms: C_3  and  C_5 
REMARK    4  A    between atoms: C_5  and  N_6 
REMARK    5  A    between atoms: N_6  and  C_8 
REMARK    6  A    between atoms: N_6  and  C_21 
REMARK    7  A    between atoms: C_8  and  C_9 
REMARK    8  A    between atoms: C_10  and  C_11 
REMARK    9  A    between atoms: C_21  and  C_22 
ROOT
HETATM    1  N   UNL     1      42.035 -16.598   2.333  1.00  0.00    -0.061 N 
HETATM    2  H   UNL     1      42.760 -16.543   3.051  1.00  0.00     0.280 HD
ENDROOT
BRANCH   1   3
HETATM    3  C   UNL     1      42.411 -15.544   1.299  1.00  0.00     0.267 C 
BRANCH   3   4
HETATM    4  C   UNL     1      41.302 -15.281   0.253  1.00  0.00     0.143 C 
BRANCH   4   5
HETATM    5  C   UNL     1      41.118 -13.768   0.066  1.00  0.00     0.029 C 
HETATM    6  C   UNL     1      42.005 -12.934   0.981  1.00  0.00     0.007 C 
ENDBRANCH   4   5
BRANCH   4   7
HETATM    7  O   UNL     1      41.676 -15.883  -0.984  1.00  0.00    -0.394 OA
HETATM    8  H   UNL     1      42.649 -15.936  -1.034  1.00  0.00     0.210 HD
ENDBRANCH   4   7
ENDBRANCH   3   4
ENDBRANCH   1   3
BRANCH   1   9
HETATM    9  C   UNL     1      40.740 -16.374   3.091  1.00  0.00     0.277 C 
BRANCH   9  10
HETATM   10  C   UNL     1      40.534 -15.120   3.869  1.00  0.00     0.016 A 
HETATM   11  C   UNL     1      41.151 -14.825   5.133  1.00  0.00     0.096 A 
HETATM   12  N   UNL     1      40.724 -13.652   5.616  1.00  0.00    -0.174 NA
HETATM   13  N   UNL     1      39.923 -13.159   4.672  1.00  0.00    -0.288 N 
HETATM   14  H   UNL     1      39.513 -12.241   4.821  1.00  0.00     0.188 HD
HETATM   15  C   UNL     1      39.750 -14.009   3.617  1.00  0.00     0.120 A 
BRANCH  11  16
HETATM   16  C   UNL     1      42.087 -15.640   5.906  1.00  0.00    -0.005 A 
HETATM   17  C   UNL     1      41.650 -16.764   6.619  1.00  0.00     0.014 A 
HETATM   18  C   UNL     1      42.557 -17.521   7.364  1.00  0.00     0.001 A 
HETATM   19  C   UNL     1      43.906 -17.169   7.393  1.00  0.00     0.000 A 
HETATM   20  C   UNL     1      44.353 -16.065   6.670  1.00  0.00     0.001 A 
HETATM   21  C   UNL     1      43.447 -15.305   5.927  1.00  0.00     0.014 A 
ENDBRANCH  11  16
ENDBRANCH   9  10
ENDBRANCH   1   9
BRANCH   1  22
HETATM   22  C   UNL     1      42.112 -18.013   1.795  1.00  0.00     0.273 C 
BRANCH  22  23
HETATM   23  C   UNL     1      43.097 -18.877   2.538  1.00  0.00    -0.033 A 
HETATM   24  C   UNL     1      43.557 -20.083   1.985  1.00  0.00     0.009 A 
HETATM   25  C   UNL     1      44.445 -20.892   2.696  1.00  0.00     0.001 A 
HETATM   26  C   UNL     1      44.886 -20.505   3.960  1.00  0.00     0.000 A 
HETATM   27  C   UNL     1      44.445 -19.305   4.514  1.00  0.00     0.001 A 
HETATM   28  C   UNL     1      43.556 -18.494   3.808  1.00  0.00     0.009 A 
ENDBRANCH  22  23
ENDBRANCH   1  22
TORSDOF 9
ENDMDL
MODEL 7
REMARK VINA RESULT:      -7.4      1.891      3.601
REMARK  9 active torsions:
REMARK  status: ('A' for Active; 'I' for Inactive)
REMARK    1  A    between atoms: C_2  and  C_3 
REMARK    2  A    between atoms: C_3  and  O_4 
REMARK    3  A    between atoms: C_3  and  C_5 
REMARK    4  A    between atoms: C_5  and  N_6 
REMARK    5  A    between atoms: N_6  and  C_8 
REMARK    6  A    between atoms: N_6  and  C_21 
REMARK    7  A    between atoms: C_8  and  C_9 
REMARK    8  A    between atoms: C_10  and  C_11 
REMARK    9  A    between atoms: C_21  and  C_22 
ROOT
HETATM    1  N   UNL     1      43.031 -14.168   5.320  1.00  0.00    -0.061 N 
HETATM    2  H   UNL     1      42.525 -15.048   5.201  1.00  0.00     0.280 HD
ENDROOT
BRANCH   1   3
HETATM    3  C   UNL     1      41.979 -13.155   5.759  1.00  0.00     0.267 C 
BRANCH   3   4
HETATM    4  C   UNL     1      40.531 -13.693   5.674  1.00  0.00     0.143 C 
BRANCH   4   5
HETATM    5  C   UNL     1      40.550 -15.149   5.183  1.00  0.00     0.029 C 
HETATM    6  C   UNL     1      40.349 -16.165   6.300  1.00  0.00     0.007 C 
ENDBRANCH   4   5
BRANCH   4   7
HETATM    7  O   UNL     1      39.931 -13.623   6.966  1.00  0.00    -0.394 OA
HETATM    8  H   UNL     1      39.315 -14.373   7.074  1.00  0.00     0.210 HD
ENDBRANCH   4   7
ENDBRANCH   3   4
ENDBRANCH   1   3
BRANCH   1   9
HETATM    9  C   UNL     1      43.684 -13.928   3.973  1.00  0.00     0.277 C 
BRANCH   9  10
HETATM   10  C   UNL     1      42.876 -14.001   2.724  1.00  0.00     0.016 A 
HETATM   11  C   UNL     1      42.571 -15.210   2.010  1.00  0.00     0.096 A 
HETATM   12  N   UNL     1      41.882 -14.950   0.892  1.00  0.00    -0.174 NA
HETATM   13  N   UNL     1      41.673 -13.634   0.912  1.00  0.00    -0.288 N 
HETATM   14  H   UNL     1      41.125 -13.225   0.160  1.00  0.00     0.188 HD
HETATM   15  C   UNL     1      42.271 -13.011   1.970  1.00  0.00     0.120 A 
BRANCH  11  16
HETATM   16  C   UNL     1      42.954 -16.584   2.334  1.00  0.00    -0.005 A 
HETATM   17  C   UNL     1      42.359 -17.269   3.401  1.00  0.00     0.014 A 
HETATM   18  C   UNL     1      42.750 -18.575   3.705  1.00  0.00     0.001 A 
HETATM   19  C   UNL     1      43.727 -19.210   2.938  1.00  0.00     0.000 A 
HETATM   20  C   UNL     1      44.309 -18.543   1.862  1.00  0.00     0.001 A 
HETATM   21  C   UNL     1      43.923 -17.236   1.559  1.00  0.00     0.014 A 
ENDBRANCH  11  16
ENDBRANCH   9  10
ENDBRANCH   1   9
BRANCH   1  22
HETATM   22  C   UNL     1      44.070 -14.445   6.388  1.00  0.00     0.273 C 
BRANCH  22  23
HETATM   23  C   UNL     1      44.152 -15.899   6.773  1.00  0.00    -0.033 A 
HETATM   24  C   UNL     1      43.419 -16.398   7.861  1.00  0.00     0.009 A 
HETATM   25  C   UNL     1      43.526 -17.740   8.229  1.00  0.00     0.001 A 
HETATM   26  C   UNL     1      44.359 -18.597   7.513  1.00  0.00     0.000 A 
HETATM   27  C   UNL     1      45.083 -18.117   6.424  1.00  0.00     0.001 A 
HETATM   28  C   UNL     1      44.980 -16.775   6.053  1.00  0.00     0.009 A 
ENDBRANCH  22  23
ENDBRANCH   1  22
TORSDOF 9
ENDMDL
MODEL 8
REMARK VINA RESULT:      -7.1      2.704      4.721
REMARK  9 active torsions:
REMARK  status: ('A' for Active; 'I' for Inactive)
REMARK    1  A    between atoms: C_2  and  C_3 
REMARK    2  A    between atoms: C_3  and  O_4 
REMARK    3  A    between atoms: C_3  and  C_5 
REMARK    4  A    between atoms: C_5  and  N_6 
REMARK    5  A    between atoms: N_6  and  C_8 
REMARK    6  A    between atoms: N_6  and  C_21 
REMARK    7  A    between atoms: C_8  and  C_9 
REMARK    8  A    between atoms: C_10  and  C_11 
REMARK    9  A    between atoms: C_21  and  C_22 
ROOT
HETATM    1  N   UNL     1      41.604 -17.206   3.399  1.00  0.00    -0.061 N 
HETATM    2  H   UNL     1      41.334 -18.154   3.668  1.00  0.00     0.280 HD
ENDROOT
BRANCH   1   3
HETATM    3  C   UNL     1      41.476 -16.375   4.671  1.00  0.00     0.267 C 
BRANCH   3   4
HETATM    4  C   UNL     1      41.185 -17.221   5.933  1.00  0.00     0.143 C 
BRANCH   4   5
HETATM    5  C   UNL     1      42.312 -17.022   6.958  1.00  0.00     0.029 C 
HETATM    6  C   UNL     1      43.449 -16.149   6.443  1.00  0.00     0.007 C 
ENDBRANCH   4   5
BRANCH   4   7
HETATM    7  O   UNL     1      39.940 -16.810   6.493  1.00  0.00    -0.394 OA
HETATM    8  H   UNL     1      40.088 -16.040   7.075  1.00  0.00     0.210 HD
ENDBRANCH   4   7
ENDBRANCH   3   4
ENDBRANCH   1   3
BRANCH   1   9
HETATM    9  C   UNL     1      40.662 -16.857   2.262  1.00  0.00     0.277 C 
BRANCH   9  10
HETATM   10  C   UNL     1      41.125 -15.989   1.144  1.00  0.00     0.016 A 
HETATM   11  C   UNL     1      41.315 -14.567   1.230  1.00  0.00     0.096 A 
HETATM   12  N   UNL     1      41.675 -14.056   0.047  1.00  0.00    -0.174 NA
HETATM   13  N   UNL     1      41.796 -15.107  -0.763  1.00  0.00    -0.288 N 
HETATM   14  H   UNL     1      42.104 -14.944  -1.718  1.00  0.00     0.188 HD
HETATM   15  C   UNL     1      41.451 -16.286  -0.167  1.00  0.00     0.120 A 
BRANCH  11  16
HETATM   16  C   UNL     1      41.119 -13.687   2.381  1.00  0.00    -0.005 A 
HETATM   17  C   UNL     1      42.209 -13.211   3.123  1.00  0.00     0.014 A 
HETATM   18  C   UNL     1      42.000 -12.384   4.229  1.00  0.00     0.001 A 
HETATM   19  C   UNL     1      40.705 -12.017   4.595  1.00  0.00     0.000 A 
HETATM   20  C   UNL     1      39.617 -12.468   3.850  1.00  0.00     0.001 A 
HETATM   21  C   UNL     1      39.823 -13.298   2.746  1.00  0.00     0.014 A 
ENDBRANCH  11  16
ENDBRANCH   9  10
ENDBRANCH   1   9
BRANCH   1  22
HETATM   22  C   UNL     1      43.033 -17.322   2.906  1.00  0.00     0.273 C 
BRANCH  22  23
HETATM   23  C   UNL     1      43.566 -18.729   2.960  1.00  0.00    -0.033 A 
HETATM   24  C   UNL     1      43.384 -19.610   1.882  1.00  0.00     0.009 A 
HETATM   25  C   UNL     1      43.854 -20.922   1.955  1.00  0.00     0.001 A 
HETATM   26  C   UNL     1      44.515 -21.366   3.098  1.00  0.00     0.000 A 
HETATM   27  C   UNL     1      44.713 -20.498   4.169  1.00  0.00     0.001 A 
HETATM   28  C   UNL     1      44.243 -19.186   4.102  1.00  0.00     0.009 A 
ENDBRANCH  22  23
ENDBRANCH   1  22
TORSDOF 9
ENDMDL
MODEL 9
REMARK VINA RESULT:      -7.1      2.633      5.421
REMARK  9 active torsions:
REMARK  status: ('A' for Active; 'I' for Inactive)
REMARK    1  A    between atoms: C_2  and  C_3 
REMARK    2  A    between atoms: C_3  and  O_4 
REMARK    3  A    between atoms: C_3  and  C_5 
REMARK    4  A    between atoms: C_5  and  N_6 
REMARK    5  A    between atoms: N_6  and  C_8 
REMARK    6  A    between atoms: N_6  and  C_21 
REMARK    7  A    between atoms: C_8  and  C_9 
REMARK    8  A    between atoms: C_10  and  C_11 
REMARK    9  A    between atoms: C_21  and  C_22 
ROOT
HETATM    1  N   UNL     1      42.295 -16.429   5.712  1.00  0.00    -0.061 N 
HETATM    2  H   UNL     1      42.723 -15.885   4.960  1.00  0.00     0.280 HD
ENDROOT
BRANCH   1   3
HETATM    3  C   UNL     1      43.313 -16.415   6.848  1.00  0.00     0.267 C 
BRANCH   3   4
HETATM    4  C   UNL     1      43.239 -17.663   7.758  1.00  0.00     0.143 C 
BRANCH   4   5
HETATM    5  C   UNL     1      44.313 -18.675   7.334  1.00  0.00     0.029 C 
HETATM    6  C   UNL     1      45.464 -18.045   6.560  1.00  0.00     0.007 C 
ENDBRANCH   4   5
BRANCH   4   7
HETATM    7  O   UNL     1      43.451 -17.266   9.111  1.00  0.00    -0.394 OA
HETATM    8  H   UNL     1      44.164 -16.600   9.142  1.00  0.00     0.210 HD
ENDBRANCH   4   7
ENDBRANCH   3   4
ENDBRANCH   1   3
BRANCH   1   9
HETATM    9  C   UNL     1      42.003 -17.776   5.080  1.00  0.00     0.277 C 
BRANCH   9  10
HETATM   10  C   UNL     1      42.718 -18.194   3.841  1.00  0.00     0.016 A 
HETATM   11  C   UNL     1      42.553 -17.585   2.550  1.00  0.00     0.096 A 
HETATM   12  N   UNL     1      43.280 -18.218   1.622  1.00  0.00    -0.174 NA
HETATM   13  N   UNL     1      43.956 -19.153   2.288  1.00  0.00    -0.288 N 
HETATM   14  H   UNL     1      44.609 -19.734   1.769  1.00  0.00     0.188 HD
HETATM   15  C   UNL     1      43.636 -19.203   3.615  1.00  0.00     0.120 A 
BRANCH  11  16
HETATM   16  C   UNL     1      41.698 -16.461   2.173  1.00  0.00    -0.005 A 
HETATM   17  C   UNL     1      40.306 -16.531   2.315  1.00  0.00     0.014 A 
HETATM   18  C   UNL     1      39.504 -15.452   1.934  1.00  0.00     0.001 A 
HETATM   19  C   UNL     1      40.087 -14.293   1.421  1.00  0.00     0.000 A 
HETATM   20  C   UNL     1      41.472 -14.207   1.296  1.00  0.00     0.001 A 
HETATM   21  C   UNL     1      42.275 -15.285   1.673  1.00  0.00     0.014 A 
ENDBRANCH  11  16
ENDBRANCH   9  10
ENDBRANCH   1   9
BRANCH   1  22
HETATM   22  C   UNL     1      41.012 -15.699   6.055  1.00  0.00     0.273 C 
BRANCH  22  23
HETATM   23  C   UNL     1      40.917 -14.337   5.418  1.00  0.00    -0.033 A 
HETATM   24  C   UNL     1      39.673 -13.714   5.232  1.00  0.00     0.009 A 
HETATM   25  C   UNL     1      39.594 -12.466   4.613  1.00  0.00     0.001 A 
HETATM   26  C   UNL     1      40.752 -11.826   4.178  1.00  0.00     0.000 A 
HETATM   27  C   UNL     1      41.994 -12.428   4.367  1.00  0.00     0.001 A 
HETATM   28  C   UNL     1      42.078 -13.676   4.985  1.00  0.00     0.009 A 
ENDBRANCH  22  23
ENDBRANCH   1  22
TORSDOF 9
ENDMDL
MODEL 10
REMARK VINA RESULT:      -7.1      2.277      5.334
REMARK  9 active torsions:
REMARK  status: ('A' for Active; 'I' for Inactive)
REMARK    1  A    between atoms: C_2  and  C_3 
REMARK    2  A    between atoms: C_3  and  O_4 
REMARK    3  A    between atoms: C_3  and  C_5 
REMARK    4  A    between atoms: C_5  and  N_6 
REMARK    5  A    between atoms: N_6  and  C_8 
REMARK    6  A    between atoms: N_6  and  C_21 
REMARK    7  A    between atoms: C_8  and  C_9 
REMARK    8  A    between atoms: C_10  and  C_11 
REMARK    9  A    between atoms: C_21  and  C_22 
ROOT
HETATM    1  N   UNL     1      42.490 -16.439   5.155  1.00  0.00    -0.061 N 
HETATM    2  H   UNL     1      42.835 -15.651   4.602  1.00  0.00     0.280 HD
ENDROOT
BRANCH   1   3
HETATM    3  C   UNL     1      43.655 -16.842   6.052  1.00  0.00     0.267 C 
BRANCH   3   4
HETATM    4  C   UNL     1      43.304 -16.838   7.558  1.00  0.00     0.143 C 
BRANCH   4   5
HETATM    5  C   UNL     1      43.923 -18.070   8.235  1.00  0.00     0.029 C 
HETATM    6  C   UNL     1      43.735 -19.355   7.438  1.00  0.00     0.007 C 
ENDBRANCH   4   5
BRANCH   4   7
HETATM    7  O   UNL     1      43.815 -15.648   8.153  1.00  0.00    -0.394 OA
HETATM    8  H   UNL     1      44.175 -15.859   9.036  1.00  0.00     0.210 HD
ENDBRANCH   4   7
ENDBRANCH   3   4
ENDBRANCH   1   3
BRANCH   1   9
HETATM    9  C   UNL     1      42.046 -17.455   4.120  1.00  0.00     0.277 C 
BRANCH   9  10
HETATM   10  C   UNL     1      42.523 -17.350   2.713  1.00  0.00     0.016 A 
HETATM   11  C   UNL     1      43.309 -18.343   2.033  1.00  0.00     0.096 A 
HETATM   12  N   UNL     1      43.636 -17.937   0.800  1.00  0.00    -0.174 NA
HETATM   13  N   UNL     1      43.024 -16.764   0.646  1.00  0.00    -0.288 N 
HETATM   14  H   UNL     1      43.111 -16.291  -0.249  1.00  0.00     0.188 HD
HETATM   15  C   UNL     1      42.367 -16.350   1.770  1.00  0.00     0.120 A 
BRANCH  11  16
HETATM   16  C   UNL     1      43.790 -19.628   2.536  1.00  0.00    -0.005 A 
HETATM   17  C   UNL     1      43.625 -20.804   1.792  1.00  0.00     0.014 A 
HETATM   18  C   UNL     1      44.078 -22.026   2.297  1.00  0.00     0.001 A 
HETATM   19  C   UNL     1      44.709 -22.079   3.539  1.00  0.00     0.000 A 
HETATM   20  C   UNL     1      44.897 -20.911   4.276  1.00  0.00     0.001 A 
HETATM   21  C   UNL     1      44.441 -19.690   3.775  1.00  0.00     0.014 A 
ENDBRANCH  11  16
ENDBRANCH   9  10
ENDBRANCH   1   9
BRANCH   1  22
HETATM   22  C   UNL     1      41.305 -15.896   5.928  1.00  0.00     0.273 C 
BRANCH  22  23
HETATM   23  C   UNL     1      41.014 -14.449   5.629  1.00  0.00    -0.033 A 
HETATM   24  C   UNL     1      39.711 -14.024   5.325  1.00  0.00     0.009 A 
HETATM   25  C   UNL     1      39.458 -12.686   5.018  1.00  0.00     0.001 A 
HETATM   26  C   UNL     1      40.499 -11.760   5.016  1.00  0.00     0.000 A 
HETATM   27  C   UNL     1      41.794 -12.167   5.327  1.00  0.00     0.001 A 
HETATM   28  C   UNL     1      42.052 -13.503   5.633  1.00  0.00     0.009 A 
ENDBRANCH  22  23
ENDBRANCH   1  22
TORSDOF 9
ENDMDL
