MODEL 1
REMARK VINA RESULT:      -8.1      0.000      0.000
REMARK  8 active torsions:
REMARK  status: ('A' for Active; 'I' for Inactive)
REMARK    1  A    between atoms: C_2  and  C_3 
REMARK    2  A    between atoms: C_6  and  C_7 
REMARK    3  A    between atoms: C_11  and  C_12 
REMARK    4  A    between atoms: C_12  and  C_13 
REMARK    5  A    between atoms: C_13  and  C_14 
REMARK    6  A    between atoms: C_14  and  O_15 
REMARK    7  A    between atoms: C_20  and  C_21 
REMARK       I    between atoms: C_21  and  N_22 
REMARK    8  A    between atoms: N_22  and  C_23 
ROOT
HETATM    1  C   UNL     1      41.161 -14.375   4.923  1.00  0.00     0.202 C 
HETATM    2  N   UNL     1      41.044 -13.047   5.538  1.00  0.00    -0.083 N 
HETATM    3  C   UNL     1      42.009 -12.488   6.330  1.00  0.00     0.726 A 
HETATM    4  N   UNL     1      41.583 -11.341   6.793  1.00  0.00    -0.046 NA
HETATM    5  C   UNL     1      40.309 -11.255   6.280  1.00  0.00     0.166 A 
HETATM    6  N   UNL     1      39.928 -12.289   5.515  1.00  0.00    -0.140 NA
HETATM    7  N   UNL     1      43.149 -13.166   6.569  1.00  0.00    -0.192 N 
HETATM    8  C   UNL     1      43.310 -14.507   6.232  1.00  0.00     0.037 C 
HETATM    9  C   UNL     1      44.478 -15.200   6.892  1.00  0.00     0.070 C 
HETATM   10  C   UNL     1      42.396 -15.114   5.434  1.00  0.00     0.062 C 
HETATM   11  H   UNL     1      43.785 -12.777   7.260  1.00  0.00     0.184 HD
ENDROOT
BRANCH  10  12
HETATM   12  C   UNL     1      42.404 -16.563   5.089  1.00  0.00     0.256 C 
HETATM   13  N   UNL     1      43.332 -16.907   4.131  1.00  0.00    -0.323 N 
HETATM   14  H   UNL     1      43.895 -16.161   3.747  1.00  0.00     0.169 HD
HETATM   15  O   UNL     1      41.600 -17.302   5.645  1.00  0.00    -0.267 OA
BRANCH  13  16
HETATM   16  C   UNL     1      43.630 -18.206   3.667  1.00  0.00     0.035 A 
HETATM   17  C   UNL     1      44.385 -19.137   4.385  1.00  0.00     0.031 A 
HETATM   18  C   UNL     1      44.659 -20.399   3.846  1.00  0.00     0.026 A 
HETATM   19  C   UNL     1      44.186 -20.732   2.581  1.00  0.00     0.034 A 
HETATM   20 CL   UNL     1      44.540 -22.276   1.911  1.00  0.00    -0.084 Cl
HETATM   21  C   UNL     1      43.428 -19.818   1.855  1.00  0.00     0.026 A 
HETATM   22  C   UNL     1      43.143 -18.562   2.401  1.00  0.00     0.031 A 
ENDBRANCH  13  16
ENDBRANCH  10  12
BRANCH   1  23
HETATM   23  C   UNL     1      41.139 -14.262   3.401  1.00  0.00    -0.028 A 
HETATM   24  C   UNL     1      40.184 -14.929   2.617  1.00  0.00     0.010 A 
HETATM   25  C   UNL     1      40.195 -14.810   1.224  1.00  0.00     0.007 A 
HETATM   26  C   UNL     1      41.159 -14.021   0.584  1.00  0.00    -0.059 A 
HETATM   27  C   UNL     1      42.098 -13.337   1.363  1.00  0.00     0.007 A 
HETATM   28  C   UNL     1      42.087 -13.454   2.755  1.00  0.00     0.010 A 
BRANCH  26  29
HETATM   29  C   UNL     1      41.182 -13.900  -0.919  1.00  0.00     0.034 C 
HETATM   30  C   UNL     1      40.956 -15.238  -1.605  1.00  0.00     0.010 C 
ENDBRANCH  26  29
ENDBRANCH   1  23
BRANCH   5  31
HETATM   31  C   UNL     1      39.399 -10.125   6.601  1.00  0.00     0.085 C 
BRANCH  31  32
HETATM   32  C   UNL     1      39.471  -9.669   8.055  1.00  0.00     0.034 C 
BRANCH  32  33
HETATM   33  C   UNL     1      39.000 -10.737   9.034  1.00  0.00     0.164 C 
BRANCH  33  34
HETATM   34  O   UNL     1      40.128 -11.370   9.630  1.00  0.00    -0.401 OA
HETATM   35  H   UNL     1      40.896 -10.789   9.496  1.00  0.00     0.209 HD
ENDBRANCH  33  34
ENDBRANCH  32  33
ENDBRANCH  31  32
ENDBRANCH   5  31
TORSDOF 8
ENDMDL
MODEL 2
REMARK VINA RESULT:      -8.0      1.197      1.702
REMARK  8 active torsions:
REMARK  status: ('A' for Active; 'I' for Inactive)
REMARK    1  A    between atoms: C_2  and  C_3 
REMARK    2  A    between atoms: C_6  and  C_7 
REMARK    3  A    between atoms: C_11  and  C_12 
REMARK    4  A    between atoms: C_12  and  C_13 
REMARK    5  A    between atoms: C_13  and  C_14 
REMARK    6  A    between atoms: C_14  and  O_15 
REMARK    7  A    between atoms: C_20  and  C_21 
REMARK       I    between atoms: C_21  and  N_22 
REMARK    8  A    between atoms: N_22  and  C_23 
ROOT
HETATM    1  C   UNL     1      41.119 -14.395   4.833  1.00  0.00     0.202 C 
HETATM    2  N   UNL     1      40.971 -13.055   5.416  1.00  0.00    -0.083 N 
HETATM    3  C   UNL     1      41.913 -12.463   6.211  1.00  0.00     0.726 A 
HETATM    4  N   UNL     1      41.462 -11.313   6.641  1.00  0.00    -0.046 NA
HETATM    5  C   UNL     1      40.196 -11.259   6.105  1.00  0.00     0.166 A 
HETATM    6  N   UNL     1      39.844 -12.315   5.356  1.00  0.00    -0.140 NA
HETATM    7  N   UNL     1      43.059 -13.117   6.485  1.00  0.00    -0.192 N 
HETATM    8  C   UNL     1      43.247 -14.463   6.181  1.00  0.00     0.037 C 
HETATM    9  C   UNL     1      44.414 -15.122   6.876  1.00  0.00     0.070 C 
HETATM   10  C   UNL     1      42.357 -15.102   5.381  1.00  0.00     0.062 C 
HETATM   11  H   UNL     1      43.678 -12.703   7.177  1.00  0.00     0.184 HD
ENDROOT
BRANCH  10  12
HETATM   12  C   UNL     1      42.393 -16.558   5.070  1.00  0.00     0.256 C 
HETATM   13  N   UNL     1      43.295 -16.900   4.086  1.00  0.00    -0.323 N 
HETATM   14  H   UNL     1      43.824 -16.147   3.666  1.00  0.00     0.169 HD
HETATM   15  O   UNL     1      41.631 -17.305   5.671  1.00  0.00    -0.267 OA
BRANCH  13  16
HETATM   16  C   UNL     1      43.613 -18.201   3.642  1.00  0.00     0.035 A 
HETATM   17  C   UNL     1      44.375 -19.112   4.378  1.00  0.00     0.031 A 
HETATM   18  C   UNL     1      44.669 -20.377   3.857  1.00  0.00     0.026 A 
HETATM   19  C   UNL     1      44.209 -20.734   2.593  1.00  0.00     0.034 A 
HETATM   20 CL   UNL     1      44.587 -22.281   1.947  1.00  0.00    -0.084 Cl
HETATM   21  C   UNL     1      43.445 -19.839   1.850  1.00  0.00     0.026 A 
HETATM   22  C   UNL     1      43.140 -18.579   2.378  1.00  0.00     0.031 A 
ENDBRANCH  13  16
ENDBRANCH  10  12
BRANCH   1  23
HETATM   23  C   UNL     1      41.121 -14.316   3.309  1.00  0.00    -0.028 A 
HETATM   24  C   UNL     1      42.058 -13.542   2.603  1.00  0.00     0.010 A 
HETATM   25  C   UNL     1      42.029 -13.486   1.206  1.00  0.00     0.007 A 
HETATM   26  C   UNL     1      41.066 -14.201   0.484  1.00  0.00    -0.059 A 
HETATM   27  C   UNL     1      40.145 -14.990   1.183  1.00  0.00     0.007 A 
HETATM   28  C   UNL     1      40.174 -15.048   2.577  1.00  0.00     0.010 A 
BRANCH  26  29
HETATM   29  C   UNL     1      41.024 -14.132  -1.021  1.00  0.00     0.034 C 
HETATM   30  C   UNL     1      41.001 -15.513  -1.658  1.00  0.00     0.010 C 
ENDBRANCH  26  29
ENDBRANCH   1  23
BRANCH   5  31
HETATM   31  C   UNL     1      39.262 -10.137   6.384  1.00  0.00     0.085 C 
BRANCH  31  32
HETATM   32  C   UNL     1      39.310  -9.022   5.344  1.00  0.00     0.034 C 
BRANCH  32  33
HETATM   33  C   UNL     1      38.398  -9.285   4.153  1.00  0.00     0.164 C 
BRANCH  33  34
HETATM   34  O   UNL     1      37.490 -10.334   4.469  1.00  0.00    -0.401 OA
HETATM   35  H   UNL     1      36.710  -9.932   4.888  1.00  0.00     0.209 HD
ENDBRANCH  33  34
ENDBRANCH  32  33
ENDBRANCH  31  32
ENDBRANCH   5  31
TORSDOF 8
ENDMDL
MODEL 3
REMARK VINA RESULT:      -8.0      3.492      6.484
REMARK  8 active torsions:
REMARK  status: ('A' for Active; 'I' for Inactive)
REMARK    1  A    between atoms: C_2  and  C_3 
REMARK    2  A    between atoms: C_6  and  C_7 
REMARK    3  A    between atoms: C_11  and  C_12 
REMARK    4  A    between atoms: C_12  and  C_13 
REMARK    5  A    between atoms: C_13  and  C_14 
REMARK    6  A    between atoms: C_14  and  O_15 
REMARK    7  A    between atoms: C_20  and  C_21 
REMARK       I    between atoms: C_21  and  N_22 
REMARK    8  A    between atoms: N_22  and  C_23 
ROOT
HETATM    1  C   UNL     1      42.943 -14.318   3.121  1.00  0.00     0.202 C 
HETATM    2  N   UNL     1      43.192 -14.092   4.550  1.00  0.00    -0.083 N 
HETATM    3  C   UNL     1      42.258 -13.590   5.415  1.00  0.00     0.726 A 
HETATM    4  N   UNL     1      42.799 -13.427   6.595  1.00  0.00    -0.046 NA
HETATM    5  C   UNL     1      44.104 -13.812   6.392  1.00  0.00     0.166 A 
HETATM    6  N   UNL     1      44.397 -14.214   5.146  1.00  0.00    -0.140 NA
HETATM    7  N   UNL     1      41.026 -13.287   4.961  1.00  0.00    -0.192 N 
HETATM    8  C   UNL     1      40.713 -13.248   3.605  1.00  0.00     0.037 C 
HETATM    9  C   UNL     1      39.424 -12.542   3.262  1.00  0.00     0.070 C 
HETATM   10  C   UNL     1      41.591 -13.748   2.698  1.00  0.00     0.062 C 
HETATM   11  H   UNL     1      40.402 -12.801   5.600  1.00  0.00     0.184 HD
ENDROOT
BRANCH  10  12
HETATM   12  C   UNL     1      41.416 -13.671   1.221  1.00  0.00     0.256 C 
HETATM   13  N   UNL     1      42.042 -12.591   0.638  1.00  0.00    -0.323 N 
HETATM   14  H   UNL     1      42.534 -11.957   1.253  1.00  0.00     0.169 HD
HETATM   15  O   UNL     1      40.737 -14.526   0.666  1.00  0.00    -0.267 OA
BRANCH  13  16
HETATM   16  C   UNL     1      42.126 -12.304  -0.741  1.00  0.00     0.035 A 
HETATM   17  C   UNL     1      42.129 -13.278  -1.742  1.00  0.00     0.031 A 
HETATM   18  C   UNL     1      42.241 -12.914  -3.089  1.00  0.00     0.026 A 
HETATM   19  C   UNL     1      42.360 -11.572  -3.439  1.00  0.00     0.034 A 
HETATM   20 CL   UNL     1      42.517 -11.128  -5.093  1.00  0.00    -0.084 Cl
HETATM   21  C   UNL     1      42.355 -10.590  -2.454  1.00  0.00     0.026 A 
HETATM   22  C   UNL     1      42.228 -10.954  -1.109  1.00  0.00     0.031 A 
ENDBRANCH  13  16
ENDBRANCH  10  12
BRANCH   1  23
HETATM   23  C   UNL     1      43.081 -15.800   2.784  1.00  0.00    -0.028 A 
HETATM   24  C   UNL     1      43.953 -16.260   1.784  1.00  0.00     0.010 A 
HETATM   25  C   UNL     1      44.051 -17.625   1.494  1.00  0.00     0.007 A 
HETATM   26  C   UNL     1      43.281 -18.559   2.198  1.00  0.00    -0.059 A 
HETATM   27  C   UNL     1      42.427 -18.106   3.210  1.00  0.00     0.007 A 
HETATM   28  C   UNL     1      42.330 -16.744   3.501  1.00  0.00     0.010 A 
BRANCH  26  29
HETATM   29  C   UNL     1      43.374 -20.030   1.880  1.00  0.00     0.034 C 
HETATM   30  C   UNL     1      44.360 -20.751   2.786  1.00  0.00     0.010 C 
ENDBRANCH  26  29
ENDBRANCH   1  23
BRANCH   5  31
HETATM   31  C   UNL     1      45.131 -13.731   7.462  1.00  0.00     0.085 C 
BRANCH  31  32
HETATM   32  C   UNL     1      44.864 -12.637   8.492  1.00  0.00     0.034 C 
BRANCH  32  33
HETATM   33  C   UNL     1      46.098 -11.797   8.796  1.00  0.00     0.164 C 
BRANCH  33  34
HETATM   34  O   UNL     1      45.699 -10.510   9.257  1.00  0.00    -0.401 OA
HETATM   35  H   UNL     1      45.061 -10.154   8.616  1.00  0.00     0.209 HD
ENDBRANCH  33  34
ENDBRANCH  32  33
ENDBRANCH  31  32
ENDBRANCH   5  31
TORSDOF 8
ENDMDL
MODEL 4
REMARK VINA RESULT:      -8.0      3.241      5.880
REMARK  8 active torsions:
REMARK  status: ('A' for Active; 'I' for Inactive)
REMARK    1  A    between atoms: C_2  and  C_3 
REMARK    2  A    between atoms: C_6  and  C_7 
REMARK    3  A    between atoms: C_11  and  C_12 
REMARK    4  A    between atoms: C_12  and  C_13 
REMARK    5  A    between atoms: C_13  and  C_14 
REMARK    6  A    between atoms: C_14  and  O_15 
REMARK    7  A    between atoms: C_20  and  C_21 
REMARK       I    between atoms: C_21  and  N_22 
REMARK    8  A    between atoms: N_22  and  C_23 
ROOT
HETATM    1  C   UNL     1      43.176 -14.053   3.486  1.00  0.00     0.202 C 
HETATM    2  N   UNL     1      43.432 -13.739   4.898  1.00  0.00    -0.083 N 
HETATM    3  C   UNL     1      42.519 -13.140   5.722  1.00  0.00     0.726 A 
HETATM    4  N   UNL     1      43.065 -12.917   6.890  1.00  0.00    -0.046 NA
HETATM    5  C   UNL     1      44.353 -13.369   6.719  1.00  0.00     0.166 A 
HETATM    6  N   UNL     1      44.630 -13.869   5.505  1.00  0.00    -0.140 NA
HETATM    7  N   UNL     1      41.301 -12.818   5.243  1.00  0.00    -0.192 N 
HETATM    8  C   UNL     1      40.992 -12.861   3.886  1.00  0.00     0.037 C 
HETATM    9  C   UNL     1      39.733 -12.128   3.490  1.00  0.00     0.070 C 
HETATM   10  C   UNL     1      41.849 -13.459   3.020  1.00  0.00     0.062 C 
HETATM   11  H   UNL     1      40.697 -12.263   5.844  1.00  0.00     0.184 HD
ENDROOT
BRANCH  10  12
HETATM   12  C   UNL     1      41.679 -13.478   1.540  1.00  0.00     0.256 C 
HETATM   13  N   UNL     1      40.795 -14.433   1.089  1.00  0.00    -0.323 N 
HETATM   14  H   UNL     1      40.367 -15.028   1.784  1.00  0.00     0.169 HD
HETATM   15  O   UNL     1      42.332 -12.691   0.866  1.00  0.00    -0.267 OA
BRANCH  13  16
HETATM   16  C   UNL     1      40.368 -14.631  -0.241  1.00  0.00     0.035 A 
HETATM   17  C   UNL     1      39.245 -14.016  -0.800  1.00  0.00     0.031 A 
HETATM   18  C   UNL     1      38.870 -14.284  -2.122  1.00  0.00     0.026 A 
HETATM   19  C   UNL     1      39.615 -15.176  -2.888  1.00  0.00     0.034 A 
HETATM   20 CL   UNL     1      39.143 -15.519  -4.506  1.00  0.00    -0.084 Cl
HETATM   21  C   UNL     1      40.739 -15.793  -2.347  1.00  0.00     0.026 A 
HETATM   22  C   UNL     1      41.120 -15.513  -1.031  1.00  0.00     0.031 A 
ENDBRANCH  13  16
ENDBRANCH  10  12
BRANCH   1  23
HETATM   23  C   UNL     1      43.252 -15.560   3.254  1.00  0.00    -0.028 A 
HETATM   24  C   UNL     1      42.644 -16.480   4.123  1.00  0.00     0.010 A 
HETATM   25  C   UNL     1      42.737 -17.855   3.886  1.00  0.00     0.007 A 
HETATM   26  C   UNL     1      43.439 -18.340   2.775  1.00  0.00    -0.059 A 
HETATM   27  C   UNL     1      44.028 -17.426   1.896  1.00  0.00     0.007 A 
HETATM   28  C   UNL     1      43.934 -16.053   2.130  1.00  0.00     0.010 A 
BRANCH  26  29
HETATM   29  C   UNL     1      43.553 -19.822   2.523  1.00  0.00     0.034 C 
HETATM   30  C   UNL     1      44.816 -20.412   3.132  1.00  0.00     0.010 C 
ENDBRANCH  26  29
ENDBRANCH   1  23
BRANCH   5  31
HETATM   31  C   UNL     1      45.382 -13.256   7.786  1.00  0.00     0.085 C 
BRANCH  31  32
HETATM   32  C   UNL     1      44.900 -12.519   9.031  1.00  0.00     0.034 C 
BRANCH  32  33
HETATM   33  C   UNL     1      45.756 -11.305   9.368  1.00  0.00     0.164 C 
BRANCH  33  34
HETATM   34  O   UNL     1      46.727 -11.107   8.346  1.00  0.00    -0.401 OA
HETATM   35  H   UNL     1      47.402 -10.501   8.695  1.00  0.00     0.209 HD
ENDBRANCH  33  34
ENDBRANCH  32  33
ENDBRANCH  31  32
ENDBRANCH   5  31
TORSDOF 8
ENDMDL
MODEL 5
REMARK VINA RESULT:      -7.3      4.230      6.606
REMARK  8 active torsions:
REMARK  status: ('A' for Active; 'I' for Inactive)
REMARK    1  A    between atoms: C_2  and  C_3 
REMARK    2  A    between atoms: C_6  and  C_7 
REMARK    3  A    between atoms: C_11  and  C_12 
REMARK    4  A    between atoms: C_12  and  C_13 
REMARK    5  A    between atoms: C_13  and  C_14 
REMARK    6  A    between atoms: C_14  and  O_15 
REMARK    7  A    between atoms: C_20  and  C_21 
REMARK       I    between atoms: C_21  and  N_22 
REMARK    8  A    between atoms: N_22  and  C_23 
ROOT
HETATM    1  C   UNL     1      42.147 -13.428   0.600  1.00  0.00     0.202 C 
HETATM    2  N   UNL     1      42.324 -12.328  -0.356  1.00  0.00    -0.083 N 
HETATM    3  C   UNL     1      41.891 -12.370  -1.653  1.00  0.00     0.726 A 
HETATM    4  N   UNL     1      42.265 -11.281  -2.274  1.00  0.00    -0.046 NA
HETATM    5  C   UNL     1      42.975 -10.604  -1.309  1.00  0.00     0.166 A 
HETATM    6  N   UNL     1      43.051 -11.216  -0.117  1.00  0.00    -0.140 NA
HETATM    7  N   UNL     1      41.252 -13.467  -2.107  1.00  0.00    -0.192 N 
HETATM    8  C   UNL     1      41.200 -14.657  -1.387  1.00  0.00     0.037 C 
HETATM    9  C   UNL     1      40.779 -15.870  -2.180  1.00  0.00     0.070 C 
HETATM   10  C   UNL     1      41.597 -14.676  -0.089  1.00  0.00     0.062 C 
HETATM   11  H   UNL     1      41.058 -13.513  -3.104  1.00  0.00     0.184 HD
ENDROOT
BRANCH  10  12
HETATM   12  C   UNL     1      41.685 -15.903   0.750  1.00  0.00     0.256 C 
HETATM   13  N   UNL     1      42.972 -16.260   1.089  1.00  0.00    -0.323 N 
HETATM   14  H   UNL     1      43.719 -15.682   0.731  1.00  0.00     0.169 HD
HETATM   15  O   UNL     1      40.650 -16.488   1.042  1.00  0.00    -0.267 OA
BRANCH  13  16
HETATM   16  C   UNL     1      43.362 -17.316   1.940  1.00  0.00     0.035 A 
HETATM   17  C   UNL     1      43.577 -17.173   3.313  1.00  0.00     0.031 A 
HETATM   18  C   UNL     1      43.988 -18.264   4.087  1.00  0.00     0.026 A 
HETATM   19  C   UNL     1      44.194 -19.503   3.487  1.00  0.00     0.034 A 
HETATM   20 CL   UNL     1      44.718 -20.838   4.435  1.00  0.00    -0.084 Cl
HETATM   21  C   UNL     1      43.980 -19.663   2.122  1.00  0.00     0.026 A 
HETATM   22  C   UNL     1      43.556 -18.574   1.352  1.00  0.00     0.031 A 
ENDBRANCH  13  16
ENDBRANCH  10  12
BRANCH   1  23
HETATM   23  C   UNL     1      41.278 -12.981   1.772  1.00  0.00    -0.028 A 
HETATM   24  C   UNL     1      39.903 -12.734   1.629  1.00  0.00     0.010 A 
HETATM   25  C   UNL     1      39.135 -12.318   2.722  1.00  0.00     0.007 A 
HETATM   26  C   UNL     1      39.724 -12.143   3.980  1.00  0.00    -0.059 A 
HETATM   27  C   UNL     1      41.089 -12.409   4.131  1.00  0.00     0.007 A 
HETATM   28  C   UNL     1      41.856 -12.825   3.041  1.00  0.00     0.010 A 
BRANCH  26  29
HETATM   29  C   UNL     1      38.903 -11.682   5.158  1.00  0.00     0.034 C 
HETATM   30  C   UNL     1      39.278 -12.411   6.439  1.00  0.00     0.010 C 
ENDBRANCH  26  29
ENDBRANCH   1  23
BRANCH   5  31
HETATM   31  C   UNL     1      43.658  -9.314  -1.584  1.00  0.00     0.085 C 
BRANCH  31  32
HETATM   32  C   UNL     1      42.704  -8.157  -1.864  1.00  0.00     0.034 C 
BRANCH  32  33
HETATM   33  C   UNL     1      42.603  -7.820  -3.346  1.00  0.00     0.164 C 
BRANCH  33  34
HETATM   34  O   UNL     1      41.712  -8.730  -3.984  1.00  0.00    -0.401 OA
HETATM   35  H   UNL     1      42.000  -9.630  -3.758  1.00  0.00     0.209 HD
ENDBRANCH  33  34
ENDBRANCH  32  33
ENDBRANCH  31  32
ENDBRANCH   5  31
TORSDOF 8
ENDMDL
MODEL 6
REMARK VINA RESULT:      -7.1      4.455      8.960
REMARK  8 active torsions:
REMARK  status: ('A' for Active; 'I' for Inactive)
REMARK    1  A    between atoms: C_2  and  C_3 
REMARK    2  A    between atoms: C_6  and  C_7 
REMARK    3  A    between atoms: C_11  and  C_12 
REMARK    4  A    between atoms: C_12  and  C_13 
REMARK    5  A    between atoms: C_13  and  C_14 
REMARK    6  A    between atoms: C_14  and  O_15 
REMARK    7  A    between atoms: C_20  and  C_21 
REMARK       I    between atoms: C_21  and  N_22 
REMARK    8  A    between atoms: N_22  and  C_23 
ROOT
HETATM    1  C   UNL     1      40.368 -15.417   2.393  1.00  0.00     0.202 C 
HETATM    2  N   UNL     1      41.518 -16.307   2.191  1.00  0.00    -0.083 N 
HETATM    3  C   UNL     1      42.225 -16.383   1.023  1.00  0.00     0.726 A 
HETATM    4  N   UNL     1      43.134 -17.319   1.122  1.00  0.00    -0.046 NA
HETATM    5  C   UNL     1      42.916 -17.827   2.382  1.00  0.00     0.166 A 
HETATM    6  N   UNL     1      41.922 -17.247   3.072  1.00  0.00    -0.140 NA
HETATM    7  N   UNL     1      41.877 -15.601  -0.018  1.00  0.00    -0.192 N 
HETATM    8  C   UNL     1      40.691 -14.871  -0.046  1.00  0.00     0.037 C 
HETATM    9  C   UNL     1      40.284 -14.358  -1.406  1.00  0.00     0.070 C 
HETATM   10  C   UNL     1      39.955 -14.743   1.087  1.00  0.00     0.062 C 
HETATM   11  H   UNL     1      42.341 -15.774  -0.906  1.00  0.00     0.184 HD
ENDROOT
BRANCH  10  12
HETATM   12  C   UNL     1      38.624 -14.077   1.159  1.00  0.00     0.256 C 
HETATM   13  N   UNL     1      38.688 -12.713   1.343  1.00  0.00    -0.323 N 
HETATM   14  H   UNL     1      39.608 -12.303   1.427  1.00  0.00     0.169 HD
HETATM   15  O   UNL     1      37.617 -14.770   1.077  1.00  0.00    -0.267 OA
BRANCH  13  16
HETATM   16  C   UNL     1      37.605 -11.809   1.363  1.00  0.00     0.035 A 
HETATM   17  C   UNL     1      36.472 -11.931   0.554  1.00  0.00     0.031 A 
HETATM   18  C   UNL     1      35.450 -10.977   0.614  1.00  0.00     0.026 A 
HETATM   19  C   UNL     1      35.560  -9.893   1.479  1.00  0.00     0.034 A 
HETATM   20 CL   UNL     1      34.311  -8.712   1.538  1.00  0.00    -0.084 Cl
HETATM   21  C   UNL     1      36.680  -9.760   2.294  1.00  0.00     0.026 A 
HETATM   22  C   UNL     1      37.695 -10.721   2.243  1.00  0.00     0.031 A 
ENDBRANCH  13  16
ENDBRANCH  10  12
BRANCH   1  23
HETATM   23  C   UNL     1      40.662 -14.409   3.501  1.00  0.00    -0.028 A 
HETATM   24  C   UNL     1      39.901 -14.353   4.680  1.00  0.00     0.010 A 
HETATM   25  C   UNL     1      40.192 -13.412   5.673  1.00  0.00     0.007 A 
HETATM   26  C   UNL     1      41.250 -12.509   5.510  1.00  0.00    -0.059 A 
HETATM   27  C   UNL     1      42.023 -12.576   4.346  1.00  0.00     0.007 A 
HETATM   28  C   UNL     1      41.735 -13.516   3.355  1.00  0.00     0.010 A 
BRANCH  26  29
HETATM   29  C   UNL     1      41.559 -11.484   6.573  1.00  0.00     0.034 C 
HETATM   30  C   UNL     1      41.346 -10.062   6.077  1.00  0.00     0.010 C 
ENDBRANCH  26  29
ENDBRANCH   1  23
BRANCH   5  31
HETATM   31  C   UNL     1      43.689 -18.978   2.918  1.00  0.00     0.085 C 
BRANCH  31  32
HETATM   32  C   UNL     1      43.588 -20.239   2.065  1.00  0.00     0.034 C 
BRANCH  32  33
HETATM   33  C   UNL     1      44.423 -21.390   2.611  1.00  0.00     0.164 C 
BRANCH  33  34
HETATM   34  O   UNL     1      44.351 -22.497   1.719  1.00  0.00    -0.401 OA
HETATM   35  H   UNL     1      44.098 -22.155   0.845  1.00  0.00     0.209 HD
ENDBRANCH  33  34
ENDBRANCH  32  33
ENDBRANCH  31  32
ENDBRANCH   5  31
TORSDOF 8
ENDMDL
MODEL 7
REMARK VINA RESULT:      -7.1      3.982      8.185
REMARK  8 active torsions:
REMARK  status: ('A' for Active; 'I' for Inactive)
REMARK    1  A    between atoms: C_2  and  C_3 
REMARK    2  A    between atoms: C_6  and  C_7 
REMARK    3  A    between atoms: C_11  and  C_12 
REMARK    4  A    between atoms: C_12  and  C_13 
REMARK    5  A    between atoms: C_13  and  C_14 
REMARK    6  A    between atoms: C_14  and  O_15 
REMARK    7  A    between atoms: C_20  and  C_21 
REMARK       I    between atoms: C_21  and  N_22 
REMARK    8  A    between atoms: N_22  and  C_23 
ROOT
HETATM    1  C   UNL     1      40.659 -12.819   5.164  1.00  0.00     0.202 C 
HETATM    2  N   UNL     1      40.416 -12.863   3.716  1.00  0.00    -0.083 N 
HETATM    3  C   UNL     1      40.681 -11.822   2.868  1.00  0.00     0.726 A 
HETATM    4  N   UNL     1      40.285 -12.132   1.660  1.00  0.00    -0.046 NA
HETATM    5  C   UNL     1      39.736 -13.383   1.827  1.00  0.00     0.166 A 
HETATM    6  N   UNL     1      39.780 -13.867   3.077  1.00  0.00    -0.140 NA
HETATM    7  N   UNL     1      41.205 -10.681   3.358  1.00  0.00    -0.192 N 
HETATM    8  C   UNL     1      41.289 -10.419   4.723  1.00  0.00     0.037 C 
HETATM    9  C   UNL     1      41.547  -8.976   5.085  1.00  0.00     0.070 C 
HETATM   10  C   UNL     1      41.057 -11.415   5.614  1.00  0.00     0.062 C 
HETATM   11  H   UNL     1      41.269  -9.889   2.724  1.00  0.00     0.184 HD
ENDROOT
BRANCH  10  12
HETATM   12  C   UNL     1      41.016 -11.234   7.092  1.00  0.00     0.256 C 
HETATM   13  N   UNL     1      42.225 -10.876   7.648  1.00  0.00    -0.323 N 
HETATM   14  H   UNL     1      43.012 -10.788   7.019  1.00  0.00     0.169 HD
HETATM   15  O   UNL     1      39.960 -11.433   7.678  1.00  0.00    -0.267 OA
BRANCH  13  16
HETATM   16  C   UNL     1      42.475 -10.553   8.998  1.00  0.00     0.035 A 
HETATM   17  C   UNL     1      41.690  -9.675   9.748  1.00  0.00     0.031 A 
HETATM   18  C   UNL     1      42.019  -9.385  11.078  1.00  0.00     0.026 A 
HETATM   19  C   UNL     1      43.140  -9.968  11.660  1.00  0.00     0.034 A 
HETATM   20 CL   UNL     1      43.553  -9.597  13.287  1.00  0.00    -0.084 Cl
HETATM   21  C   UNL     1      43.930 -10.849  10.927  1.00  0.00     0.026 A 
HETATM   22  C   UNL     1      43.592 -11.148   9.603  1.00  0.00     0.031 A 
ENDBRANCH  13  16
ENDBRANCH  10  12
BRANCH   1  23
HETATM   23  C   UNL     1      41.689 -13.872   5.564  1.00  0.00    -0.028 A 
HETATM   24  C   UNL     1      43.070 -13.618   5.522  1.00  0.00     0.010 A 
HETATM   25  C   UNL     1      43.988 -14.607   5.889  1.00  0.00     0.007 A 
HETATM   26  C   UNL     1      43.547 -15.868   6.307  1.00  0.00    -0.059 A 
HETATM   27  C   UNL     1      42.172 -16.118   6.370  1.00  0.00     0.007 A 
HETATM   28  C   UNL     1      41.254 -15.131   6.006  1.00  0.00     0.010 A 
BRANCH  26  29
HETATM   29  C   UNL     1      44.535 -16.941   6.691  1.00  0.00     0.034 C 
HETATM   30  C   UNL     1      44.477 -18.136   5.752  1.00  0.00     0.010 C 
ENDBRANCH  26  29
ENDBRANCH   1  23
BRANCH   5  31
HETATM   31  C   UNL     1      39.086 -14.119   0.712  1.00  0.00     0.085 C 
BRANCH  31  32
HETATM   32  C   UNL     1      40.029 -14.453  -0.439  1.00  0.00     0.034 C 
BRANCH  32  33
HETATM   33  C   UNL     1      41.225 -15.290  -0.001  1.00  0.00     0.164 C 
BRANCH  33  34
HETATM   34  O   UNL     1      40.806 -16.628   0.245  1.00  0.00    -0.401 OA
HETATM   35  H   UNL     1      41.304 -17.207  -0.357  1.00  0.00     0.209 HD
ENDBRANCH  33  34
ENDBRANCH  32  33
ENDBRANCH  31  32
ENDBRANCH   5  31
TORSDOF 8
ENDMDL
MODEL 8
REMARK VINA RESULT:      -7.0      2.949      5.458
REMARK  8 active torsions:
REMARK  status: ('A' for Active; 'I' for Inactive)
REMARK    1  A    between atoms: C_2  and  C_3 
REMARK    2  A    between atoms: C_6  and  C_7 
REMARK    3  A    between atoms: C_11  and  C_12 
REMARK    4  A    between atoms: C_12  and  C_13 
REMARK    5  A    between atoms: C_13  and  C_14 
REMARK    6  A    between atoms: C_14  and  O_15 
REMARK    7  A    between atoms: C_20  and  C_21 
REMARK       I    between atoms: C_21  and  N_22 
REMARK    8  A    between atoms: N_22  and  C_23 
ROOT
HETATM    1  C   UNL     1      41.726 -12.258   5.155  1.00  0.00     0.202 C 
HETATM    2  N   UNL     1      41.554 -11.682   6.495  1.00  0.00    -0.083 N 
HETATM    3  C   UNL     1      40.428 -11.019   6.900  1.00  0.00     0.726 A 
HETATM    4  N   UNL     1      40.606 -10.554   8.109  1.00  0.00    -0.046 NA
HETATM    5  C   UNL     1      41.899 -10.929   8.397  1.00  0.00     0.166 A 
HETATM    6  N   UNL     1      42.527 -11.611   7.428  1.00  0.00    -0.140 NA
HETATM    7  N   UNL     1      39.394 -10.881   6.046  1.00  0.00    -0.192 N 
HETATM    8  C   UNL     1      39.493 -11.185   4.691  1.00  0.00     0.037 C 
HETATM    9  C   UNL     1      38.387 -10.632   3.826  1.00  0.00     0.070 C 
HETATM   10  C   UNL     1      40.578 -11.858   4.231  1.00  0.00     0.062 C 
HETATM   11  H   UNL     1      38.629 -10.277   6.336  1.00  0.00     0.184 HD
ENDROOT
BRANCH  10  12
HETATM   12  C   UNL     1      40.845 -12.150   2.795  1.00  0.00     0.256 C 
HETATM   13  N   UNL     1      40.423 -13.396   2.387  1.00  0.00    -0.323 N 
HETATM   14  H   UNL     1      39.997 -13.989   3.086  1.00  0.00     0.169 HD
HETATM   15  O   UNL     1      41.419 -11.303   2.122  1.00  0.00    -0.267 OA
BRANCH  13  16
HETATM   16  C   UNL     1      40.461 -13.917   1.076  1.00  0.00     0.035 A 
HETATM   17  C   UNL     1      39.724 -13.398   0.009  1.00  0.00     0.031 A 
HETATM   18  C   UNL     1      39.796 -13.987  -1.259  1.00  0.00     0.026 A 
HETATM   19  C   UNL     1      40.600 -15.104  -1.462  1.00  0.00     0.034 A 
HETATM   20 CL   UNL     1      40.673 -15.839  -3.015  1.00  0.00    -0.084 Cl
HETATM   21  C   UNL     1      41.344 -15.630  -0.409  1.00  0.00     0.026 A 
HETATM   22  C   UNL     1      41.281 -15.032   0.853  1.00  0.00     0.031 A 
ENDBRANCH  13  16
ENDBRANCH  10  12
BRANCH   1  23
HETATM   23  C   UNL     1      41.900 -13.772   5.245  1.00  0.00    -0.028 A 
HETATM   24  C   UNL     1      40.891 -14.611   5.747  1.00  0.00     0.010 A 
HETATM   25  C   UNL     1      41.085 -15.994   5.822  1.00  0.00     0.007 A 
HETATM   26  C   UNL     1      42.288 -16.568   5.396  1.00  0.00    -0.059 A 
HETATM   27  C   UNL     1      43.287 -15.738   4.875  1.00  0.00     0.007 A 
HETATM   28  C   UNL     1      43.095 -14.358   4.798  1.00  0.00     0.010 A 
BRANCH  26  29
HETATM   29  C   UNL     1      42.506 -18.058   5.487  1.00  0.00     0.034 C 
HETATM   30  C   UNL     1      43.103 -18.629   4.211  1.00  0.00     0.010 C 
ENDBRANCH  26  29
ENDBRANCH   1  23
BRANCH   5  31
HETATM   31  C   UNL     1      42.571 -10.552   9.667  1.00  0.00     0.085 C 
BRANCH  31  32
HETATM   32  C   UNL     1      43.802 -11.394   9.987  1.00  0.00     0.034 C 
BRANCH  32  33
HETATM   33  C   UNL     1      43.821 -11.891  11.426  1.00  0.00     0.164 C 
BRANCH  33  34
HETATM   34  O   UNL     1      44.142 -13.278  11.448  1.00  0.00    -0.401 OA
HETATM   35  H   UNL     1      43.657 -13.704  10.721  1.00  0.00     0.209 HD
ENDBRANCH  33  34
ENDBRANCH  32  33
ENDBRANCH  31  32
ENDBRANCH   5  31
TORSDOF 8
ENDMDL
MODEL 9
REMARK VINA RESULT:      -7.0      3.560      4.519
REMARK  8 active torsions:
REMARK  status: ('A' for Active; 'I' for Inactive)
REMARK    1  A    between atoms: C_2  and  C_3 
REMARK    2  A    between atoms: C_6  and  C_7 
REMARK    3  A    between atoms: C_11  and  C_12 
REMARK    4  A    between atoms: C_12  and  C_13 
REMARK    5  A    between atoms: C_13  and  C_14 
REMARK    6  A    between atoms: C_14  and  O_15 
REMARK    7  A    between atoms: C_20  and  C_21 
REMARK       I    between atoms: C_21  and  N_22 
REMARK    8  A    between atoms: N_22  and  C_23 
ROOT
HETATM    1  C   UNL     1      39.185 -13.638   1.553  1.00  0.00     0.202 C 
HETATM    2  N   UNL     1      38.491 -12.388   1.884  1.00  0.00    -0.083 N 
HETATM    3  C   UNL     1      38.620 -11.740   3.082  1.00  0.00     0.726 A 
HETATM    4  N   UNL     1      37.820 -10.705   3.107  1.00  0.00    -0.046 NA
HETATM    5  C   UNL     1      37.177 -10.783   1.893  1.00  0.00     0.166 A 
HETATM    6  N   UNL     1      37.546 -11.810   1.113  1.00  0.00    -0.140 NA
HETATM    7  N   UNL     1      39.433 -12.248   4.029  1.00  0.00    -0.192 N 
HETATM    8  C   UNL     1      39.985 -13.523   3.940  1.00  0.00     0.037 C 
HETATM    9  C   UNL     1      40.552 -14.069   5.228  1.00  0.00     0.070 C 
HETATM   10  C   UNL     1      39.906 -14.210   2.772  1.00  0.00     0.062 C 
HETATM   11  H   UNL     1      39.407 -11.811   4.947  1.00  0.00     0.184 HD
ENDROOT
BRANCH  10  12
HETATM   12  C   UNL     1      40.364 -15.614   2.585  1.00  0.00     0.256 C 
HETATM   13  N   UNL     1      41.709 -15.802   2.821  1.00  0.00    -0.323 N 
HETATM   14  H   UNL     1      42.249 -14.987   3.076  1.00  0.00     0.169 HD
HETATM   15  O   UNL     1      39.548 -16.454   2.226  1.00  0.00    -0.267 OA
BRANCH  13  16
HETATM   16  C   UNL     1      42.408 -17.027   2.808  1.00  0.00     0.035 A 
HETATM   17  C   UNL     1      42.652 -17.799   3.947  1.00  0.00     0.031 A 
HETATM   18  C   UNL     1      43.377 -18.992   3.857  1.00  0.00     0.026 A 
HETATM   19  C   UNL     1      43.869 -19.416   2.626  1.00  0.00     0.034 A 
HETATM   20 CL   UNL     1      44.776 -20.873   2.519  1.00  0.00    -0.084 Cl
HETATM   21  C   UNL     1      43.630 -18.661   1.481  1.00  0.00     0.026 A 
HETATM   22  C   UNL     1      42.894 -17.475   1.571  1.00  0.00     0.031 A 
ENDBRANCH  13  16
ENDBRANCH  10  12
BRANCH   1  23
HETATM   23  C   UNL     1      40.124 -13.430   0.368  1.00  0.00    -0.028 A 
HETATM   24  C   UNL     1      39.950 -14.106  -0.851  1.00  0.00     0.010 A 
HETATM   25  C   UNL     1      40.832 -13.898  -1.916  1.00  0.00     0.007 A 
HETATM   26  C   UNL     1      41.906 -13.009  -1.787  1.00  0.00    -0.059 A 
HETATM   27  C   UNL     1      42.070 -12.317  -0.582  1.00  0.00     0.007 A 
HETATM   28  C   UNL     1      41.189 -12.523   0.481  1.00  0.00     0.010 A 
BRANCH  26  29
HETATM   29  C   UNL     1      42.867 -12.791  -2.928  1.00  0.00     0.034 C 
HETATM   30  C   UNL     1      42.337 -11.788  -3.940  1.00  0.00     0.010 C 
ENDBRANCH  26  29
ENDBRANCH   1  23
BRANCH   5  31
HETATM   31  C   UNL     1      36.106  -9.831   1.499  1.00  0.00     0.085 C 
BRANCH  31  32
HETATM   32  C   UNL     1      35.234 -10.325   0.349  1.00  0.00     0.034 C 
BRANCH  32  33
HETATM   33  C   UNL     1      33.824 -10.694   0.792  1.00  0.00     0.164 C 
BRANCH  33  34
HETATM   34  O   UNL     1      33.740 -10.640   2.212  1.00  0.00    -0.401 OA
HETATM   35  H   UNL     1      32.798 -10.609   2.450  1.00  0.00     0.209 HD
ENDBRANCH  33  34
ENDBRANCH  32  33
ENDBRANCH  31  32
ENDBRANCH   5  31
TORSDOF 8
ENDMDL
MODEL 10
REMARK VINA RESULT:      -6.9      2.483      3.040
REMARK  8 active torsions:
REMARK  status: ('A' for Active; 'I' for Inactive)
REMARK    1  A    between atoms: C_2  and  C_3 
REMARK    2  A    between atoms: C_6  and  C_7 
REMARK    3  A    between atoms: C_11  and  C_12 
REMARK    4  A    between atoms: C_12  and  C_13 
REMARK    5  A    between atoms: C_13  and  C_14 
REMARK    6  A    between atoms: C_14  and  O_15 
REMARK    7  A    between atoms: C_20  and  C_21 
REMARK       I    between atoms: C_21  and  N_22 
REMARK    8  A    between atoms: N_22  and  C_23 
ROOT
HETATM    1  C   UNL     1      40.606 -13.645   2.929  1.00  0.00     0.202 C 
HETATM    2  N   UNL     1      40.419 -12.233   3.288  1.00  0.00    -0.083 N 
HETATM    3  C   UNL     1      41.288 -11.526   4.074  1.00  0.00     0.726 A 
HETATM    4  N   UNL     1      40.811 -10.326   4.281  1.00  0.00    -0.046 NA
HETATM    5  C   UNL     1      39.603 -10.356   3.622  1.00  0.00     0.166 A 
HETATM    6  N   UNL     1      39.312 -11.513   3.009  1.00  0.00    -0.140 NA
HETATM    7  N   UNL     1      42.394 -12.129   4.552  1.00  0.00    -0.192 N 
HETATM    8  C   UNL     1      42.594 -13.505   4.473  1.00  0.00     0.037 C 
HETATM    9  C   UNL     1      43.680 -14.049   5.368  1.00  0.00     0.070 C 
HETATM   10  C   UNL     1      41.777 -14.259   3.694  1.00  0.00     0.062 C 
HETATM   11  H   UNL     1      42.947 -11.614   5.232  1.00  0.00     0.184 HD
ENDROOT
BRANCH  10  12
HETATM   12  C   UNL     1      41.825 -15.745   3.608  1.00  0.00     0.256 C 
HETATM   13  N   UNL     1      42.972 -16.236   3.024  1.00  0.00    -0.323 N 
HETATM   14  H   UNL     1      43.649 -15.560   2.699  1.00  0.00     0.169 HD
HETATM   15  O   UNL     1      40.870 -16.388   4.026  1.00  0.00    -0.267 OA
BRANCH  13  16
HETATM   16  C   UNL     1      43.338 -17.592   2.883  1.00  0.00     0.035 A 
HETATM   17  C   UNL     1      43.097 -18.350   1.735  1.00  0.00     0.031 A 
HETATM   18  C   UNL     1      43.467 -19.699   1.682  1.00  0.00     0.026 A 
HETATM   19  C   UNL     1      44.075 -20.297   2.782  1.00  0.00     0.034 A 
HETATM   20 CL   UNL     1      44.513 -21.958   2.723  1.00  0.00    -0.084 Cl
HETATM   21  C   UNL     1      44.326 -19.553   3.932  1.00  0.00     0.026 A 
HETATM   22  C   UNL     1      43.967 -18.202   3.978  1.00  0.00     0.031 A 
ENDBRANCH  13  16
ENDBRANCH  10  12
BRANCH   1  23
HETATM   23  C   UNL     1      40.757 -13.795   1.417  1.00  0.00    -0.028 A 
HETATM   24  C   UNL     1      39.805 -14.470   0.636  1.00  0.00     0.010 A 
HETATM   25  C   UNL     1      39.976 -14.596  -0.746  1.00  0.00     0.007 A 
HETATM   26  C   UNL     1      41.100 -14.049  -1.377  1.00  0.00    -0.059 A 
HETATM   27  C   UNL     1      42.039 -13.357  -0.606  1.00  0.00     0.007 A 
HETATM   28  C   UNL     1      41.869 -13.229   0.774  1.00  0.00     0.010 A 
BRANCH  26  29
HETATM   29  C   UNL     1      41.294 -14.194  -2.866  1.00  0.00     0.034 C 
HETATM   30  C   UNL     1      40.266 -15.126  -3.490  1.00  0.00     0.010 C 
ENDBRANCH  26  29
ENDBRANCH   1  23
BRANCH   5  31
HETATM   31  C   UNL     1      38.661  -9.207   3.639  1.00  0.00     0.085 C 
BRANCH  31  32
HETATM   32  C   UNL     1      37.191  -9.615   3.642  1.00  0.00     0.034 C 
BRANCH  32  33
HETATM   33  C   UNL     1      36.482  -9.282   2.336  1.00  0.00     0.164 C 
BRANCH  33  34
HETATM   34  O   UNL     1      35.810 -10.439   1.849  1.00  0.00    -0.401 OA
HETATM   35  H   UNL     1      35.227 -10.157   1.123  1.00  0.00     0.209 HD
ENDBRANCH  33  34
ENDBRANCH  32  33
ENDBRANCH  31  32
ENDBRANCH   5  31
TORSDOF 8
ENDMDL
