MODEL 1
REMARK VINA RESULT:      -9.5      0.000      0.000
REMARK  4 active torsions:
REMARK  status: ('A' for Active; 'I' for Inactive)
REMARK    1  A    between atoms: O_2  and  C_3 
REMARK    2  A    between atoms: C_9  and  C_13 
REMARK    3  A    between atoms: C_19  and  C_24 
REMARK    4  A    between atoms: C_28  and  N_29 
ROOT
HETATM    1  C   UNL     1      41.494 -14.606   2.409  1.00  0.00     0.112 A 
HETATM    2  N   UNL     1      42.175 -14.681   3.535  1.00  0.00    -0.230 NA
HETATM    3  C   UNL     1      42.680 -15.962   3.588  1.00  0.00     0.124 A 
HETATM    4  C   UNL     1      43.471 -16.608   4.549  1.00  0.00     0.148 A 
HETATM    5  F   UNL     1      43.876 -15.970   5.657  1.00  0.00    -0.203 F 
HETATM    6  C   UNL     1      43.851 -17.942   4.357  1.00  0.00     0.058 A 
HETATM    7  C   UNL     1      43.457 -18.666   3.216  1.00  0.00    -0.002 A 
HETATM    8  C   UNL     1      42.665 -18.015   2.244  1.00  0.00     0.046 A 
HETATM    9  C   UNL     1      42.298 -16.682   2.463  1.00  0.00     0.066 A 
HETATM   10  N   UNL     1      41.545 -15.802   1.732  1.00  0.00    -0.342 N 
HETATM   11  H   UNL     1      41.095 -15.994   0.846  1.00  0.00     0.167 HD
ENDROOT
BRANCH   1  12
HETATM   12  C   UNL     1      40.728 -13.404   1.925  1.00  0.00     0.084 C 
HETATM   13  C   UNL     1      41.628 -12.241   1.508  1.00  0.00     0.188 C 
HETATM   14  O   UNL     1      42.428 -12.523   0.351  1.00  0.00    -0.350 OA
HETATM   15  C   UNL     1      41.754 -13.100  -0.692  1.00  0.00     0.075 A 
HETATM   16  C   UNL     1      42.413 -13.100  -1.919  1.00  0.00     0.040 A 
HETATM   17  C   UNL     1      40.513 -13.727  -0.559  1.00  0.00    -0.021 A 
HETATM   18  C   UNL     1      41.819 -13.702  -3.029  1.00  0.00     0.039 A 
HETATM   19  C   UNL     1      40.566 -14.308  -2.921  1.00  0.00     0.068 A 
HETATM   20  C   UNL     1      39.916 -14.319  -1.686  1.00  0.00     0.046 A 
HETATM   21  C   UNL     1      39.798 -13.759   0.765  1.00  0.00     0.056 C 
BRANCH  19  22
HETATM   22  O   UNL     1      40.095 -14.854  -4.083  1.00  0.00    -0.356 OA
HETATM   23  C   UNL     1      39.235 -15.981  -3.964  1.00  0.00     0.210 C 
ENDBRANCH  19  22
ENDBRANCH   1  12
BRANCH   7  24
HETATM   24  C   UNL     1      43.859 -20.075   3.013  1.00  0.00     0.072 A 
HETATM   25  C   UNL     1      43.739 -20.724   1.800  1.00  0.00     0.052 A 
HETATM   26  C   UNL     1      44.158 -22.031   1.769  1.00  0.00     0.122 A 
HETATM   27  N   UNL     1      44.662 -22.674   2.836  1.00  0.00    -0.231 NA
HETATM   28  C   UNL     1      44.763 -21.963   3.960  1.00  0.00     0.199 A 
HETATM   29  N   UNL     1      44.372 -20.695   4.100  1.00  0.00    -0.218 NA
BRANCH  28  30
HETATM   30  N   UNL     1      45.260 -22.603   5.076  1.00  0.00    -0.271 NA
HETATM   31  H   UNL     1      44.703 -23.423   5.267  1.00  0.00     0.127 HD
HETATM   32  H   UNL     1      45.371 -21.935   5.826  1.00  0.00     0.127 HD
ENDBRANCH  28  30
ENDBRANCH   7  24
TORSDOF 4
ENDMDL
MODEL 2
REMARK VINA RESULT:      -9.3      1.696      2.344
REMARK  4 active torsions:
REMARK  status: ('A' for Active; 'I' for Inactive)
REMARK    1  A    between atoms: O_2  and  C_3 
REMARK    2  A    between atoms: C_9  and  C_13 
REMARK    3  A    between atoms: C_19  and  C_24 
REMARK    4  A    between atoms: C_28  and  N_29 
ROOT
HETATM    1  C   UNL     1      41.568 -14.094   0.946  1.00  0.00     0.112 A 
HETATM    2  N   UNL     1      41.068 -14.327   2.144  1.00  0.00    -0.230 NA
HETATM    3  C   UNL     1      41.573 -15.549   2.534  1.00  0.00     0.124 A 
HETATM    4  C   UNL     1      41.383 -16.299   3.703  1.00  0.00     0.148 A 
HETATM    5  F   UNL     1      40.595 -15.854   4.693  1.00  0.00    -0.203 F 
HETATM    6  C   UNL     1      42.024 -17.535   3.849  1.00  0.00     0.058 A 
HETATM    7  C   UNL     1      42.862 -18.057   2.846  1.00  0.00    -0.002 A 
HETATM    8  C   UNL     1      43.059 -17.298   1.670  1.00  0.00     0.046 A 
HETATM    9  C   UNL     1      42.404 -16.068   1.550  1.00  0.00     0.066 A 
HETATM   10  N   UNL     1      42.384 -15.129   0.553  1.00  0.00    -0.342 N 
HETATM   11  H   UNL     1      42.878 -15.184  -0.329  1.00  0.00     0.167 HD
ENDROOT
BRANCH   1  12
HETATM   12  C   UNL     1      41.277 -12.888   0.093  1.00  0.00     0.084 C 
HETATM   13  C   UNL     1      42.180 -12.784  -1.135  1.00  0.00     0.188 C 
HETATM   14  O   UNL     1      41.973 -13.835  -2.090  1.00  0.00    -0.350 OA
HETATM   15  C   UNL     1      40.662 -14.094  -2.391  1.00  0.00     0.075 A 
HETATM   16  C   UNL     1      40.438 -14.875  -3.521  1.00  0.00     0.040 A 
HETATM   17  C   UNL     1      39.590 -13.681  -1.595  1.00  0.00    -0.021 A 
HETATM   18  C   UNL     1      39.135 -15.222  -3.881  1.00  0.00     0.039 A 
HETATM   19  C   UNL     1      38.049 -14.793  -3.114  1.00  0.00     0.068 A 
HETATM   20  C   UNL     1      38.280 -14.024  -1.973  1.00  0.00     0.046 A 
HETATM   21  C   UNL     1      39.816 -12.858  -0.356  1.00  0.00     0.056 C 
BRANCH  19  22
HETATM   22  O   UNL     1      36.828 -15.197  -3.579  1.00  0.00    -0.356 OA
HETATM   23  C   UNL     1      36.232 -14.405  -4.600  1.00  0.00     0.210 C 
ENDBRANCH  19  22
ENDBRANCH   1  12
BRANCH   7  24
HETATM   24  C   UNL     1      43.540 -19.363   3.002  1.00  0.00     0.072 A 
HETATM   25  C   UNL     1      44.278 -19.699   4.120  1.00  0.00     0.052 A 
HETATM   26  C   UNL     1      44.845 -20.949   4.116  1.00  0.00     0.122 A 
HETATM   27  N   UNL     1      44.711 -21.822   3.103  1.00  0.00    -0.231 NA
HETATM   28  C   UNL     1      43.962 -21.422   2.074  1.00  0.00     0.199 A 
HETATM   29  N   UNL     1      43.381 -20.225   1.972  1.00  0.00    -0.218 NA
BRANCH  28  30
HETATM   30  N   UNL     1      43.822 -22.291   1.013  1.00  0.00    -0.271 NA
HETATM   31  H   UNL     1      44.721 -22.430   0.574  1.00  0.00     0.127 HD
HETATM   32  H   UNL     1      43.063 -21.981   0.423  1.00  0.00     0.127 HD
ENDBRANCH  28  30
ENDBRANCH   7  24
TORSDOF 4
ENDMDL
MODEL 3
REMARK VINA RESULT:      -9.1      0.691      1.246
REMARK  4 active torsions:
REMARK  status: ('A' for Active; 'I' for Inactive)
REMARK    1  A    between atoms: O_2  and  C_3 
REMARK    2  A    between atoms: C_9  and  C_13 
REMARK    3  A    between atoms: C_19  and  C_24 
REMARK    4  A    between atoms: C_28  and  N_29 
ROOT
HETATM    1  C   UNL     1      41.423 -14.566   2.689  1.00  0.00     0.112 A 
HETATM    2  N   UNL     1      42.147 -14.551   3.791  1.00  0.00    -0.230 NA
HETATM    3  C   UNL     1      42.687 -15.814   3.907  1.00  0.00     0.124 A 
HETATM    4  C   UNL     1      43.529 -16.376   4.876  1.00  0.00     0.148 A 
HETATM    5  F   UNL     1      43.956 -15.658   5.926  1.00  0.00    -0.203 F 
HETATM    6  C   UNL     1      43.937 -17.710   4.756  1.00  0.00     0.058 A 
HETATM    7  C   UNL     1      43.522 -18.516   3.679  1.00  0.00    -0.002 A 
HETATM    8  C   UNL     1      42.679 -17.948   2.697  1.00  0.00     0.046 A 
HETATM    9  C   UNL     1      42.284 -16.614   2.845  1.00  0.00     0.066 A 
HETATM   10  N   UNL     1      41.483 -15.801   2.088  1.00  0.00    -0.342 N 
HETATM   11  H   UNL     1      41.007 -16.061   1.233  1.00  0.00     0.167 HD
ENDROOT
BRANCH   1  12
HETATM   12  C   UNL     1      40.609 -13.416   2.158  1.00  0.00     0.084 C 
HETATM   13  C   UNL     1      41.451 -12.188   1.812  1.00  0.00     0.188 C 
HETATM   14  O   UNL     1      42.348 -12.401   0.713  1.00  0.00    -0.350 OA
HETATM   15  C   UNL     1      41.792 -13.013  -0.379  1.00  0.00     0.075 A 
HETATM   16  C   UNL     1      42.533 -12.954  -1.556  1.00  0.00     0.040 A 
HETATM   17  C   UNL     1      40.592 -13.729  -0.337  1.00  0.00    -0.021 A 
HETATM   18  C   UNL     1      42.063 -13.586  -2.708  1.00  0.00     0.039 A 
HETATM   19  C   UNL     1      40.852 -14.280  -2.692  1.00  0.00     0.068 A 
HETATM   20  C   UNL     1      40.120 -14.350  -1.506  1.00  0.00     0.046 A 
HETATM   21  C   UNL     1      39.791 -13.825   0.933  1.00  0.00     0.056 C 
BRANCH  19  22
HETATM   22  O   UNL     1      40.504 -14.847  -3.887  1.00  0.00    -0.356 OA
HETATM   23  C   UNL     1      39.317 -15.631  -3.908  1.00  0.00     0.210 C 
ENDBRANCH  19  22
ENDBRANCH   1  12
BRANCH   7  24
HETATM   24  C   UNL     1      43.954 -19.925   3.551  1.00  0.00     0.072 A 
HETATM   25  C   UNL     1      44.531 -20.632   4.588  1.00  0.00     0.052 A 
HETATM   26  C   UNL     1      44.876 -21.932   4.314  1.00  0.00     0.122 A 
HETATM   27  N   UNL     1      44.680 -22.517   3.120  1.00  0.00    -0.231 NA
HETATM   28  C   UNL     1      44.095 -21.767   2.185  1.00  0.00     0.199 A 
HETATM   29  N   UNL     1      43.735 -20.492   2.343  1.00  0.00    -0.218 NA
BRANCH  28  30
HETATM   30  N   UNL     1      43.897 -22.336   0.944  1.00  0.00    -0.271 NA
HETATM   31  H   UNL     1      44.790 -22.467   0.490  1.00  0.00     0.127 HD
HETATM   32  H   UNL     1      43.195 -21.812   0.442  1.00  0.00     0.127 HD
ENDBRANCH  28  30
ENDBRANCH   7  24
TORSDOF 4
ENDMDL
MODEL 4
REMARK VINA RESULT:      -8.8      1.178      1.381
REMARK  4 active torsions:
REMARK  status: ('A' for Active; 'I' for Inactive)
REMARK    1  A    between atoms: O_2  and  C_3 
REMARK    2  A    between atoms: C_9  and  C_13 
REMARK    3  A    between atoms: C_19  and  C_24 
REMARK    4  A    between atoms: C_28  and  N_29 
ROOT
HETATM    1  C   UNL     1      41.297 -14.792   3.749  1.00  0.00     0.112 A 
HETATM    2  N   UNL     1      42.203 -14.935   4.697  1.00  0.00    -0.230 NA
HETATM    3  C   UNL     1      42.745 -16.190   4.515  1.00  0.00     0.124 A 
HETATM    4  C   UNL     1      43.739 -16.880   5.223  1.00  0.00     0.148 A 
HETATM    5  F   UNL     1      44.349 -16.328   6.281  1.00  0.00    -0.203 F 
HETATM    6  C   UNL     1      44.109 -18.171   4.824  1.00  0.00     0.058 A 
HETATM    7  C   UNL     1      43.506 -18.807   3.722  1.00  0.00    -0.002 A 
HETATM    8  C   UNL     1      42.508 -18.109   3.005  1.00  0.00     0.046 A 
HETATM    9  C   UNL     1      42.156 -16.822   3.428  1.00  0.00     0.066 A 
HETATM   10  N   UNL     1      41.241 -15.917   2.959  1.00  0.00    -0.342 N 
HETATM   11  H   UNL     1      40.620 -16.049   2.171  1.00  0.00     0.167 HD
ENDROOT
BRANCH   1  12
HETATM   12  C   UNL     1      40.412 -13.590   3.556  1.00  0.00     0.084 C 
HETATM   13  C   UNL     1      41.189 -12.309   3.254  1.00  0.00     0.188 C 
HETATM   14  O   UNL     1      41.869 -12.337   1.990  1.00  0.00    -0.350 OA
HETATM   15  C   UNL     1      41.117 -12.787   0.938  1.00  0.00     0.075 A 
HETATM   16  C   UNL     1      41.632 -12.537  -0.331  1.00  0.00     0.040 A 
HETATM   17  C   UNL     1      39.938 -13.521   1.088  1.00  0.00    -0.021 A 
HETATM   18  C   UNL     1      40.953 -12.995  -1.461  1.00  0.00     0.039 A 
HETATM   19  C   UNL     1      39.758 -13.705  -1.332  1.00  0.00     0.068 A 
HETATM   20  C   UNL     1      39.253 -13.967  -0.057  1.00  0.00     0.046 A 
HETATM   21  C   UNL     1      39.380 -13.823   2.453  1.00  0.00     0.056 C 
BRANCH  19  22
HETATM   22  O   UNL     1      39.192 -14.090  -2.516  1.00  0.00    -0.356 OA
HETATM   23  C   UNL     1      38.540 -13.081  -3.277  1.00  0.00     0.210 C 
ENDBRANCH  19  22
ENDBRANCH   1  12
BRANCH   7  24
HETATM   24  C   UNL     1      43.897 -20.169   3.301  1.00  0.00     0.072 A 
HETATM   25  C   UNL     1      43.763 -20.622   2.003  1.00  0.00     0.052 A 
HETATM   26  C   UNL     1      44.174 -21.911   1.768  1.00  0.00     0.122 A 
HETATM   27  N   UNL     1      44.682 -22.714   2.718  1.00  0.00    -0.231 NA
HETATM   28  C   UNL     1      44.796 -22.185   3.938  1.00  0.00     0.199 A 
HETATM   29  N   UNL     1      44.415 -20.952   4.275  1.00  0.00    -0.218 NA
BRANCH  28  30
HETATM   30  N   UNL     1      45.298 -22.992   4.937  1.00  0.00    -0.271 NA
HETATM   31  H   UNL     1      45.890 -23.701   4.528  1.00  0.00     0.127 HD
HETATM   32  H   UNL     1      44.541 -23.306   5.527  1.00  0.00     0.127 HD
ENDBRANCH  28  30
ENDBRANCH   7  24
TORSDOF 4
ENDMDL
MODEL 5
REMARK VINA RESULT:      -8.6      3.298      5.613
REMARK  4 active torsions:
REMARK  status: ('A' for Active; 'I' for Inactive)
REMARK    1  A    between atoms: O_2  and  C_3 
REMARK    2  A    between atoms: C_9  and  C_13 
REMARK    3  A    between atoms: C_19  and  C_24 
REMARK    4  A    between atoms: C_28  and  N_29 
ROOT
HETATM    1  C   UNL     1      42.183 -14.403   3.335  1.00  0.00     0.112 A 
HETATM    2  N   UNL     1      42.751 -14.692   4.489  1.00  0.00    -0.230 NA
HETATM    3  C   UNL     1      43.145 -16.010   4.398  1.00  0.00     0.124 A 
HETATM    4  C   UNL     1      43.791 -16.850   5.316  1.00  0.00     0.148 A 
HETATM    5  F   UNL     1      44.143 -16.408   6.532  1.00  0.00    -0.203 F 
HETATM    6  C   UNL     1      44.079 -18.175   4.965  1.00  0.00     0.058 A 
HETATM    7  C   UNL     1      43.734 -18.698   3.705  1.00  0.00    -0.002 A 
HETATM    8  C   UNL     1      43.089 -17.851   2.777  1.00  0.00     0.046 A 
HETATM    9  C   UNL     1      42.810 -16.532   3.155  1.00  0.00     0.066 A 
HETATM   10  N   UNL     1      42.201 -15.496   2.500  1.00  0.00    -0.342 N 
HETATM   11  H   UNL     1      41.819 -15.524   1.562  1.00  0.00     0.167 HD
ENDROOT
BRANCH   1  12
HETATM   12  C   UNL     1      41.563 -13.081   2.969  1.00  0.00     0.084 C 
HETATM   13  C   UNL     1      40.037 -13.130   2.889  1.00  0.00     0.188 C 
HETATM   14  O   UNL     1      39.405 -13.373   4.154  1.00  0.00    -0.350 OA
HETATM   15  C   UNL     1      39.879 -12.616   5.193  1.00  0.00     0.075 A 
HETATM   16  C   UNL     1      39.094 -12.599   6.343  1.00  0.00     0.040 A 
HETATM   17  C   UNL     1      41.106 -11.948   5.167  1.00  0.00    -0.021 A 
HETATM   18  C   UNL     1      39.519 -11.886   7.465  1.00  0.00     0.039 A 
HETATM   19  C   UNL     1      40.728 -11.188   7.447  1.00  0.00     0.068 A 
HETATM   20  C   UNL     1      41.519 -11.222   6.298  1.00  0.00     0.046 A 
HETATM   21  C   UNL     1      41.979 -11.977   3.942  1.00  0.00     0.056 C 
BRANCH  19  22
HETATM   22  O   UNL     1      41.022 -10.528   8.608  1.00  0.00    -0.356 OA
HETATM   23  C   UNL     1      42.369 -10.593   9.062  1.00  0.00     0.210 C 
ENDBRANCH  19  22
ENDBRANCH   1  12
BRANCH   7  24
HETATM   24  C   UNL     1      44.039 -20.097   3.335  1.00  0.00     0.072 A 
HETATM   25  C   UNL     1      43.834 -20.601   2.066  1.00  0.00     0.052 A 
HETATM   26  C   UNL     1      44.169 -21.920   1.877  1.00  0.00     0.122 A 
HETATM   27  N   UNL     1      44.670 -22.704   2.847  1.00  0.00    -0.231 NA
HETATM   28  C   UNL     1      44.856 -22.128   4.035  1.00  0.00     0.199 A 
HETATM   29  N   UNL     1      44.551 -20.862   4.326  1.00  0.00    -0.218 NA
BRANCH  28  30
HETATM   30  N   UNL     1      45.352 -22.914   5.054  1.00  0.00    -0.271 NA
HETATM   31  H   UNL     1      45.272 -23.887   4.794  1.00  0.00     0.127 HD
HETATM   32  H   UNL     1      44.934 -22.634   5.929  1.00  0.00     0.127 HD
ENDBRANCH  28  30
ENDBRANCH   7  24
TORSDOF 4
ENDMDL
MODEL 6
REMARK VINA RESULT:      -8.5      2.488      3.237
REMARK  4 active torsions:
REMARK  status: ('A' for Active; 'I' for Inactive)
REMARK    1  A    between atoms: O_2  and  C_3 
REMARK    2  A    between atoms: C_9  and  C_13 
REMARK    3  A    between atoms: C_19  and  C_24 
REMARK    4  A    between atoms: C_28  and  N_29 
ROOT
HETATM    1  C   UNL     1      41.747 -13.997   1.373  1.00  0.00     0.112 A 
HETATM    2  N   UNL     1      42.294 -15.031   0.765  1.00  0.00    -0.230 NA
HETATM    3  C   UNL     1      42.639 -15.918   1.763  1.00  0.00     0.124 A 
HETATM    4  C   UNL     1      43.253 -17.177   1.712  1.00  0.00     0.148 A 
HETATM    5  F   UNL     1      43.616 -17.726   0.544  1.00  0.00    -0.203 F 
HETATM    6  C   UNL     1      43.497 -17.882   2.898  1.00  0.00     0.058 A 
HETATM    7  C   UNL     1      43.142 -17.360   4.156  1.00  0.00    -0.002 A 
HETATM    8  C   UNL     1      42.516 -16.093   4.207  1.00  0.00     0.046 A 
HETATM    9  C   UNL     1      42.288 -15.410   3.008  1.00  0.00     0.066 A 
HETATM   10  N   UNL     1      41.726 -14.191   2.735  1.00  0.00    -0.342 N 
HETATM   11  H   UNL     1      41.361 -13.536   3.415  1.00  0.00     0.167 HD
ENDROOT
BRANCH   1  12
HETATM   12  C   UNL     1      41.239 -12.751   0.699  1.00  0.00     0.084 C 
HETATM   13  C   UNL     1      42.123 -12.287  -0.459  1.00  0.00     0.188 C 
HETATM   14  O   UNL     1      42.138 -13.197  -1.568  1.00  0.00    -0.350 OA
HETATM   15  C   UNL     1      40.907 -13.649  -1.963  1.00  0.00     0.075 A 
HETATM   16  C   UNL     1      40.855 -14.272  -3.206  1.00  0.00     0.040 A 
HETATM   17  C   UNL     1      39.763 -13.575  -1.163  1.00  0.00    -0.021 A 
HETATM   18  C   UNL     1      39.650 -14.799  -3.672  1.00  0.00     0.039 A 
HETATM   19  C   UNL     1      38.490 -14.709  -2.899  1.00  0.00     0.068 A 
HETATM   20  C   UNL     1      38.551 -14.097  -1.646  1.00  0.00     0.046 A 
HETATM   21  C   UNL     1      39.807 -12.928   0.195  1.00  0.00     0.056 C 
BRANCH  19  22
HETATM   22  O   UNL     1      37.378 -15.260  -3.473  1.00  0.00    -0.356 OA
HETATM   23  C   UNL     1      36.622 -14.426  -4.343  1.00  0.00     0.210 C 
ENDBRANCH  19  22
ENDBRANCH   1  12
BRANCH   7  24
HETATM   24  C   UNL     1      43.399 -18.105   5.407  1.00  0.00     0.072 A 
HETATM   25  C   UNL     1      43.694 -19.453   5.432  1.00  0.00     0.052 A 
HETATM   26  C   UNL     1      43.910 -20.002   6.672  1.00  0.00     0.122 A 
HETATM   27  N   UNL     1      43.846 -19.299   7.816  1.00  0.00    -0.231 NA
HETATM   28  C   UNL     1      43.578 -17.998   7.695  1.00  0.00     0.199 A 
HETATM   29  N   UNL     1      43.338 -17.371   6.542  1.00  0.00    -0.218 NA
BRANCH  28  30
HETATM   30  N   UNL     1      43.489 -17.256   8.854  1.00  0.00    -0.271 NA
HETATM   31  H   UNL     1      43.649 -17.858   9.649  1.00  0.00     0.127 HD
HETATM   32  H   UNL     1      42.633 -16.720   8.845  1.00  0.00     0.127 HD
ENDBRANCH  28  30
ENDBRANCH   7  24
TORSDOF 4
ENDMDL
MODEL 7
REMARK VINA RESULT:      -8.5      1.973      2.648
REMARK  4 active torsions:
REMARK  status: ('A' for Active; 'I' for Inactive)
REMARK    1  A    between atoms: O_2  and  C_3 
REMARK    2  A    between atoms: C_9  and  C_13 
REMARK    3  A    between atoms: C_19  and  C_24 
REMARK    4  A    between atoms: C_28  and  N_29 
ROOT
HETATM    1  C   UNL     1      41.199 -13.302   1.549  1.00  0.00     0.112 A 
HETATM    2  N   UNL     1      40.458 -13.464   2.627  1.00  0.00    -0.230 NA
HETATM    3  C   UNL     1      40.978 -14.560   3.283  1.00  0.00     0.124 A 
HETATM    4  C   UNL     1      40.597 -15.195   4.473  1.00  0.00     0.148 A 
HETATM    5  F   UNL     1      39.558 -14.750   5.195  1.00  0.00    -0.203 F 
HETATM    6  C   UNL     1      41.307 -16.314   4.924  1.00  0.00     0.058 A 
HETATM    7  C   UNL     1      42.405 -16.831   4.211  1.00  0.00    -0.002 A 
HETATM    8  C   UNL     1      42.795 -16.187   3.015  1.00  0.00     0.046 A 
HETATM    9  C   UNL     1      42.065 -15.073   2.586  1.00  0.00     0.066 A 
HETATM   10  N   UNL     1      42.185 -14.260   1.490  1.00  0.00    -0.342 N 
HETATM   11  H   UNL     1      42.874 -14.347   0.754  1.00  0.00     0.167 HD
ENDROOT
BRANCH   1  12
HETATM   12  C   UNL     1      40.996 -12.246   0.496  1.00  0.00     0.084 C 
HETATM   13  C   UNL     1      42.143 -12.167  -0.511  1.00  0.00     0.188 C 
HETATM   14  O   UNL     1      42.265 -13.336  -1.334  1.00  0.00    -0.350 OA
HETATM   15  C   UNL     1      41.090 -13.789  -1.873  1.00  0.00     0.075 A 
HETATM   16  C   UNL     1      41.210 -14.714  -2.907  1.00  0.00     0.040 A 
HETATM   17  C   UNL     1      39.829 -13.428  -1.392  1.00  0.00    -0.021 A 
HETATM   18  C   UNL     1      40.065 -15.260  -3.488  1.00  0.00     0.039 A 
HETATM   19  C   UNL     1      38.795 -14.889  -3.041  1.00  0.00     0.068 A 
HETATM   20  C   UNL     1      38.681 -13.974  -1.994  1.00  0.00     0.046 A 
HETATM   21  C   UNL     1      39.682 -12.450  -0.258  1.00  0.00     0.056 C 
BRANCH  19  22
HETATM   22  O   UNL     1      37.760 -15.493  -3.699  1.00  0.00    -0.356 OA
HETATM   23  C   UNL     1      36.717 -14.649  -4.172  1.00  0.00     0.210 C 
ENDBRANCH  19  22
ENDBRANCH   1  12
BRANCH   7  24
HETATM   24  C   UNL     1      43.156 -18.012   4.689  1.00  0.00     0.072 A 
HETATM   25  C   UNL     1      43.898 -18.821   3.851  1.00  0.00     0.052 A 
HETATM   26  C   UNL     1      44.541 -19.879   4.445  1.00  0.00     0.122 A 
HETATM   27  N   UNL     1      44.476 -20.143   5.761  1.00  0.00    -0.231 NA
HETATM   28  C   UNL     1      43.755 -19.296   6.498  1.00  0.00     0.199 A 
HETATM   29  N   UNL     1      43.082 -18.248   6.018  1.00  0.00    -0.218 NA
BRANCH  28  30
HETATM   30  N   UNL     1      43.657 -19.553   7.849  1.00  0.00    -0.271 NA
HETATM   31  H   UNL     1      44.190 -20.381   8.072  1.00  0.00     0.127 HD
HETATM   32  H   UNL     1      42.685 -19.541   8.123  1.00  0.00     0.127 HD
ENDBRANCH  28  30
ENDBRANCH   7  24
TORSDOF 4
ENDMDL
MODEL 8
REMARK VINA RESULT:      -8.4      2.838      3.657
REMARK  4 active torsions:
REMARK  status: ('A' for Active; 'I' for Inactive)
REMARK    1  A    between atoms: O_2  and  C_3 
REMARK    2  A    between atoms: C_9  and  C_13 
REMARK    3  A    between atoms: C_19  and  C_24 
REMARK    4  A    between atoms: C_28  and  N_29 
ROOT
HETATM    1  C   UNL     1      39.947 -15.319   1.586  1.00  0.00     0.112 A 
HETATM    2  N   UNL     1      40.936 -15.962   0.997  1.00  0.00    -0.230 NA
HETATM    3  C   UNL     1      41.594 -16.643   1.998  1.00  0.00     0.124 A 
HETATM    4  C   UNL     1      42.717 -17.482   1.964  1.00  0.00     0.148 A 
HETATM    5  F   UNL     1      43.349 -17.750   0.812  1.00  0.00    -0.203 F 
HETATM    6  C   UNL     1      43.194 -18.057   3.149  1.00  0.00     0.058 A 
HETATM    7  C   UNL     1      42.575 -17.814   4.390  1.00  0.00    -0.002 A 
HETATM    8  C   UNL     1      41.439 -16.974   4.424  1.00  0.00     0.046 A 
HETATM    9  C   UNL     1      40.987 -16.411   3.225  1.00  0.00     0.066 A 
HETATM   10  N   UNL     1      39.946 -15.568   2.939  1.00  0.00    -0.342 N 
HETATM   11  H   UNL     1      39.289 -15.183   3.606  1.00  0.00     0.167 HD
ENDROOT
BRANCH   1  12
HETATM   12  C   UNL     1      38.963 -14.407   0.903  1.00  0.00     0.084 C 
HETATM   13  C   UNL     1      38.688 -13.122   1.683  1.00  0.00     0.188 C 
HETATM   14  O   UNL     1      39.827 -12.254   1.775  1.00  0.00    -0.350 OA
HETATM   15  C   UNL     1      40.498 -12.052   0.599  1.00  0.00     0.075 A 
HETATM   16  C   UNL     1      41.400 -10.991   0.585  1.00  0.00     0.040 A 
HETATM   17  C   UNL     1      40.370 -12.882  -0.518  1.00  0.00    -0.021 A 
HETATM   18  C   UNL     1      42.158 -10.737  -0.559  1.00  0.00     0.039 A 
HETATM   19  C   UNL     1      42.021 -11.538  -1.694  1.00  0.00     0.068 A 
HETATM   20  C   UNL     1      41.127 -12.609  -1.670  1.00  0.00     0.046 A 
HETATM   21  C   UNL     1      39.418 -14.048  -0.511  1.00  0.00     0.056 C 
BRANCH  19  22
HETATM   22  O   UNL     1      42.817 -11.177  -2.747  1.00  0.00    -0.356 OA
HETATM   23  C   UNL     1      42.360 -11.523  -4.049  1.00  0.00     0.210 C 
ENDBRANCH  19  22
ENDBRANCH   1  12
BRANCH   7  24
HETATM   24  C   UNL     1      43.078 -18.422   5.641  1.00  0.00     0.072 A 
HETATM   25  C   UNL     1      43.531 -19.724   5.715  1.00  0.00     0.052 A 
HETATM   26  C   UNL     1      43.969 -20.143   6.948  1.00  0.00     0.122 A 
HETATM   27  N   UNL     1      43.972 -19.359   8.039  1.00  0.00    -0.231 NA
HETATM   28  C   UNL     1      43.538 -18.109   7.870  1.00  0.00     0.199 A 
HETATM   29  N   UNL     1      43.079 -17.609   6.721  1.00  0.00    -0.218 NA
BRANCH  28  30
HETATM   30  N   UNL     1      43.514 -17.288   8.978  1.00  0.00    -0.271 NA
HETATM   31  H   UNL     1      43.951 -16.406   8.750  1.00  0.00     0.127 HD
HETATM   32  H   UNL     1      43.875 -17.790   9.776  1.00  0.00     0.127 HD
ENDBRANCH  28  30
ENDBRANCH   7  24
TORSDOF 4
ENDMDL
MODEL 9
REMARK VINA RESULT:      -8.4      3.748      6.397
REMARK  4 active torsions:
REMARK  status: ('A' for Active; 'I' for Inactive)
REMARK    1  A    between atoms: O_2  and  C_3 
REMARK    2  A    between atoms: C_9  and  C_13 
REMARK    3  A    between atoms: C_19  and  C_24 
REMARK    4  A    between atoms: C_28  and  N_29 
ROOT
HETATM    1  C   UNL     1      42.626 -16.710   3.386  1.00  0.00     0.112 A 
HETATM    2  N   UNL     1      42.618 -17.348   4.539  1.00  0.00    -0.230 NA
HETATM    3  C   UNL     1      43.130 -16.464   5.465  1.00  0.00     0.124 A 
HETATM    4  C   UNL     1      43.360 -16.594   6.842  1.00  0.00     0.148 A 
HETATM    5  F   UNL     1      43.069 -17.731   7.490  1.00  0.00    -0.203 F 
HETATM    6  C   UNL     1      43.903 -15.522   7.562  1.00  0.00     0.058 A 
HETATM    7  C   UNL     1      44.231 -14.303   6.939  1.00  0.00    -0.002 A 
HETATM    8  C   UNL     1      43.993 -14.169   5.553  1.00  0.00     0.046 A 
HETATM    9  C   UNL     1      43.453 -15.257   4.858  1.00  0.00     0.066 A 
HETATM   10  N   UNL     1      43.126 -15.438   3.540  1.00  0.00    -0.342 N 
HETATM   11  H   UNL     1      43.238 -14.758   2.799  1.00  0.00     0.167 HD
ENDROOT
BRANCH   1  12
HETATM   12  C   UNL     1      42.188 -17.281   2.064  1.00  0.00     0.084 C 
HETATM   13  C   UNL     1      40.690 -17.581   2.002  1.00  0.00     0.188 C 
HETATM   14  O   UNL     1      39.868 -16.407   2.064  1.00  0.00    -0.350 OA
HETATM   15  C   UNL     1      40.259 -15.383   1.243  1.00  0.00     0.075 A 
HETATM   16  C   UNL     1      39.326 -14.368   1.047  1.00  0.00     0.040 A 
HETATM   17  C   UNL     1      41.534 -15.287   0.679  1.00  0.00    -0.021 A 
HETATM   18  C   UNL     1      39.654 -13.264   0.258  1.00  0.00     0.039 A 
HETATM   19  C   UNL     1      40.912 -13.166  -0.338  1.00  0.00     0.068 A 
HETATM   20  C   UNL     1      41.850 -14.178  -0.125  1.00  0.00     0.046 A 
HETATM   21  C   UNL     1      42.563 -16.362   0.902  1.00  0.00     0.056 C 
BRANCH  19  22
HETATM   22  O   UNL     1      41.101 -12.038  -1.088  1.00  0.00    -0.356 OA
HETATM   23  C   UNL     1      42.334 -11.930  -1.789  1.00  0.00     0.210 C 
ENDBRANCH  19  22
ENDBRANCH   1  12
BRANCH   7  24
HETATM   24  C   UNL     1      44.803 -13.171   7.700  1.00  0.00     0.072 A 
HETATM   25  C   UNL     1      44.092 -12.472   8.655  1.00  0.00     0.052 A 
HETATM   26  C   UNL     1      44.762 -11.447   9.278  1.00  0.00     0.122 A 
HETATM   27  N   UNL     1      46.034 -11.117   9.001  1.00  0.00    -0.231 NA
HETATM   28  C   UNL     1      46.651 -11.861   8.081  1.00  0.00     0.199 A 
HETATM   29  N   UNL     1      46.087 -12.866   7.409  1.00  0.00    -0.218 NA
BRANCH  28  30
HETATM   30  N   UNL     1      47.952 -11.532   7.764  1.00  0.00    -0.271 NA
HETATM   31  H   UNL     1      48.457 -12.371   7.515  1.00  0.00     0.127 HD
HETATM   32  H   UNL     1      48.343 -10.959   8.498  1.00  0.00     0.127 HD
ENDBRANCH  28  30
ENDBRANCH   7  24
TORSDOF 4
ENDMDL
MODEL 10
REMARK VINA RESULT:      -8.2      5.067      7.381
REMARK  4 active torsions:
REMARK  status: ('A' for Active; 'I' for Inactive)
REMARK    1  A    between atoms: O_2  and  C_3 
REMARK    2  A    between atoms: C_9  and  C_13 
REMARK    3  A    between atoms: C_19  and  C_24 
REMARK    4  A    between atoms: C_28  and  N_29 
ROOT
HETATM    1  C   UNL     1      41.606 -13.278   5.367  1.00  0.00     0.112 A 
HETATM    2  N   UNL     1      42.774 -13.207   5.974  1.00  0.00    -0.230 NA
HETATM    3  C   UNL     1      43.205 -14.509   6.118  1.00  0.00     0.124 A 
HETATM    4  C   UNL     1      44.368 -15.042   6.691  1.00  0.00     0.148 A 
HETATM    5  F   UNL     1      45.306 -14.246   7.225  1.00  0.00    -0.203 F 
HETATM    6  C   UNL     1      44.563 -16.428   6.711  1.00  0.00     0.058 A 
HETATM    7  C   UNL     1      43.615 -17.317   6.168  1.00  0.00    -0.002 A 
HETATM    8  C   UNL     1      42.445 -16.780   5.584  1.00  0.00     0.046 A 
HETATM    9  C   UNL     1      42.275 -15.391   5.582  1.00  0.00     0.066 A 
HETATM   10  N   UNL     1      41.270 -14.587   5.113  1.00  0.00    -0.342 N 
HETATM   11  H   UNL     1      40.419 -14.898   4.662  1.00  0.00     0.167 HD
ENDROOT
BRANCH   1  12
HETATM   12  C   UNL     1      40.726 -12.107   5.020  1.00  0.00     0.084 C 
HETATM   13  C   UNL     1      39.261 -12.317   5.402  1.00  0.00     0.188 C 
HETATM   14  O   UNL     1      39.044 -12.396   6.818  1.00  0.00    -0.350 OA
HETATM   15  C   UNL     1      39.671 -11.426   7.555  1.00  0.00     0.075 A 
HETATM   16  C   UNL     1      39.240 -11.285   8.871  1.00  0.00     0.040 A 
HETATM   17  C   UNL     1      40.734 -10.657   7.074  1.00  0.00    -0.021 A 
HETATM   18  C   UNL     1      39.851 -10.349   9.707  1.00  0.00     0.039 A 
HETATM   19  C   UNL     1      40.895  -9.551   9.235  1.00  0.00     0.068 A 
HETATM   20  C   UNL     1      41.334  -9.707   7.920  1.00  0.00     0.046 A 
HETATM   21  C   UNL     1      41.230 -10.815   5.663  1.00  0.00     0.056 C 
BRANCH  19  22
HETATM   22  O   UNL     1      41.400  -8.672  10.154  1.00  0.00    -0.356 OA
HETATM   23  C   UNL     1      41.948  -9.228  11.343  1.00  0.00     0.210 C 
ENDBRANCH  19  22
ENDBRANCH   1  12
BRANCH   7  24
HETATM   24  C   UNL     1      43.822 -18.781   6.188  1.00  0.00     0.072 A 
HETATM   25  C   UNL     1      43.524 -19.567   7.284  1.00  0.00     0.052 A 
HETATM   26  C   UNL     1      43.769 -20.912   7.147  1.00  0.00     0.122 A 
HETATM   27  N   UNL     1      44.269 -21.465   6.029  1.00  0.00    -0.231 NA
HETATM   28  C   UNL     1      44.505 -20.633   5.014  1.00  0.00     0.199 A 
HETATM   29  N   UNL     1      44.316 -19.313   5.048  1.00  0.00    -0.218 NA
BRANCH  28  30
HETATM   30  N   UNL     1      45.035 -21.172   3.860  1.00  0.00    -0.271 NA
HETATM   31  H   UNL     1      45.588 -20.472   3.387  1.00  0.00     0.127 HD
HETATM   32  H   UNL     1      44.300 -21.616   3.328  1.00  0.00     0.127 HD
ENDBRANCH  28  30
ENDBRANCH   7  24
TORSDOF 4
ENDMDL
