MODEL 1
REMARK VINA RESULT:      -8.8      0.000      0.000
REMARK  6 active torsions:
REMARK  status: ('A' for Active; 'I' for Inactive)
REMARK    1  A    between atoms: C_7  and  S_8 
REMARK    2  A    between atoms: S_8  and  C_9 
REMARK    3  A    between atoms: C_9  and  C_10 
REMARK    4  A    between atoms: C_18  and  C_19 
REMARK    5  A    between atoms: C_29  and  C_30 
REMARK    6  A    between atoms: C_30  and  O_31 
ROOT
HETATM    1  C   UNL     1      37.160 -14.328   0.976  1.00  0.00     0.070 C 
HETATM    2  C   UNL     1      38.665 -14.333   0.895  1.00  0.00     0.037 A 
HETATM    3  N   UNL     1      39.279 -15.531   1.232  1.00  0.00    -0.192 N 
HETATM    4  C   UNL     1      40.611 -15.718   1.200  1.00  0.00     0.726 A 
HETATM    5  N   UNL     1      41.433 -14.677   0.867  1.00  0.00    -0.082 N 
HETATM    6  N   UNL     1      42.733 -15.042   0.935  1.00  0.00    -0.128 NA
HETATM    7  C   UNL     1      42.612 -16.343   1.237  1.00  0.00     0.226 A 
HETATM    8  N   UNL     1      41.327 -16.785   1.426  1.00  0.00    -0.035 NA
HETATM    9  C   UNL     1      40.951 -13.328   0.516  1.00  0.00     0.204 A 
HETATM   10  C   UNL     1      39.424 -13.265   0.545  1.00  0.00     0.070 A 
HETATM   11  H   UNL     1      38.682 -16.321   1.464  1.00  0.00     0.184 HD
ENDROOT
BRANCH   9  12
HETATM   12  C   UNL     1      41.532 -12.879  -0.832  1.00  0.00    -0.017 A 
HETATM   13  C   UNL     1      42.171 -11.610  -1.010  1.00  0.00    -0.017 A 
HETATM   14  C   UNL     1      42.617 -11.254  -2.311  1.00  0.00    -0.025 A 
HETATM   15  C   UNL     1      42.390 -10.658   0.019  1.00  0.00     0.013 A 
HETATM   16  C   UNL     1      43.230 -10.010  -2.540  1.00  0.00     0.012 A 
HETATM   17  C   UNL     1      42.442 -12.138  -3.384  1.00  0.00     0.012 A 
HETATM   18  C   UNL     1      43.417  -9.098  -1.506  1.00  0.00     0.001 A 
HETATM   19  C   UNL     1      42.999  -9.423  -0.226  1.00  0.00     0.001 A 
HETATM   20  C   UNL     1      41.825 -13.370  -3.204  1.00  0.00     0.002 A 
HETATM   21  C   UNL     1      41.368 -13.734  -1.945  1.00  0.00     0.010 A 
ENDBRANCH   9  12
BRANCH  10  22
HETATM   22  C   UNL     1      38.800 -12.003   0.108  1.00  0.00     0.293 C 
HETATM   23  O   UNL     1      38.241 -11.851  -0.968  1.00  0.00    -0.259 OA
BRANCH  22  24
HETATM   24  O   UNL     1      38.939 -11.070   1.079  1.00  0.00    -0.323 OA
HETATM   25  C   UNL     1      37.707 -10.731   1.719  1.00  0.00     0.213 C 
ENDBRANCH  22  24
ENDBRANCH  10  22
BRANCH   7  26
HETATM   26  S   UNL     1      43.954 -17.447   1.328  1.00  0.00    -0.083 SA
BRANCH  26  27
HETATM   27  C   UNL     1      43.827 -18.055   3.031  1.00  0.00     0.123 C 
BRANCH  27  28
HETATM   28  C   UNL     1      44.090 -19.544   3.090  1.00  0.00    -0.027 A 
HETATM   29  C   UNL     1      44.599 -20.185   4.232  1.00  0.00     0.041 A 
HETATM   30 CL   UNL     1      45.027 -19.311   5.659  1.00  0.00    -0.084 Cl
HETATM   31  C   UNL     1      44.776 -21.574   4.249  1.00  0.00     0.024 A 
HETATM   32  C   UNL     1      44.450 -22.339   3.131  1.00  0.00     0.002 A 
HETATM   33  C   UNL     1      43.944 -21.719   1.991  1.00  0.00     0.001 A 
HETATM   34  C   UNL     1      43.762 -20.335   1.972  1.00  0.00     0.009 A 
ENDBRANCH  27  28
ENDBRANCH  26  27
ENDBRANCH   7  26
TORSDOF 6
ENDMDL
MODEL 2
REMARK VINA RESULT:      -8.6      2.260      3.155
REMARK  6 active torsions:
REMARK  status: ('A' for Active; 'I' for Inactive)
REMARK    1  A    between atoms: C_7  and  S_8 
REMARK    2  A    between atoms: S_8  and  C_9 
REMARK    3  A    between atoms: C_9  and  C_10 
REMARK    4  A    between atoms: C_18  and  C_19 
REMARK    5  A    between atoms: C_29  and  C_30 
REMARK    6  A    between atoms: C_30  and  O_31 
ROOT
HETATM    1  C   UNL     1      39.346 -13.253   6.174  1.00  0.00     0.070 C 
HETATM    2  C   UNL     1      39.965 -13.827   4.926  1.00  0.00     0.037 A 
HETATM    3  N   UNL     1      40.406 -15.140   5.024  1.00  0.00    -0.192 N 
HETATM    4  C   UNL     1      40.968 -15.813   4.005  1.00  0.00     0.726 A 
HETATM    5  N   UNL     1      41.173 -15.182   2.808  1.00  0.00    -0.082 N 
HETATM    6  N   UNL     1      41.788 -16.000   1.925  1.00  0.00    -0.128 NA
HETATM    7  C   UNL     1      41.849 -17.136   2.637  1.00  0.00     0.226 A 
HETATM    8  N   UNL     1      41.374 -17.050   3.921  1.00  0.00    -0.035 NA
HETATM    9  C   UNL     1      40.798 -13.780   2.542  1.00  0.00     0.204 A 
HETATM   10  C   UNL     1      40.130 -13.150   3.763  1.00  0.00     0.070 A 
HETATM   11  H   UNL     1      40.245 -15.629   5.901  1.00  0.00     0.184 HD
ENDROOT
BRANCH   9  12
HETATM   12  C   UNL     1      39.930 -13.682   1.280  1.00  0.00    -0.017 A 
HETATM   13  C   UNL     1      40.415 -13.125   0.054  1.00  0.00    -0.017 A 
HETATM   14  C   UNL     1      39.517 -13.013  -1.041  1.00  0.00    -0.025 A 
HETATM   15  C   UNL     1      41.738 -12.657  -0.160  1.00  0.00     0.013 A 
HETATM   16  C   UNL     1      39.941 -12.453  -2.258  1.00  0.00     0.012 A 
HETATM   17  C   UNL     1      38.193 -13.455  -0.916  1.00  0.00     0.012 A 
HETATM   18  C   UNL     1      41.244 -11.995  -2.425  1.00  0.00     0.001 A 
HETATM   19  C   UNL     1      42.143 -12.098  -1.376  1.00  0.00     0.001 A 
HETATM   20  C   UNL     1      37.729 -13.999   0.275  1.00  0.00     0.002 A 
HETATM   21  C   UNL     1      38.584 -14.105   1.364  1.00  0.00     0.010 A 
ENDBRANCH   9  12
BRANCH  10  22
HETATM   22  C   UNL     1      39.603 -11.782   3.602  1.00  0.00     0.293 C 
HETATM   23  O   UNL     1      38.415 -11.498   3.619  1.00  0.00    -0.259 OA
BRANCH  22  24
HETATM   24  O   UNL     1      40.633 -10.917   3.448  1.00  0.00    -0.323 OA
HETATM   25  C   UNL     1      41.000 -10.252   4.658  1.00  0.00     0.213 C 
ENDBRANCH  22  24
ENDBRANCH  10  22
BRANCH   7  26
HETATM   26  S   UNL     1      42.418 -18.652   1.999  1.00  0.00    -0.083 SA
BRANCH  26  27
HETATM   27  C   UNL     1      44.108 -18.723   2.649  1.00  0.00     0.123 C 
BRANCH  27  28
HETATM   28  C   UNL     1      44.371 -20.057   3.315  1.00  0.00    -0.027 A 
HETATM   29  C   UNL     1      44.568 -20.194   4.700  1.00  0.00     0.041 A 
HETATM   30 CL   UNL     1      44.585 -18.831   5.762  1.00  0.00    -0.084 Cl
HETATM   31  C   UNL     1      44.759 -21.458   5.270  1.00  0.00     0.024 A 
HETATM   32  C   UNL     1      44.755 -22.599   4.469  1.00  0.00     0.002 A 
HETATM   33  C   UNL     1      44.561 -22.480   3.096  1.00  0.00     0.001 A 
HETATM   34  C   UNL     1      44.367 -21.222   2.525  1.00  0.00     0.009 A 
ENDBRANCH  27  28
ENDBRANCH  26  27
ENDBRANCH   7  26
TORSDOF 6
ENDMDL
MODEL 3
REMARK VINA RESULT:      -8.5      2.156      3.954
REMARK  6 active torsions:
REMARK  status: ('A' for Active; 'I' for Inactive)
REMARK    1  A    between atoms: C_7  and  S_8 
REMARK    2  A    between atoms: S_8  and  C_9 
REMARK    3  A    between atoms: C_9  and  C_10 
REMARK    4  A    between atoms: C_18  and  C_19 
REMARK    5  A    between atoms: C_29  and  C_30 
REMARK    6  A    between atoms: C_30  and  O_31 
ROOT
HETATM    1  C   UNL     1      41.354 -14.463  -3.451  1.00  0.00     0.070 C 
HETATM    2  C   UNL     1      40.913 -14.626  -2.019  1.00  0.00     0.037 A 
HETATM    3  N   UNL     1      41.604 -15.581  -1.285  1.00  0.00    -0.192 N 
HETATM    4  C   UNL     1      41.354 -15.846   0.010  1.00  0.00     0.726 A 
HETATM    5  N   UNL     1      40.340 -15.190   0.652  1.00  0.00    -0.082 N 
HETATM    6  N   UNL     1      40.211 -15.622   1.927  1.00  0.00    -0.128 NA
HETATM    7  C   UNL     1      41.237 -16.482   2.005  1.00  0.00     0.226 A 
HETATM    8  N   UNL     1      41.945 -16.658   0.843  1.00  0.00    -0.035 NA
HETATM    9  C   UNL     1      39.484 -14.172   0.013  1.00  0.00     0.204 A 
HETATM   10  C   UNL     1      39.904 -13.934  -1.436  1.00  0.00     0.070 A 
HETATM   11  H   UNL     1      42.373 -16.065  -1.742  1.00  0.00     0.184 HD
ENDROOT
BRANCH   9  12
HETATM   12  C   UNL     1      39.470 -12.880   0.842  1.00  0.00    -0.017 A 
HETATM   13  C   UNL     1      38.288 -12.092   1.019  1.00  0.00    -0.017 A 
HETATM   14  C   UNL     1      38.387 -10.876   1.745  1.00  0.00    -0.025 A 
HETATM   15  C   UNL     1      37.005 -12.425   0.511  1.00  0.00     0.013 A 
HETATM   16  C   UNL     1      37.259 -10.057   1.926  1.00  0.00     0.012 A 
HETATM   17  C   UNL     1      39.617 -10.474   2.283  1.00  0.00     0.012 A 
HETATM   18  C   UNL     1      36.020 -10.414   1.404  1.00  0.00     0.001 A 
HETATM   19  C   UNL     1      35.892 -11.599   0.697  1.00  0.00     0.001 A 
HETATM   20  C   UNL     1      40.761 -11.244   2.112  1.00  0.00     0.002 A 
HETATM   21  C   UNL     1      40.691 -12.430   1.393  1.00  0.00     0.010 A 
ENDBRANCH   9  12
BRANCH  10  22
HETATM   22  C   UNL     1      39.203 -12.860  -2.165  1.00  0.00     0.293 C 
HETATM   23  O   UNL     1      39.628 -11.720  -2.282  1.00  0.00    -0.259 OA
BRANCH  22  24
HETATM   24  O   UNL     1      38.046 -13.342  -2.677  1.00  0.00    -0.323 OA
HETATM   25  C   UNL     1      37.284 -12.358  -3.378  1.00  0.00     0.213 C 
ENDBRANCH  22  24
ENDBRANCH  10  22
BRANCH   7  26
HETATM   26  S   UNL     1      41.717 -17.290   3.469  1.00  0.00    -0.083 SA
BRANCH  26  27
HETATM   27  C   UNL     1      43.498 -17.505   3.214  1.00  0.00     0.123 C 
BRANCH  27  28
HETATM   28  C   UNL     1      43.853 -18.974   3.119  1.00  0.00    -0.027 A 
HETATM   29  C   UNL     1      44.497 -19.672   4.154  1.00  0.00     0.041 A 
HETATM   30 CL   UNL     1      44.994 -18.893   5.615  1.00  0.00    -0.084 Cl
HETATM   31  C   UNL     1      44.757 -21.042   4.034  1.00  0.00     0.024 A 
HETATM   32  C   UNL     1      44.381 -21.732   2.882  1.00  0.00     0.002 A 
HETATM   33  C   UNL     1      43.743 -21.054   1.847  1.00  0.00     0.001 A 
HETATM   34  C   UNL     1      43.478 -19.689   1.966  1.00  0.00     0.009 A 
ENDBRANCH  27  28
ENDBRANCH  26  27
ENDBRANCH   7  26
TORSDOF 6
ENDMDL
MODEL 4
REMARK VINA RESULT:      -8.5      2.873      3.860
REMARK  6 active torsions:
REMARK  status: ('A' for Active; 'I' for Inactive)
REMARK    1  A    between atoms: C_7  and  S_8 
REMARK    2  A    between atoms: S_8  and  C_9 
REMARK    3  A    between atoms: C_9  and  C_10 
REMARK    4  A    between atoms: C_18  and  C_19 
REMARK    5  A    between atoms: C_29  and  C_30 
REMARK    6  A    between atoms: C_30  and  O_31 
ROOT
HETATM    1  C   UNL     1      38.946 -12.913   6.096  1.00  0.00     0.070 C 
HETATM    2  C   UNL     1      40.153 -13.581   5.489  1.00  0.00     0.037 A 
HETATM    3  N   UNL     1      40.819 -14.478   6.314  1.00  0.00    -0.192 N 
HETATM    4  C   UNL     1      41.904 -15.174   5.931  1.00  0.00     0.726 A 
HETATM    5  N   UNL     1      42.431 -14.975   4.684  1.00  0.00    -0.082 N 
HETATM    6  N   UNL     1      43.541 -15.724   4.499  1.00  0.00    -0.128 NA
HETATM    7  C   UNL     1      43.574 -16.412   5.650  1.00  0.00     0.226 A 
HETATM    8  N   UNL     1      42.598 -16.084   6.558  1.00  0.00    -0.035 NA
HETATM    9  C   UNL     1      41.871 -14.034   3.695  1.00  0.00     0.204 A 
HETATM   10  C   UNL     1      40.619 -13.347   4.238  1.00  0.00     0.070 A 
HETATM   11  H   UNL     1      40.430 -14.651   7.237  1.00  0.00     0.184 HD
ENDROOT
BRANCH   9  12
HETATM   12  C   UNL     1      41.620 -14.743   2.357  1.00  0.00    -0.017 A 
HETATM   13  C   UNL     1      41.776 -14.084   1.095  1.00  0.00    -0.017 A 
HETATM   14  C   UNL     1      41.454 -14.801  -0.088  1.00  0.00    -0.025 A 
HETATM   15  C   UNL     1      42.222 -12.748   0.926  1.00  0.00     0.013 A 
HETATM   16  C   UNL     1      41.570 -14.190  -1.348  1.00  0.00     0.012 A 
HETATM   17  C   UNL     1      41.008 -16.127  -0.010  1.00  0.00     0.012 A 
HETATM   18  C   UNL     1      42.002 -12.873  -1.472  1.00  0.00     0.001 A 
HETATM   19  C   UNL     1      42.330 -12.152  -0.335  1.00  0.00     0.001 A 
HETATM   20  C   UNL     1      40.862 -16.764   1.217  1.00  0.00     0.002 A 
HETATM   21  C   UNL     1      41.157 -16.079   2.388  1.00  0.00     0.010 A 
ENDBRANCH   9  12
BRANCH  10  22
HETATM   22  C   UNL     1      39.890 -12.460   3.312  1.00  0.00     0.293 C 
HETATM   23  O   UNL     1      38.930 -12.809   2.642  1.00  0.00    -0.259 OA
BRANCH  22  24
HETATM   24  O   UNL     1      40.447 -11.226   3.338  1.00  0.00    -0.323 OA
HETATM   25  C   UNL     1      39.509 -10.189   3.635  1.00  0.00     0.213 C 
ENDBRANCH  22  24
ENDBRANCH  10  22
BRANCH   7  26
HETATM   26  S   UNL     1      44.711 -17.684   5.989  1.00  0.00    -0.083 SA
BRANCH  26  27
HETATM   27  C   UNL     1      43.699 -19.168   5.748  1.00  0.00     0.123 C 
BRANCH  27  28
HETATM   28  C   UNL     1      43.861 -19.704   4.341  1.00  0.00    -0.027 A 
HETATM   29  C   UNL     1      44.426 -20.960   4.063  1.00  0.00     0.041 A 
HETATM   30 CL   UNL     1      45.044 -21.984   5.311  1.00  0.00    -0.084 Cl
HETATM   31  C   UNL     1      44.506 -21.429   2.747  1.00  0.00     0.024 A 
HETATM   32  C   UNL     1      44.025 -20.653   1.693  1.00  0.00     0.002 A 
HETATM   33  C   UNL     1      43.463 -19.407   1.952  1.00  0.00     0.001 A 
HETATM   34  C   UNL     1      43.378 -18.938   3.264  1.00  0.00     0.009 A 
ENDBRANCH  27  28
ENDBRANCH  26  27
ENDBRANCH   7  26
TORSDOF 6
ENDMDL
MODEL 5
REMARK VINA RESULT:      -8.4      1.675      2.615
REMARK  6 active torsions:
REMARK  status: ('A' for Active; 'I' for Inactive)
REMARK    1  A    between atoms: C_7  and  S_8 
REMARK    2  A    between atoms: S_8  and  C_9 
REMARK    3  A    between atoms: C_9  and  C_10 
REMARK    4  A    between atoms: C_18  and  C_19 
REMARK    5  A    between atoms: C_29  and  C_30 
REMARK    6  A    between atoms: C_30  and  O_31 
ROOT
HETATM    1  C   UNL     1      39.851 -15.652  -3.592  1.00  0.00     0.070 C 
HETATM    2  C   UNL     1      40.315 -15.138  -2.253  1.00  0.00     0.037 A 
HETATM    3  N   UNL     1      40.983 -16.058  -1.457  1.00  0.00    -0.192 N 
HETATM    4  C   UNL     1      41.478 -15.766  -0.241  1.00  0.00     0.726 A 
HETATM    5  N   UNL     1      41.289 -14.518   0.286  1.00  0.00    -0.082 N 
HETATM    6  N   UNL     1      41.814 -14.429   1.529  1.00  0.00    -0.128 NA
HETATM    7  C   UNL     1      42.377 -15.641   1.650  1.00  0.00     0.226 A 
HETATM    8  N   UNL     1      42.173 -16.492   0.593  1.00  0.00    -0.035 NA
HETATM    9  C   UNL     1      40.571 -13.433  -0.408  1.00  0.00     0.204 A 
HETATM   10  C   UNL     1      40.104 -13.880  -1.792  1.00  0.00     0.070 A 
HETATM   11  H   UNL     1      41.149 -16.985  -1.841  1.00  0.00     0.184 HD
ENDROOT
BRANCH   9  12
HETATM   12  C   UNL     1      41.431 -12.162  -0.460  1.00  0.00    -0.017 A 
HETATM   13  C   UNL     1      41.082 -10.967   0.246  1.00  0.00    -0.017 A 
HETATM   14  C   UNL     1      41.903  -9.819   0.082  1.00  0.00    -0.025 A 
HETATM   15  C   UNL     1      39.960 -10.827   1.103  1.00  0.00     0.013 A 
HETATM   16  C   UNL     1      41.590  -8.617   0.738  1.00  0.00     0.012 A 
HETATM   17  C   UNL     1      43.034  -9.873  -0.744  1.00  0.00     0.012 A 
HETATM   18  C   UNL     1      40.473  -8.516   1.562  1.00  0.00     0.001 A 
HETATM   19  C   UNL     1      39.659  -9.622   1.746  1.00  0.00     0.001 A 
HETATM   20  C   UNL     1      43.371 -11.037  -1.424  1.00  0.00     0.002 A 
HETATM   21  C   UNL     1      42.575 -12.167  -1.291  1.00  0.00     0.010 A 
ENDBRANCH   9  12
BRANCH  10  22
HETATM   22  C   UNL     1      39.466 -12.859  -2.644  1.00  0.00     0.293 C 
HETATM   23  O   UNL     1      40.014 -12.318  -3.593  1.00  0.00    -0.259 OA
BRANCH  22  24
HETATM   24  O   UNL     1      38.203 -12.636  -2.212  1.00  0.00    -0.323 OA
HETATM   25  C   UNL     1      37.911 -11.252  -2.005  1.00  0.00     0.213 C 
ENDBRANCH  22  24
ENDBRANCH  10  22
BRANCH   7  26
HETATM   26  S   UNL     1      43.360 -16.124   3.002  1.00  0.00    -0.083 SA
BRANCH  26  27
HETATM   27  C   UNL     1      42.490 -17.600   3.592  1.00  0.00     0.123 C 
BRANCH  27  28
HETATM   28  C   UNL     1      43.289 -18.850   3.290  1.00  0.00    -0.027 A 
HETATM   29  C   UNL     1      44.289 -19.342   4.144  1.00  0.00     0.041 A 
HETATM   30 CL   UNL     1      44.738 -18.523   5.598  1.00  0.00    -0.084 Cl
HETATM   31  C   UNL     1      44.963 -20.531   3.841  1.00  0.00     0.024 A 
HETATM   32  C   UNL     1      44.649 -21.242   2.684  1.00  0.00     0.002 A 
HETATM   33  C   UNL     1      43.661 -20.768   1.827  1.00  0.00     0.001 A 
HETATM   34  C   UNL     1      42.984 -19.585   2.128  1.00  0.00     0.009 A 
ENDBRANCH  27  28
ENDBRANCH  26  27
ENDBRANCH   7  26
TORSDOF 6
ENDMDL
MODEL 6
REMARK VINA RESULT:      -8.1      2.928      3.954
REMARK  6 active torsions:
REMARK  status: ('A' for Active; 'I' for Inactive)
REMARK    1  A    between atoms: C_7  and  S_8 
REMARK    2  A    between atoms: S_8  and  C_9 
REMARK    3  A    between atoms: C_9  and  C_10 
REMARK    4  A    between atoms: C_18  and  C_19 
REMARK    5  A    between atoms: C_29  and  C_30 
REMARK    6  A    between atoms: C_30  and  O_31 
ROOT
HETATM    1  C   UNL     1      39.483 -11.153   6.593  1.00  0.00     0.070 C 
HETATM    2  C   UNL     1      40.118 -12.230   5.751  1.00  0.00     0.037 A 
HETATM    3  N   UNL     1      40.380 -13.425   6.406  1.00  0.00    -0.192 N 
HETATM    4  C   UNL     1      40.929 -14.496   5.805  1.00  0.00     0.726 A 
HETATM    5  N   UNL     1      41.302 -14.419   4.492  1.00  0.00    -0.082 N 
HETATM    6  N   UNL     1      41.875 -15.572   4.079  1.00  0.00    -0.128 NA
HETATM    7  C   UNL     1      41.736 -16.328   5.179  1.00  0.00     0.226 A 
HETATM    8  N   UNL     1      41.179 -15.693   6.261  1.00  0.00    -0.035 NA
HETATM    9  C   UNL     1      41.130 -13.214   3.657  1.00  0.00     0.204 A 
HETATM   10  C   UNL     1      40.455 -12.093   4.445  1.00  0.00     0.070 A 
HETATM   11  H   UNL     1      40.092 -13.506   7.378  1.00  0.00     0.184 HD
ENDROOT
BRANCH   9  12
HETATM   12  C   UNL     1      40.381 -13.556   2.362  1.00  0.00    -0.017 A 
HETATM   13  C   UNL     1      40.823 -13.110   1.076  1.00  0.00    -0.017 A 
HETATM   14  C   UNL     1      40.026 -13.418  -0.059  1.00  0.00    -0.025 A 
HETATM   15  C   UNL     1      42.005 -12.362   0.837  1.00  0.00     0.013 A 
HETATM   16  C   UNL     1      40.407 -12.983  -1.339  1.00  0.00     0.012 A 
HETATM   17  C   UNL     1      38.843 -14.155   0.088  1.00  0.00     0.012 A 
HETATM   18  C   UNL     1      41.570 -12.242  -1.531  1.00  0.00     0.001 A 
HETATM   19  C   UNL     1      42.370 -11.933  -0.444  1.00  0.00     0.001 A 
HETATM   20  C   UNL     1      38.420 -14.590   1.339  1.00  0.00     0.002 A 
HETATM   21  C   UNL     1      39.175 -14.288   2.464  1.00  0.00     0.010 A 
ENDBRANCH   9  12
BRANCH  10  22
HETATM   22  C   UNL     1      40.120 -10.864   3.702  1.00  0.00     0.293 C 
HETATM   23  O   UNL     1      40.933 -10.004   3.395  1.00  0.00    -0.259 OA
BRANCH  22  24
HETATM   24  O   UNL     1      38.797 -10.856   3.416  1.00  0.00    -0.323 OA
HETATM   25  C   UNL     1      38.281  -9.548   3.157  1.00  0.00     0.213 C 
ENDBRANCH  22  24
ENDBRANCH  10  22
BRANCH   7  26
HETATM   26  S   UNL     1      42.155 -18.015   5.256  1.00  0.00    -0.083 SA
BRANCH  26  27
HETATM   27  C   UNL     1      43.712 -18.059   4.329  1.00  0.00     0.123 C 
BRANCH  27  28
HETATM   28  C   UNL     1      43.887 -19.394   3.638  1.00  0.00    -0.027 A 
HETATM   29  C   UNL     1      43.393 -19.659   2.350  1.00  0.00     0.041 A 
HETATM   30 CL   UNL     1      42.485 -18.489   1.459  1.00  0.00    -0.084 Cl
HETATM   31  C   UNL     1      43.627 -20.896   1.738  1.00  0.00     0.024 A 
HETATM   32  C   UNL     1      44.353 -21.883   2.401  1.00  0.00     0.002 A 
HETATM   33  C   UNL     1      44.849 -21.637   3.678  1.00  0.00     0.001 A 
HETATM   34  C   UNL     1      44.622 -20.403   4.290  1.00  0.00     0.009 A 
ENDBRANCH  27  28
ENDBRANCH  26  27
ENDBRANCH   7  26
TORSDOF 6
ENDMDL
MODEL 7
REMARK VINA RESULT:      -8.0      2.596      3.898
REMARK  6 active torsions:
REMARK  status: ('A' for Active; 'I' for Inactive)
REMARK    1  A    between atoms: C_7  and  S_8 
REMARK    2  A    between atoms: S_8  and  C_9 
REMARK    3  A    between atoms: C_9  and  C_10 
REMARK    4  A    between atoms: C_18  and  C_19 
REMARK    5  A    between atoms: C_29  and  C_30 
REMARK    6  A    between atoms: C_30  and  O_31 
ROOT
HETATM    1  C   UNL     1      39.230 -13.276   6.149  1.00  0.00     0.070 C 
HETATM    2  C   UNL     1      40.089 -13.778   5.017  1.00  0.00     0.037 A 
HETATM    3  N   UNL     1      40.210 -15.158   4.923  1.00  0.00    -0.192 N 
HETATM    4  C   UNL     1      40.924 -15.778   3.966  1.00  0.00     0.726 A 
HETATM    5  N   UNL     1      41.616 -15.034   3.050  1.00  0.00    -0.082 N 
HETATM    6  N   UNL     1      42.308 -15.828   2.201  1.00  0.00    -0.128 NA
HETATM    7  C   UNL     1      41.916 -17.042   2.619  1.00  0.00     0.226 A 
HETATM    8  N   UNL     1      41.085 -17.047   3.710  1.00  0.00    -0.035 NA
HETATM    9  C   UNL     1      41.627 -13.560   3.026  1.00  0.00     0.204 A 
HETATM   10  C   UNL     1      40.743 -12.986   4.132  1.00  0.00     0.070 A 
HETATM   11  H   UNL     1      39.687 -15.725   5.585  1.00  0.00     0.184 HD
ENDROOT
BRANCH   9  12
HETATM   12  C   UNL     1      41.241 -13.038   1.635  1.00  0.00    -0.017 A 
HETATM   13  C   UNL     1      39.974 -13.320   1.031  1.00  0.00    -0.017 A 
HETATM   14  C   UNL     1      39.733 -12.852  -0.288  1.00  0.00    -0.025 A 
HETATM   15  C   UNL     1      38.924 -14.050   1.647  1.00  0.00     0.013 A 
HETATM   16  C   UNL     1      38.513 -13.123  -0.931  1.00  0.00     0.012 A 
HETATM   17  C   UNL     1      40.716 -12.121  -0.968  1.00  0.00     0.012 A 
HETATM   18  C   UNL     1      37.511 -13.852  -0.296  1.00  0.00     0.001 A 
HETATM   19  C   UNL     1      37.716 -14.314   0.993  1.00  0.00     0.001 A 
HETATM   20  C   UNL     1      41.943 -11.846  -0.376  1.00  0.00     0.002 A 
HETATM   21  C   UNL     1      42.207 -12.305   0.907  1.00  0.00     0.010 A 
ENDBRANCH   9  12
BRANCH  10  22
HETATM   22  C   UNL     1      40.572 -11.521   4.157  1.00  0.00     0.293 C 
HETATM   23  O   UNL     1      39.631 -10.931   3.649  1.00  0.00    -0.259 OA
BRANCH  22  24
HETATM   24  O   UNL     1      41.604 -10.959   4.830  1.00  0.00    -0.323 OA
HETATM   25  C   UNL     1      41.448  -9.553   5.033  1.00  0.00     0.213 C 
ENDBRANCH  22  24
ENDBRANCH  10  22
BRANCH   7  26
HETATM   26  S   UNL     1      42.350 -18.528   1.825  1.00  0.00    -0.083 SA
BRANCH  26  27
HETATM   27  C   UNL     1      44.089 -18.714   2.298  1.00  0.00     0.123 C 
BRANCH  27  28
HETATM   28  C   UNL     1      44.236 -19.722   3.417  1.00  0.00    -0.027 A 
HETATM   29  C   UNL     1      44.472 -21.088   3.189  1.00  0.00     0.041 A 
HETATM   30 CL   UNL     1      44.557 -21.749   1.594  1.00  0.00    -0.084 Cl
HETATM   31  C   UNL     1      44.650 -21.969   4.262  1.00  0.00     0.024 A 
HETATM   32  C   UNL     1      44.594 -21.501   5.573  1.00  0.00     0.002 A 
HETATM   33  C   UNL     1      44.362 -20.151   5.817  1.00  0.00     0.001 A 
HETATM   34  C   UNL     1      44.188 -19.268   4.749  1.00  0.00     0.009 A 
ENDBRANCH  27  28
ENDBRANCH  26  27
ENDBRANCH   7  26
TORSDOF 6
ENDMDL
MODEL 8
REMARK VINA RESULT:      -8.0      3.645      6.068
REMARK  6 active torsions:
REMARK  status: ('A' for Active; 'I' for Inactive)
REMARK    1  A    between atoms: C_7  and  S_8 
REMARK    2  A    between atoms: S_8  and  C_9 
REMARK    3  A    between atoms: C_9  and  C_10 
REMARK    4  A    between atoms: C_18  and  C_19 
REMARK    5  A    between atoms: C_29  and  C_30 
REMARK    6  A    between atoms: C_30  and  O_31 
ROOT
HETATM    1  C   UNL     1      38.971 -11.762   2.273  1.00  0.00     0.070 C 
HETATM    2  C   UNL     1      39.592 -13.068   2.699  1.00  0.00     0.037 A 
HETATM    3  N   UNL     1      39.763 -14.006   1.691  1.00  0.00    -0.192 N 
HETATM    4  C   UNL     1      40.315 -15.217   1.889  1.00  0.00     0.726 A 
HETATM    5  N   UNL     1      40.694 -15.590   3.149  1.00  0.00    -0.082 N 
HETATM    6  N   UNL     1      41.180 -16.851   3.158  1.00  0.00    -0.128 NA
HETATM    7  C   UNL     1      41.139 -17.145   1.850  1.00  0.00     0.226 A 
HETATM    8  N   UNL     1      40.596 -16.173   1.047  1.00  0.00    -0.035 NA
HETATM    9  C   UNL     1      40.550 -14.731   4.340  1.00  0.00     0.204 A 
HETATM   10  C   UNL     1      39.957 -13.373   3.968  1.00  0.00     0.070 A 
HETATM   11  H   UNL     1      39.504 -13.738   0.745  1.00  0.00     0.184 HD
ENDROOT
BRANCH   9  12
HETATM   12  C   UNL     1      41.888 -14.606   5.081  1.00  0.00    -0.017 A 
HETATM   13  C   UNL     1      42.323 -15.564   6.052  1.00  0.00    -0.017 A 
HETATM   14  C   UNL     1      43.545 -15.327   6.737  1.00  0.00    -0.025 A 
HETATM   15  C   UNL     1      41.618 -16.744   6.402  1.00  0.00     0.013 A 
HETATM   16  C   UNL     1      44.002 -16.227   7.714  1.00  0.00     0.012 A 
HETATM   17  C   UNL     1      44.305 -14.186   6.449  1.00  0.00     0.012 A 
HETATM   18  C   UNL     1      43.276 -17.370   8.036  1.00  0.00     0.001 A 
HETATM   19  C   UNL     1      42.084 -17.629   7.379  1.00  0.00     0.001 A 
HETATM   20  C   UNL     1      43.880 -13.261   5.503  1.00  0.00     0.002 A 
HETATM   21  C   UNL     1      42.683 -13.463   4.832  1.00  0.00     0.010 A 
ENDBRANCH   9  12
BRANCH  10  22
HETATM   22  C   UNL     1      39.859 -12.370   5.046  1.00  0.00     0.293 C 
HETATM   23  O   UNL     1      40.399 -11.275   5.014  1.00  0.00    -0.259 OA
BRANCH  22  24
HETATM   24  O   UNL     1      39.083 -12.855   6.044  1.00  0.00    -0.323 OA
HETATM   25  C   UNL     1      39.373 -12.277   7.318  1.00  0.00     0.213 C 
ENDBRANCH  22  24
ENDBRANCH  10  22
BRANCH   7  26
HETATM   26  S   UNL     1      41.778 -18.610   1.163  1.00  0.00    -0.083 SA
BRANCH  26  27
HETATM   27  C   UNL     1      43.557 -18.417   1.452  1.00  0.00     0.123 C 
BRANCH  27  28
HETATM   28  C   UNL     1      43.967 -19.094   2.742  1.00  0.00    -0.027 A 
HETATM   29  C   UNL     1      44.217 -20.474   2.835  1.00  0.00     0.041 A 
HETATM   30 CL   UNL     1      44.018 -21.534   1.485  1.00  0.00    -0.084 Cl
HETATM   31  C   UNL     1      44.642 -21.040   4.042  1.00  0.00     0.024 A 
HETATM   32  C   UNL     1      44.823 -20.241   5.169  1.00  0.00     0.002 A 
HETATM   33  C   UNL     1      44.580 -18.872   5.094  1.00  0.00     0.001 A 
HETATM   34  C   UNL     1      44.160 -18.304   3.891  1.00  0.00     0.009 A 
ENDBRANCH  27  28
ENDBRANCH  26  27
ENDBRANCH   7  26
TORSDOF 6
ENDMDL
MODEL 9
REMARK VINA RESULT:      -7.8      1.878      3.314
REMARK  6 active torsions:
REMARK  status: ('A' for Active; 'I' for Inactive)
REMARK    1  A    between atoms: C_7  and  S_8 
REMARK    2  A    between atoms: S_8  and  C_9 
REMARK    3  A    between atoms: C_9  and  C_10 
REMARK    4  A    between atoms: C_18  and  C_19 
REMARK    5  A    between atoms: C_29  and  C_30 
REMARK    6  A    between atoms: C_30  and  O_31 
ROOT
HETATM    1  C   UNL     1      39.322  -9.760   2.451  1.00  0.00     0.070 C 
HETATM    2  C   UNL     1      40.104 -10.980   2.036  1.00  0.00     0.037 A 
HETATM    3  N   UNL     1      39.892 -12.117   2.804  1.00  0.00    -0.192 N 
HETATM    4  C   UNL     1      40.493 -13.297   2.567  1.00  0.00     0.726 A 
HETATM    5  N   UNL     1      41.402 -13.400   1.550  1.00  0.00    -0.082 N 
HETATM    6  N   UNL     1      41.933 -14.643   1.496  1.00  0.00    -0.128 NA
HETATM    7  C   UNL     1      41.232 -15.256   2.462  1.00  0.00     0.226 A 
HETATM    8  N   UNL     1      40.356 -14.456   3.151  1.00  0.00    -0.035 NA
HETATM    9  C   UNL     1      41.773 -12.283   0.661  1.00  0.00     0.204 A 
HETATM   10  C   UNL     1      40.986 -11.021   1.008  1.00  0.00     0.070 A 
HETATM   11  H   UNL     1      39.205 -12.062   3.552  1.00  0.00     0.184 HD
ENDROOT
BRANCH   9  12
HETATM   12  C   UNL     1      41.616 -12.689  -0.811  1.00  0.00    -0.017 A 
HETATM   13  C   UNL     1      40.381 -13.177  -1.347  1.00  0.00    -0.017 A 
HETATM   14  C   UNL     1      40.351 -13.593  -2.705  1.00  0.00    -0.025 A 
HETATM   15  C   UNL     1      39.169 -13.294  -0.620  1.00  0.00     0.013 A 
HETATM   16  C   UNL     1      39.168 -14.100  -3.271  1.00  0.00     0.012 A 
HETATM   17  C   UNL     1      41.505 -13.509  -3.496  1.00  0.00     0.012 A 
HETATM   18  C   UNL     1      38.001 -14.208  -2.521  1.00  0.00     0.001 A 
HETATM   19  C   UNL     1      38.000 -13.804  -1.196  1.00  0.00     0.001 A 
HETATM   20  C   UNL     1      42.699 -13.030  -2.972  1.00  0.00     0.002 A 
HETATM   21  C   UNL     1      42.758 -12.632  -1.643  1.00  0.00     0.010 A 
ENDBRANCH   9  12
BRANCH  10  22
HETATM   22  C   UNL     1      41.176  -9.853   0.126  1.00  0.00     0.293 C 
HETATM   23  O   UNL     1      40.380  -9.506  -0.733  1.00  0.00    -0.259 OA
BRANCH  22  24
HETATM   24  O   UNL     1      42.346  -9.244   0.431  1.00  0.00    -0.323 OA
HETATM   25  C   UNL     1      43.117  -8.891  -0.719  1.00  0.00     0.213 C 
ENDBRANCH  22  24
ENDBRANCH  10  22
BRANCH   7  26
HETATM   26  S   UNL     1      41.341 -16.958   2.809  1.00  0.00    -0.083 SA
BRANCH  26  27
HETATM   27  C   UNL     1      43.034 -17.106   3.438  1.00  0.00     0.123 C 
BRANCH  27  28
HETATM   28  C   UNL     1      43.563 -18.509   3.231  1.00  0.00    -0.027 A 
HETATM   29  C   UNL     1      44.360 -19.173   4.178  1.00  0.00     0.041 A 
HETATM   30 CL   UNL     1      44.857 -18.415   5.650  1.00  0.00    -0.084 Cl
HETATM   31  C   UNL     1      44.781 -20.489   3.956  1.00  0.00     0.024 A 
HETATM   32  C   UNL     1      44.414 -21.159   2.790  1.00  0.00     0.002 A 
HETATM   33  C   UNL     1      43.625 -20.515   1.842  1.00  0.00     0.001 A 
HETATM   34  C   UNL     1      43.200 -19.204   2.061  1.00  0.00     0.009 A 
ENDBRANCH  27  28
ENDBRANCH  26  27
ENDBRANCH   7  26
TORSDOF 6
ENDMDL
MODEL 10
REMARK VINA RESULT:      -7.7      1.847      2.774
REMARK  6 active torsions:
REMARK  status: ('A' for Active; 'I' for Inactive)
REMARK    1  A    between atoms: C_7  and  S_8 
REMARK    2  A    between atoms: S_8  and  C_9 
REMARK    3  A    between atoms: C_9  and  C_10 
REMARK    4  A    between atoms: C_18  and  C_19 
REMARK    5  A    between atoms: C_29  and  C_30 
REMARK    6  A    between atoms: C_30  and  O_31 
ROOT
HETATM    1  C   UNL     1      38.252 -10.274   3.649  1.00  0.00     0.070 C 
HETATM    2  C   UNL     1      39.060 -11.383   3.024  1.00  0.00     0.037 A 
HETATM    3  N   UNL     1      39.193 -12.532   3.791  1.00  0.00    -0.192 N 
HETATM    4  C   UNL     1      39.866 -13.623   3.384  1.00  0.00     0.726 A 
HETATM    5  N   UNL     1      40.502 -13.613   2.173  1.00  0.00    -0.082 N 
HETATM    6  N   UNL     1      41.160 -14.775   1.958  1.00  0.00    -0.128 NA
HETATM    7  C   UNL     1      40.805 -15.469   3.050  1.00  0.00     0.226 A 
HETATM    8  N   UNL     1      40.029 -14.786   3.953  1.00  0.00    -0.035 NA
HETATM    9  C   UNL     1      40.493 -12.464   1.248  1.00  0.00     0.204 A 
HETATM   10  C   UNL     1      39.658 -11.314   1.810  1.00  0.00     0.070 A 
HETATM   11  H   UNL     1      38.711 -12.563   4.686  1.00  0.00     0.184 HD
ENDROOT
BRANCH   9  12
HETATM   12  C   UNL     1      40.031 -12.898  -0.150  1.00  0.00    -0.017 A 
HETATM   13  C   UNL     1      40.778 -12.600  -1.334  1.00  0.00    -0.017 A 
HETATM   14  C   UNL     1      40.237 -12.982  -2.591  1.00  0.00    -0.025 A 
HETATM   15  C   UNL     1      42.031 -11.933  -1.359  1.00  0.00     0.013 A 
HETATM   16  C   UNL     1      40.922 -12.692  -3.782  1.00  0.00     0.012 A 
HETATM   17  C   UNL     1      39.006 -13.648  -2.655  1.00  0.00     0.012 A 
HETATM   18  C   UNL     1      42.145 -12.026  -3.766  1.00  0.00     0.001 A 
HETATM   19  C   UNL     1      42.700 -11.648  -2.555  1.00  0.00     0.001 A 
HETATM   20  C   UNL     1      38.286 -13.939  -1.502  1.00  0.00     0.002 A 
HETATM   21  C   UNL     1      38.788 -13.562  -0.264  1.00  0.00     0.010 A 
ENDBRANCH   9  12
BRANCH  10  22
HETATM   22  C   UNL     1      39.471 -10.139   0.939  1.00  0.00     0.293 C 
HETATM   23  O   UNL     1      38.443  -9.897   0.325  1.00  0.00    -0.259 OA
BRANCH  22  24
HETATM   24  O   UNL     1      40.599  -9.389   0.944  1.00  0.00    -0.323 OA
HETATM   25  C   UNL     1      40.752  -8.590  -0.231  1.00  0.00     0.213 C 
ENDBRANCH  22  24
ENDBRANCH  10  22
BRANCH   7  26
HETATM   26  S   UNL     1      41.217 -17.138   3.316  1.00  0.00    -0.083 SA
BRANCH  26  27
HETATM   27  C   UNL     1      42.857 -17.247   2.554  1.00  0.00     0.123 C 
BRANCH  27  28
HETATM   28  C   UNL     1      43.516 -18.569   2.885  1.00  0.00    -0.027 A 
HETATM   29  C   UNL     1      44.076 -18.850   4.142  1.00  0.00     0.041 A 
HETATM   30 CL   UNL     1      44.113 -17.678   5.411  1.00  0.00    -0.084 Cl
HETATM   31  C   UNL     1      44.629 -20.108   4.410  1.00  0.00     0.024 A 
HETATM   32  C   UNL     1      44.630 -21.099   3.430  1.00  0.00     0.002 A 
HETATM   33  C   UNL     1      44.079 -20.837   2.179  1.00  0.00     0.001 A 
HETATM   34  C   UNL     1      43.523 -19.585   1.910  1.00  0.00     0.009 A 
ENDBRANCH  27  28
ENDBRANCH  26  27
ENDBRANCH   7  26
TORSDOF 6
ENDMDL
