MODEL 1
REMARK VINA RESULT:      -8.2      0.000      0.000
REMARK  4 active torsions:
REMARK  status: ('A' for Active; 'I' for Inactive)
REMARK    1  A    between atoms: C_5  and  C_6 
REMARK    2  A    between atoms: C_6  and  N_7 
REMARK    3  A    between atoms: N_13  and  C_15 
REMARK    4  A    between atoms: C_19  and  C_20 
ROOT
HETATM    1  N   UNL     1      43.892 -13.533   5.770  1.00  0.00    -0.064 N 
HETATM    2  H   UNL     1      44.442 -12.654   5.731  1.00  0.00     0.280 HD
HETATM    3  C   UNL     1      44.264 -14.286   4.529  1.00  0.00     0.236 C 
HETATM    4  C   UNL     1      43.372 -15.519   4.343  1.00  0.00     0.039 C 
HETATM    5  C   UNL     1      41.839 -15.270   4.455  1.00  0.00    -0.013 C 
HETATM    6  C   UNL     1      41.259 -14.583   3.189  1.00  0.00     0.245 C 
HETATM    7  N   UNL     1      41.186 -15.526   2.013  1.00  0.00    -0.065 N 
HETATM    8  H   UNL     1      42.132 -15.851   1.769  1.00  0.00     0.280 HD
HETATM    9  C   UNL     1      40.350 -16.769   2.306  1.00  0.00     0.244 C 
HETATM   10  C   UNL     1      40.964 -17.560   3.473  1.00  0.00     0.045 C 
HETATM   11  C   UNL     1      41.071 -16.608   4.691  1.00  0.00     0.022 C 
HETATM   12  C   UNL     1      41.574 -14.376   5.708  1.00  0.00     0.039 C 
HETATM   13  C   UNL     1      42.454 -13.136   5.809  1.00  0.00     0.236 C 
ENDROOT
BRANCH   7  14
HETATM   14  C   UNL     1      40.642 -14.828   0.798  1.00  0.00     0.188 A 
HETATM   15  C   UNL     1      41.595 -13.965   0.022  1.00  0.00     0.035 A 
HETATM   16  C   UNL     1      41.148 -15.285  -0.539  1.00  0.00     0.035 A 
ENDBRANCH   7  14
BRANCH  10  17
HETATM   17  C   UNL     1      42.248 -18.332   3.179  1.00  0.00    -0.052 A 
HETATM   18  C   UNL     1      42.682 -18.657   1.883  1.00  0.00     0.007 A 
HETATM   19  C   UNL     1      43.868 -19.370   1.674  1.00  0.00     0.001 A 
HETATM   20  C   UNL     1      44.628 -19.799   2.756  1.00  0.00     0.000 A 
HETATM   21  C   UNL     1      44.194 -19.537   4.048  1.00  0.00     0.001 A 
HETATM   22  C   UNL     1      43.011 -18.824   4.257  1.00  0.00     0.007 A 
ENDBRANCH  10  17
BRANCH   1  23
HETATM   23  C   UNL     1      44.420 -14.162   7.079  1.00  0.00     0.323 C 
BRANCH  23  24
HETATM   24  C   UNL     1      44.983 -13.142   7.995  1.00  0.00     0.198 A 
HETATM   25  O   UNL     1      46.134 -12.529   7.621  1.00  0.00    -0.194 OA
HETATM   26  N   UNL     1      46.455 -11.654   8.653  1.00  0.00    -0.112 NA
HETATM   27  C   UNL     1      45.469 -11.833   9.542  1.00  0.00     0.152 A 
HETATM   28  C   UNL     1      45.429 -11.125  10.837  1.00  0.00     0.096 C 
HETATM   29  N   UNL     1      44.510 -12.746   9.157  1.00  0.00    -0.208 NA
ENDBRANCH  23  24
ENDBRANCH   1  23
TORSDOF 4
ENDMDL
MODEL 2
REMARK VINA RESULT:      -8.1      3.312      6.962
REMARK  4 active torsions:
REMARK  status: ('A' for Active; 'I' for Inactive)
REMARK    1  A    between atoms: C_5  and  C_6 
REMARK    2  A    between atoms: C_6  and  N_7 
REMARK    3  A    between atoms: N_13  and  C_15 
REMARK    4  A    between atoms: C_19  and  C_20 
ROOT
HETATM    1  N   UNL     1      42.166 -16.165   0.522  1.00  0.00    -0.064 N 
HETATM    2  H   UNL     1      42.579 -16.121  -0.430  1.00  0.00     0.280 HD
HETATM    3  C   UNL     1      43.303 -15.896   1.459  1.00  0.00     0.236 C 
HETATM    4  C   UNL     1      42.886 -16.133   2.915  1.00  0.00     0.039 C 
HETATM    5  C   UNL     1      42.180 -17.490   3.205  1.00  0.00    -0.013 C 
HETATM    6  C   UNL     1      43.177 -18.680   3.232  1.00  0.00     0.245 C 
HETATM    7  N   UNL     1      44.037 -18.675   4.473  1.00  0.00    -0.065 N 
HETATM    8  H   UNL     1      44.600 -17.813   4.501  1.00  0.00     0.280 HD
HETATM    9  C   UNL     1      43.215 -18.713   5.759  1.00  0.00     0.244 C 
HETATM   10  C   UNL     1      42.303 -17.477   5.844  1.00  0.00     0.045 C 
HETATM   11  C   UNL     1      41.422 -17.446   4.569  1.00  0.00     0.022 C 
HETATM   12  C   UNL     1      41.101 -17.731   2.103  1.00  0.00     0.039 C 
HETATM   13  C   UNL     1      41.589 -17.533   0.673  1.00  0.00     0.236 C 
ENDROOT
BRANCH   7  14
HETATM   14  C   UNL     1      45.005 -19.824   4.460  1.00  0.00     0.188 A 
HETATM   15  C   UNL     1      44.576 -21.085   5.155  1.00  0.00     0.035 A 
HETATM   16  C   UNL     1      44.622 -21.033   3.654  1.00  0.00     0.035 A 
ENDBRANCH   7  14
BRANCH  10  17
HETATM   17  C   UNL     1      42.980 -16.145   6.159  1.00  0.00    -0.052 A 
HETATM   18  C   UNL     1      44.243 -16.037   6.765  1.00  0.00     0.007 A 
HETATM   19  C   UNL     1      44.812 -14.787   7.032  1.00  0.00     0.001 A 
HETATM   20  C   UNL     1      44.120 -13.621   6.729  1.00  0.00     0.000 A 
HETATM   21  C   UNL     1      42.848 -13.701   6.179  1.00  0.00     0.001 A 
HETATM   22  C   UNL     1      42.280 -14.948   5.910  1.00  0.00     0.007 A 
ENDBRANCH  10  17
BRANCH   1  23
HETATM   23  C   UNL     1      41.118 -15.032   0.448  1.00  0.00     0.323 C 
BRANCH  23  24
HETATM   24  C   UNL     1      41.719 -13.750   0.011  1.00  0.00     0.198 A 
HETATM   25  O   UNL     1      42.032 -12.844   0.969  1.00  0.00    -0.194 OA
HETATM   26  N   UNL     1      42.544 -11.737   0.300  1.00  0.00    -0.112 NA
HETATM   27  C   UNL     1      42.482 -12.090  -0.992  1.00  0.00     0.152 A 
HETATM   28  C   UNL     1      42.890 -11.182  -2.083  1.00  0.00     0.096 C 
HETATM   29  N   UNL     1      41.988 -13.358  -1.216  1.00  0.00    -0.208 NA
ENDBRANCH  23  24
ENDBRANCH   1  23
TORSDOF 4
ENDMDL
MODEL 3
REMARK VINA RESULT:      -8.1      3.668      7.750
REMARK  4 active torsions:
REMARK  status: ('A' for Active; 'I' for Inactive)
REMARK    1  A    between atoms: C_5  and  C_6 
REMARK    2  A    between atoms: C_6  and  N_7 
REMARK    3  A    between atoms: N_13  and  C_15 
REMARK    4  A    between atoms: C_19  and  C_20 
ROOT
HETATM    1  N   UNL     1      42.406 -16.396   0.543  1.00  0.00    -0.064 N 
HETATM    2  H   UNL     1      42.866 -16.412  -0.387  1.00  0.00     0.280 HD
HETATM    3  C   UNL     1      43.499 -16.083   1.519  1.00  0.00     0.236 C 
HETATM    4  C   UNL     1      43.007 -16.228   2.964  1.00  0.00     0.039 C 
HETATM    5  C   UNL     1      42.270 -17.559   3.297  1.00  0.00    -0.013 C 
HETATM    6  C   UNL     1      43.248 -18.755   3.443  1.00  0.00     0.245 C 
HETATM    7  N   UNL     1      44.046 -18.685   4.723  1.00  0.00    -0.065 N 
HETATM    8  H   UNL     1      44.618 -17.829   4.729  1.00  0.00     0.280 HD
HETATM    9  C   UNL     1      43.162 -18.638   5.967  1.00  0.00     0.244 C 
HETATM   10  C   UNL     1      42.263 -17.390   5.933  1.00  0.00     0.045 C 
HETATM   11  C   UNL     1      41.446 -17.425   4.616  1.00  0.00     0.022 C 
HETATM   12  C   UNL     1      41.243 -17.854   2.158  1.00  0.00     0.039 C 
HETATM   13  C   UNL     1      41.804 -17.746   0.746  1.00  0.00     0.236 C 
ENDROOT
BRANCH   7  14
HETATM   14  C   UNL     1      44.998 -19.844   4.826  1.00  0.00     0.188 A 
HETATM   15  C   UNL     1      44.474 -21.104   5.455  1.00  0.00     0.035 A 
HETATM   16  C   UNL     1      44.710 -21.045   3.972  1.00  0.00     0.035 A 
ENDBRANCH   7  14
BRANCH  10  17
HETATM   17  C   UNL     1      42.941 -16.049   6.203  1.00  0.00    -0.052 A 
HETATM   18  C   UNL     1      44.189 -15.920   6.835  1.00  0.00     0.007 A 
HETATM   19  C   UNL     1      44.760 -14.663   7.059  1.00  0.00     0.001 A 
HETATM   20  C   UNL     1      44.084 -13.508   6.683  1.00  0.00     0.000 A 
HETATM   21  C   UNL     1      42.825 -13.606   6.105  1.00  0.00     0.001 A 
HETATM   22  C   UNL     1      42.256 -14.861   5.881  1.00  0.00     0.007 A 
ENDBRANCH  10  17
BRANCH   1  23
HETATM   23  C   UNL     1      41.377 -15.258   0.351  1.00  0.00     0.323 C 
BRANCH  23  24
HETATM   24  C   UNL     1      41.393 -14.726  -1.033  1.00  0.00     0.198 A 
HETATM   25  O   UNL     1      41.134 -15.594  -2.042  1.00  0.00    -0.194 OA
HETATM   26  N   UNL     1      41.238 -14.859  -3.217  1.00  0.00    -0.112 NA
HETATM   27  C   UNL     1      41.554 -13.626  -2.796  1.00  0.00     0.152 A 
HETATM   28  C   UNL     1      41.809 -12.509  -3.727  1.00  0.00     0.096 C 
HETATM   29  N   UNL     1      41.640 -13.495  -1.425  1.00  0.00    -0.208 NA
ENDBRANCH  23  24
ENDBRANCH   1  23
TORSDOF 4
ENDMDL
MODEL 4
REMARK VINA RESULT:      -7.8      4.082      7.031
REMARK  4 active torsions:
REMARK  status: ('A' for Active; 'I' for Inactive)
REMARK    1  A    between atoms: C_5  and  C_6 
REMARK    2  A    between atoms: C_6  and  N_7 
REMARK    3  A    between atoms: N_13  and  C_15 
REMARK    4  A    between atoms: C_19  and  C_20 
ROOT
HETATM    1  N   UNL     1      43.682 -17.755   3.068  1.00  0.00    -0.064 N 
HETATM    2  H   UNL     1      44.537 -17.933   3.629  1.00  0.00     0.280 HD
HETATM    3  C   UNL     1      43.834 -16.358   2.549  1.00  0.00     0.236 C 
HETATM    4  C   UNL     1      42.547 -15.879   1.868  1.00  0.00     0.039 C 
HETATM    5  C   UNL     1      41.235 -16.076   2.684  1.00  0.00    -0.013 C 
HETATM    6  C   UNL     1      41.090 -15.036   3.828  1.00  0.00     0.245 C 
HETATM    7  N   UNL     1      40.754 -13.660   3.307  1.00  0.00    -0.065 N 
HETATM    8  H   UNL     1      41.511 -13.326   2.695  1.00  0.00     0.280 HD
HETATM    9  C   UNL     1      39.471 -13.640   2.480  1.00  0.00     0.244 C 
HETATM   10  C   UNL     1      39.614 -14.557   1.254  1.00  0.00     0.045 C 
HETATM   11  C   UNL     1      39.982 -15.976   1.759  1.00  0.00     0.022 C 
HETATM   12  C   UNL     1      41.236 -17.519   3.280  1.00  0.00     0.039 C 
HETATM   13  C   UNL     1      42.522 -17.918   3.992  1.00  0.00     0.236 C 
ENDROOT
BRANCH   7  14
HETATM   14  C   UNL     1      40.641 -12.673   4.435  1.00  0.00     0.188 A 
HETATM   15  C   UNL     1      39.268 -12.149   4.748  1.00  0.00     0.035 A 
HETATM   16  C   UNL     1      39.929 -13.128   5.676  1.00  0.00     0.035 A 
ENDBRANCH   7  14
BRANCH  10  17
HETATM   17  C   UNL     1      40.508 -14.055   0.122  1.00  0.00    -0.052 A 
HETATM   18  C   UNL     1      41.243 -12.859   0.182  1.00  0.00     0.007 A 
HETATM   19  C   UNL     1      42.044 -12.448  -0.889  1.00  0.00     0.001 A 
HETATM   20  C   UNL     1      42.104 -13.206  -2.052  1.00  0.00     0.000 A 
HETATM   21  C   UNL     1      41.346 -14.364  -2.157  1.00  0.00     0.001 A 
HETATM   22  C   UNL     1      40.547 -14.776  -1.088  1.00  0.00     0.007 A 
ENDBRANCH  10  17
BRANCH   1  23
HETATM   23  C   UNL     1      43.799 -18.853   1.985  1.00  0.00     0.323 C 
BRANCH  23  24
HETATM   24  C   UNL     1      44.147 -20.170   2.569  1.00  0.00     0.198 A 
HETATM   25  O   UNL     1      43.980 -21.266   1.789  1.00  0.00    -0.194 OA
HETATM   26  N   UNL     1      44.346 -22.355   2.573  1.00  0.00    -0.112 NA
HETATM   27  C   UNL     1      44.690 -21.803   3.744  1.00  0.00     0.152 A 
HETATM   28  C   UNL     1      45.110 -22.608   4.909  1.00  0.00     0.096 C 
HETATM   29  N   UNL     1      44.599 -20.427   3.777  1.00  0.00    -0.208 NA
ENDBRANCH  23  24
ENDBRANCH   1  23
TORSDOF 4
ENDMDL
MODEL 5
REMARK VINA RESULT:      -7.5      2.233      2.941
REMARK  4 active torsions:
REMARK  status: ('A' for Active; 'I' for Inactive)
REMARK    1  A    between atoms: C_5  and  C_6 
REMARK    2  A    between atoms: C_6  and  N_7 
REMARK    3  A    between atoms: N_13  and  C_15 
REMARK    4  A    between atoms: C_19  and  C_20 
ROOT
HETATM    1  N   UNL     1      42.118 -12.300   4.376  1.00  0.00    -0.064 N 
HETATM    2  H   UNL     1      42.635 -11.414   4.537  1.00  0.00     0.280 HD
HETATM    3  C   UNL     1      43.047 -13.157   3.570  1.00  0.00     0.236 C 
HETATM    4  C   UNL     1      42.340 -14.425   3.077  1.00  0.00     0.039 C 
HETATM    5  C   UNL     1      40.967 -14.206   2.375  1.00  0.00    -0.013 C 
HETATM    6  C   UNL     1      41.123 -13.656   0.932  1.00  0.00     0.245 C 
HETATM    7  N   UNL     1      41.630 -14.708  -0.025  1.00  0.00    -0.065 N 
HETATM    8  H   UNL     1      42.561 -15.030   0.273  1.00  0.00     0.280 HD
HETATM    9  C   UNL     1      40.728 -15.939  -0.079  1.00  0.00     0.244 C 
HETATM   10  C   UNL     1      40.649 -16.600   1.307  1.00  0.00     0.045 C 
HETATM   11  C   UNL     1      40.151 -15.535   2.316  1.00  0.00     0.022 C 
HETATM   12  C   UNL     1      40.128 -13.205   3.232  1.00  0.00     0.039 C 
HETATM   13  C   UNL     1      40.868 -11.939   3.646  1.00  0.00     0.236 C 
ENDROOT
BRANCH   7  14
HETATM   14  C   UNL     1      41.791 -14.142  -1.408  1.00  0.00     0.188 A 
HETATM   15  C   UNL     1      41.070 -14.845  -2.523  1.00  0.00     0.035 A 
HETATM   16  C   UNL     1      40.581 -13.511  -2.036  1.00  0.00     0.035 A 
ENDBRANCH   7  14
BRANCH  10  17
HETATM   17  C   UNL     1      41.885 -17.363   1.776  1.00  0.00    -0.052 A 
HETATM   18  C   UNL     1      42.979 -17.660   0.945  1.00  0.00     0.007 A 
HETATM   19  C   UNL     1      44.086 -18.365   1.430  1.00  0.00     0.001 A 
HETATM   20  C   UNL     1      44.110 -18.815   2.745  1.00  0.00     0.000 A 
HETATM   21  C   UNL     1      43.019 -18.581   3.571  1.00  0.00     0.001 A 
HETATM   22  C   UNL     1      41.915 -17.876   3.088  1.00  0.00     0.007 A 
ENDBRANCH  10  17
BRANCH   1  23
HETATM   23  C   UNL     1      41.897 -12.789   5.825  1.00  0.00     0.323 C 
BRANCH  23  24
HETATM   24  C   UNL     1      42.893 -13.811   6.223  1.00  0.00     0.198 A 
HETATM   25  O   UNL     1      44.086 -13.373   6.696  1.00  0.00    -0.194 OA
HETATM   26  N   UNL     1      44.835 -14.514   6.965  1.00  0.00    -0.112 NA
HETATM   27  C   UNL     1      44.018 -15.520   6.621  1.00  0.00     0.152 A 
HETATM   28  C   UNL     1      44.426 -16.937   6.700  1.00  0.00     0.096 C 
HETATM   29  N   UNL     1      42.777 -15.120   6.169  1.00  0.00    -0.208 NA
ENDBRANCH  23  24
ENDBRANCH   1  23
TORSDOF 4
ENDMDL
MODEL 6
REMARK VINA RESULT:      -7.3      3.933      6.827
REMARK  4 active torsions:
REMARK  status: ('A' for Active; 'I' for Inactive)
REMARK    1  A    between atoms: C_5  and  C_6 
REMARK    2  A    between atoms: C_6  and  N_7 
REMARK    3  A    between atoms: N_13  and  C_15 
REMARK    4  A    between atoms: C_19  and  C_20 
ROOT
HETATM    1  N   UNL     1      42.184 -17.803   2.671  1.00  0.00    -0.064 N 
HETATM    2  H   UNL     1      41.934 -18.810   2.703  1.00  0.00     0.280 HD
HETATM    3  C   UNL     1      41.098 -17.103   3.431  1.00  0.00     0.236 C 
HETATM    4  C   UNL     1      41.222 -15.581   3.294  1.00  0.00     0.039 C 
HETATM    5  C   UNL     1      41.380 -15.042   1.841  1.00  0.00    -0.013 C 
HETATM    6  C   UNL     1      40.042 -15.066   1.054  1.00  0.00     0.245 C 
HETATM    7  N   UNL     1      39.087 -13.995   1.522  1.00  0.00    -0.065 N 
HETATM    8  H   UNL     1      38.852 -14.148   2.513  1.00  0.00     0.280 HD
HETATM    9  C   UNL     1      39.677 -12.591   1.416  1.00  0.00     0.244 C 
HETATM   10  C   UNL     1      40.937 -12.477   2.290  1.00  0.00     0.045 C 
HETATM   11  C   UNL     1      41.929 -13.581   1.844  1.00  0.00     0.022 C 
HETATM   12  C   UNL     1      42.443 -15.916   1.103  1.00  0.00     0.039 C 
HETATM   13  C   UNL     1      42.235 -17.420   1.230  1.00  0.00     0.236 C 
ENDROOT
BRANCH   7  14
HETATM   14  C   UNL     1      37.795 -14.058   0.757  1.00  0.00     0.188 A 
HETATM   15  C   UNL     1      37.080 -12.758   0.518  1.00  0.00     0.035 A 
HETATM   16  C   UNL     1      37.782 -13.450  -0.616  1.00  0.00     0.035 A 
ENDBRANCH   7  14
BRANCH  10  17
HETATM   17  C   UNL     1      40.722 -12.414   3.800  1.00  0.00    -0.052 A 
HETATM   18  C   UNL     1      39.454 -12.378   4.406  1.00  0.00     0.007 A 
HETATM   19  C   UNL     1      39.318 -12.319   5.797  1.00  0.00     0.001 A 
HETATM   20  C   UNL     1      40.444 -12.264   6.611  1.00  0.00     0.000 A 
HETATM   21  C   UNL     1      41.707 -12.245   6.035  1.00  0.00     0.001 A 
HETATM   22  C   UNL     1      41.843 -12.306   4.646  1.00  0.00     0.007 A 
ENDBRANCH  10  17
BRANCH   1  23
HETATM   23  C   UNL     1      43.556 -17.810   3.382  1.00  0.00     0.323 C 
BRANCH  23  24
HETATM   24  C   UNL     1      44.067 -19.187   3.584  1.00  0.00     0.198 A 
HETATM   25  O   UNL     1      44.262 -19.952   2.482  1.00  0.00    -0.194 OA
HETATM   26  N   UNL     1      44.709 -21.185   2.944  1.00  0.00    -0.112 NA
HETATM   27  C   UNL     1      44.732 -21.037   4.276  1.00  0.00     0.152 A 
HETATM   28  C   UNL     1      45.110 -22.132   5.191  1.00  0.00     0.096 C 
HETATM   29  N   UNL     1      44.355 -19.786   4.719  1.00  0.00    -0.208 NA
ENDBRANCH  23  24
ENDBRANCH   1  23
TORSDOF 4
ENDMDL
MODEL 7
REMARK VINA RESULT:      -7.3      3.880      7.110
REMARK  4 active torsions:
REMARK  status: ('A' for Active; 'I' for Inactive)
REMARK    1  A    between atoms: C_5  and  C_6 
REMARK    2  A    between atoms: C_6  and  N_7 
REMARK    3  A    between atoms: N_13  and  C_15 
REMARK    4  A    between atoms: C_19  and  C_20 
ROOT
HETATM    1  N   UNL     1      42.977 -16.548   3.291  1.00  0.00    -0.064 N 
HETATM    2  H   UNL     1      43.558 -16.801   4.114  1.00  0.00     0.280 HD
HETATM    3  C   UNL     1      43.167 -15.072   3.112  1.00  0.00     0.236 C 
HETATM    4  C   UNL     1      42.206 -14.516   2.056  1.00  0.00     0.039 C 
HETATM    5  C   UNL     1      40.709 -14.911   2.227  1.00  0.00    -0.013 C 
HETATM    6  C   UNL     1      40.016 -14.116   3.366  1.00  0.00     0.245 C 
HETATM    7  N   UNL     1      39.763 -12.677   2.984  1.00  0.00    -0.065 N 
HETATM    8  H   UNL     1      40.658 -12.206   2.793  1.00  0.00     0.280 HD
HETATM    9  C   UNL     1      38.912 -12.543   1.723  1.00  0.00     0.244 C 
HETATM   10  C   UNL     1      39.623 -13.203   0.529  1.00  0.00     0.045 C 
HETATM   11  C   UNL     1      39.915 -14.678   0.903  1.00  0.00     0.022 C 
HETATM   12  C   UNL     1      40.633 -16.441   2.530  1.00  0.00     0.039 C 
HETATM   13  C   UNL     1      41.573 -16.925   3.627  1.00  0.00     0.236 C 
ENDROOT
BRANCH   7  14
HETATM   14  C   UNL     1      39.111 -11.929   4.113  1.00  0.00     0.188 A 
HETATM   15  C   UNL     1      39.235 -12.523   5.487  1.00  0.00     0.035 A 
HETATM   16  C   UNL     1      40.017 -11.292   5.126  1.00  0.00     0.035 A 
ENDBRANCH   7  14
BRANCH  10  17
HETATM   17  C   UNL     1      40.828 -12.462  -0.046  1.00  0.00    -0.052 A 
HETATM   18  C   UNL     1      41.289 -11.227   0.440  1.00  0.00     0.007 A 
HETATM   19  C   UNL     1      42.399 -10.594  -0.130  1.00  0.00     0.001 A 
HETATM   20  C   UNL     1      43.052 -11.165  -1.215  1.00  0.00     0.000 A 
HETATM   21  C   UNL     1      42.585 -12.359  -1.748  1.00  0.00     0.001 A 
HETATM   22  C   UNL     1      41.478 -12.992  -1.179  1.00  0.00     0.007 A 
ENDBRANCH  10  17
BRANCH   1  23
HETATM   23  C   UNL     1      43.627 -17.413   2.187  1.00  0.00     0.323 C 
BRANCH  23  24
HETATM   24  C   UNL     1      43.949 -18.776   2.670  1.00  0.00     0.198 A 
HETATM   25  O   UNL     1      44.433 -18.897   3.931  1.00  0.00    -0.194 OA
HETATM   26  N   UNL     1      44.676 -20.254   4.121  1.00  0.00    -0.112 NA
HETATM   27  C   UNL     1      44.319 -20.808   2.954  1.00  0.00     0.152 A 
HETATM   28  C   UNL     1      44.454 -22.253   2.686  1.00  0.00     0.096 C 
HETATM   29  N   UNL     1      43.835 -19.914   2.020  1.00  0.00    -0.208 NA
ENDBRANCH  23  24
ENDBRANCH   1  23
TORSDOF 4
ENDMDL
MODEL 8
REMARK VINA RESULT:      -7.3      3.406      3.983
REMARK  4 active torsions:
REMARK  status: ('A' for Active; 'I' for Inactive)
REMARK    1  A    between atoms: C_5  and  C_6 
REMARK    2  A    between atoms: C_6  and  N_7 
REMARK    3  A    between atoms: N_13  and  C_15 
REMARK    4  A    between atoms: C_19  and  C_20 
ROOT
HETATM    1  N   UNL     1      40.915 -12.147   4.488  1.00  0.00    -0.064 N 
HETATM    2  H   UNL     1      41.275 -11.230   4.817  1.00  0.00     0.280 HD
HETATM    3  C   UNL     1      42.093 -12.834   3.867  1.00  0.00     0.236 C 
HETATM    4  C   UNL     1      41.667 -14.120   3.149  1.00  0.00     0.039 C 
HETATM    5  C   UNL     1      40.467 -13.981   2.166  1.00  0.00    -0.013 C 
HETATM    6  C   UNL     1      40.874 -13.298   0.832  1.00  0.00     0.245 C 
HETATM    7  N   UNL     1      41.700 -14.208  -0.045  1.00  0.00    -0.065 N 
HETATM    8  H   UNL     1      42.573 -14.459   0.440  1.00  0.00     0.280 HD
HETATM    9  C   UNL     1      40.984 -15.514  -0.377  1.00  0.00     0.244 C 
HETATM   10  C   UNL     1      40.678 -16.296   0.911  1.00  0.00     0.045 C 
HETATM   11  C   UNL     1      39.847 -15.376   1.841  1.00  0.00     0.022 C 
HETATM   12  C   UNL     1      39.348 -13.146   2.866  1.00  0.00     0.039 C 
HETATM   13  C   UNL     1      39.824 -11.852   3.514  1.00  0.00     0.236 C 
ENDROOT
BRANCH   7  14
HETATM   14  C   UNL     1      42.096 -13.512  -1.317  1.00  0.00     0.188 A 
HETATM   15  C   UNL     1      41.162 -12.457  -1.837  1.00  0.00     0.035 A 
HETATM   16  C   UNL     1      42.472 -12.062  -1.217  1.00  0.00     0.035 A 
ENDBRANCH   7  14
BRANCH  10  17
HETATM   17  C   UNL     1      41.860 -16.967   1.605  1.00  0.00    -0.052 A 
HETATM   18  C   UNL     1      43.112 -17.163   0.996  1.00  0.00     0.007 A 
HETATM   19  C   UNL     1      44.160 -17.787   1.681  1.00  0.00     0.001 A 
HETATM   20  C   UNL     1      43.971 -18.257   2.976  1.00  0.00     0.000 A 
HETATM   21  C   UNL     1      42.728 -18.124   3.580  1.00  0.00     0.001 A 
HETATM   22  C   UNL     1      41.682 -17.499   2.897  1.00  0.00     0.007 A 
ENDBRANCH  10  17
BRANCH   1  23
HETATM   23  C   UNL     1      40.436 -12.777   5.816  1.00  0.00     0.323 C 
BRANCH  23  24
HETATM   24  C   UNL     1      39.976 -11.750   6.780  1.00  0.00     0.198 A 
HETATM   25  O   UNL     1      39.096 -12.137   7.737  1.00  0.00    -0.194 OA
HETATM   26  N   UNL     1      38.809 -10.996   8.479  1.00  0.00    -0.112 NA
HETATM   27  C   UNL     1      39.541 -10.041   7.890  1.00  0.00     0.152 A 
HETATM   28  C   UNL     1      39.510  -8.632   8.331  1.00  0.00     0.096 C 
HETATM   29  N   UNL     1      40.307 -10.478   6.829  1.00  0.00    -0.208 NA
ENDBRANCH  23  24
ENDBRANCH   1  23
TORSDOF 4
ENDMDL
MODEL 9
REMARK VINA RESULT:      -7.2      4.110      7.243
REMARK  4 active torsions:
REMARK  status: ('A' for Active; 'I' for Inactive)
REMARK    1  A    between atoms: C_5  and  C_6 
REMARK    2  A    between atoms: C_6  and  N_7 
REMARK    3  A    between atoms: N_13  and  C_15 
REMARK    4  A    between atoms: C_19  and  C_20 
ROOT
HETATM    1  N   UNL     1      42.187 -15.858   2.989  1.00  0.00    -0.064 N 
HETATM    2  H   UNL     1      42.214 -16.049   4.009  1.00  0.00     0.280 HD
HETATM    3  C   UNL     1      41.960 -14.382   2.868  1.00  0.00     0.236 C 
HETATM    4  C   UNL     1      41.690 -13.982   1.413  1.00  0.00     0.039 C 
HETATM    5  C   UNL     1      40.605 -14.817   0.671  1.00  0.00    -0.013 C 
HETATM    6  C   UNL     1      39.165 -14.436   1.109  1.00  0.00     0.245 C 
HETATM    7  N   UNL     1      38.741 -13.094   0.562  1.00  0.00    -0.065 N 
HETATM    8  H   UNL     1      39.366 -12.359   0.921  1.00  0.00     0.280 HD
HETATM    9  C   UNL     1      38.808 -13.031  -0.962  1.00  0.00     0.244 C 
HETATM   10  C   UNL     1      40.250 -13.271  -1.441  1.00  0.00     0.045 C 
HETATM   11  C   UNL     1      40.720 -14.635  -0.875  1.00  0.00     0.022 C 
HETATM   12  C   UNL     1      40.861 -16.330   0.963  1.00  0.00     0.039 C 
HETATM   13  C   UNL     1      41.068 -16.674   2.433  1.00  0.00     0.236 C 
ENDROOT
BRANCH   7  14
HETATM   14  C   UNL     1      37.353 -12.743   1.019  1.00  0.00     0.188 A 
HETATM   15  C   UNL     1      37.121 -11.330   1.475  1.00  0.00     0.035 A 
HETATM   16  C   UNL     1      36.567 -11.796   0.159  1.00  0.00     0.035 A 
ENDBRANCH   7  14
BRANCH  10  17
HETATM   17  C   UNL     1      41.246 -12.135  -1.218  1.00  0.00    -0.052 A 
HETATM   18  C   UNL     1      40.916 -10.922  -0.590  1.00  0.00     0.007 A 
HETATM   19  C   UNL     1      41.871  -9.915  -0.416  1.00  0.00     0.001 A 
HETATM   20  C   UNL     1      43.166 -10.085  -0.892  1.00  0.00     0.000 A 
HETATM   21  C   UNL     1      43.503 -11.253  -1.563  1.00  0.00     0.001 A 
HETATM   22  C   UNL     1      42.550 -12.259  -1.736  1.00  0.00     0.007 A 
ENDBRANCH  10  17
BRANCH   1  23
HETATM   23  C   UNL     1      43.596 -16.324   2.557  1.00  0.00     0.323 C 
BRANCH  23  24
HETATM   24  C   UNL     1      43.805 -17.768   2.818  1.00  0.00     0.198 A 
HETATM   25  O   UNL     1      43.951 -18.158   4.109  1.00  0.00    -0.194 OA
HETATM   26  N   UNL     1      44.159 -19.533   4.074  1.00  0.00    -0.112 NA
HETATM   27  C   UNL     1      44.123 -19.827   2.767  1.00  0.00     0.152 A 
HETATM   28  C   UNL     1      44.346 -21.194   2.254  1.00  0.00     0.096 C 
HETATM   29  N   UNL     1      43.881 -18.747   1.943  1.00  0.00    -0.208 NA
ENDBRANCH  23  24
ENDBRANCH   1  23
TORSDOF 4
ENDMDL
MODEL 10
REMARK VINA RESULT:      -7.1      3.553      6.922
REMARK  4 active torsions:
REMARK  status: ('A' for Active; 'I' for Inactive)
REMARK    1  A    between atoms: C_5  and  C_6 
REMARK    2  A    between atoms: C_6  and  N_7 
REMARK    3  A    between atoms: N_13  and  C_15 
REMARK    4  A    between atoms: C_19  and  C_20 
ROOT
HETATM    1  N   UNL     1      44.602 -19.432   6.783  1.00  0.00    -0.064 N 
HETATM    2  H   UNL     1      45.539 -19.827   6.991  1.00  0.00     0.280 HD
HETATM    3  C   UNL     1      44.804 -18.538   5.598  1.00  0.00     0.236 C 
HETATM    4  C   UNL     1      43.541 -17.721   5.301  1.00  0.00     0.039 C 
HETATM    5  C   UNL     1      42.917 -16.972   6.516  1.00  0.00    -0.013 C 
HETATM    6  C   UNL     1      43.723 -15.703   6.905  1.00  0.00     0.245 C 
HETATM    7  N   UNL     1      43.536 -14.584   5.909  1.00  0.00    -0.065 N 
HETATM    8  H   UNL     1      43.875 -14.881   4.984  1.00  0.00     0.280 HD
HETATM    9  C   UNL     1      42.072 -14.185   5.739  1.00  0.00     0.244 C 
HETATM   10  C   UNL     1      41.252 -15.380   5.224  1.00  0.00     0.045 C 
HETATM   11  C   UNL     1      41.444 -16.554   6.218  1.00  0.00     0.022 C 
HETATM   12  C   UNL     1      42.866 -17.956   7.729  1.00  0.00     0.039 C 
HETATM   13  C   UNL     1      44.167 -18.698   8.007  1.00  0.00     0.236 C 
ENDROOT
BRANCH   7  14
HETATM   14  C   UNL     1      44.343 -13.378   6.300  1.00  0.00     0.188 A 
HETATM   15  C   UNL     1      44.666 -13.216   7.758  1.00  0.00     0.035 A 
HETATM   16  C   UNL     1      45.742 -13.619   6.790  1.00  0.00     0.035 A 
ENDBRANCH   7  14
BRANCH  10  17
HETATM   17  C   UNL     1      41.452 -15.771   3.762  1.00  0.00    -0.052 A 
HETATM   18  C   UNL     1      42.223 -15.025   2.855  1.00  0.00     0.007 A 
HETATM   19  C   UNL     1      42.369 -15.432   1.524  1.00  0.00     0.001 A 
HETATM   20  C   UNL     1      41.724 -16.574   1.064  1.00  0.00     0.000 A 
HETATM   21  C   UNL     1      40.914 -17.300   1.927  1.00  0.00     0.001 A 
HETATM   22  C   UNL     1      40.769 -16.895   3.256  1.00  0.00     0.007 A 
ENDBRANCH  10  17
BRANCH   1  23
HETATM   23  C   UNL     1      43.793 -20.715   6.483  1.00  0.00     0.323 C 
BRANCH  23  24
HETATM   24  C   UNL     1      44.203 -21.341   5.205  1.00  0.00     0.198 A 
HETATM   25  O   UNL     1      44.998 -22.438   5.269  1.00  0.00    -0.194 OA
HETATM   26  N   UNL     1      45.255 -22.805   3.952  1.00  0.00    -0.112 NA
HETATM   27  C   UNL     1      44.594 -21.888   3.232  1.00  0.00     0.152 A 
HETATM   28  C   UNL     1      44.626 -21.864   1.756  1.00  0.00     0.096 C 
HETATM   29  N   UNL     1      43.901 -20.961   3.982  1.00  0.00    -0.208 NA
ENDBRANCH  23  24
ENDBRANCH   1  23
TORSDOF 4
ENDMDL
