MODEL 1
REMARK VINA RESULT:      -7.9      0.000      0.000
REMARK  3 active torsions:
REMARK  status: ('A' for Active; 'I' for Inactive)
REMARK    1  A    between atoms: C_2  and  N_3 
REMARK    2  A    between atoms: N_10  and  C_11 
REMARK    3  A    between atoms: C_11  and  C_12 
ROOT
HETATM    1  N   UNL     1      39.724 -13.649   1.852  1.00  0.00    -0.063 N 
HETATM    2  H   UNL     1      40.002 -13.391   2.818  1.00  0.00     0.280 HD
HETATM    3  C   UNL     1      40.013 -15.146   1.808  1.00  0.00     0.277 C 
HETATM    4  C   UNL     1      41.310 -15.468   2.579  1.00  0.00     0.132 C 
HETATM    5  O   UNL     1      41.143 -14.847   3.883  1.00  0.00    -0.373 OA
HETATM    6  C   UNL     1      42.165 -15.258   4.811  1.00  0.00     0.199 C 
HETATM    7  C   UNL     1      42.146 -16.781   5.012  1.00  0.00     0.299 C 
HETATM    8  N   UNL     1      42.290 -17.531   3.754  1.00  0.00     0.097 N 
HETATM    9  C   UNL     1      41.392 -17.018   2.719  1.00  0.00     0.314 C 
HETATM   10  C   UNL     1      42.524 -14.870   1.828  1.00  0.00     0.209 C 
HETATM   11  O   UNL     1      42.747 -13.506   2.164  1.00  0.00    -0.386 OA
HETATM   12  C   UNL     1      41.947 -12.486   1.591  1.00  0.00     0.195 C 
HETATM   13  C   UNL     1      40.631 -12.870   0.914  1.00  0.00     0.261 C 
ENDROOT
BRANCH   1  14
HETATM   14  C   UNL     1      38.256 -13.260   1.710  1.00  0.00     0.180 C 
HETATM   15  C   UNL     1      37.607 -14.026   0.560  1.00  0.00     0.039 C 
HETATM   16  C   UNL     1      38.100 -11.751   1.562  1.00  0.00     0.039 C 
ENDBRANCH   1  14
BRANCH   8  17
HETATM   17  C   UNL     1      43.676 -17.751   3.346  1.00  0.00     0.311 C 
BRANCH  17  18
HETATM   18  C   UNL     1      43.996 -19.230   3.333  1.00  0.00    -0.030 A 
HETATM   19  C   UNL     1      44.559 -19.835   4.471  1.00  0.00     0.012 A 
HETATM   20  C   UNL     1      44.861 -21.197   4.474  1.00  0.00     0.043 A 
HETATM   21  C   UNL     1      44.608 -21.957   3.337  1.00  0.00     0.116 A 
HETATM   22  F   UNL     1      44.896 -23.262   3.340  1.00  0.00    -0.206 F 
HETATM   23  C   UNL     1      44.063 -21.374   2.198  1.00  0.00     0.043 A 
HETATM   24  C   UNL     1      43.759 -20.011   2.193  1.00  0.00     0.012 A 
ENDBRANCH  17  18
ENDBRANCH   8  17
TORSDOF 3
ENDMDL
MODEL 2
REMARK VINA RESULT:      -7.7      1.845      2.298
REMARK  3 active torsions:
REMARK  status: ('A' for Active; 'I' for Inactive)
REMARK    1  A    between atoms: C_2  and  N_3 
REMARK    2  A    between atoms: N_10  and  C_11 
REMARK    3  A    between atoms: C_11  and  C_12 
ROOT
HETATM    1  N   UNL     1      40.016 -12.579   4.428  1.00  0.00    -0.063 N 
HETATM    2  H   UNL     1      39.757 -13.107   5.283  1.00  0.00     0.280 HD
HETATM    3  C   UNL     1      40.497 -13.678   3.487  1.00  0.00     0.277 C 
HETATM    4  C   UNL     1      41.296 -14.745   4.266  1.00  0.00     0.132 C 
HETATM    5  O   UNL     1      40.438 -15.128   5.375  1.00  0.00    -0.373 OA
HETATM    6  C   UNL     1      40.935 -16.291   6.064  1.00  0.00     0.199 C 
HETATM    7  C   UNL     1      41.036 -17.493   5.113  1.00  0.00     0.299 C 
HETATM    8  N   UNL     1      41.869 -17.225   3.931  1.00  0.00     0.097 N 
HETATM    9  C   UNL     1      41.517 -15.950   3.305  1.00  0.00     0.314 C 
HETATM   10  C   UNL     1      42.623 -14.132   4.774  1.00  0.00     0.209 C 
HETATM   11  O   UNL     1      42.464 -13.449   6.011  1.00  0.00    -0.386 OA
HETATM   12  C   UNL     1      41.903 -12.148   6.046  1.00  0.00     0.195 C 
HETATM   13  C   UNL     1      41.142 -11.637   4.822  1.00  0.00     0.261 C 
ENDROOT
BRANCH   1  14
HETATM   14  C   UNL     1      38.759 -11.840   3.984  1.00  0.00     0.180 C 
HETATM   15  C   UNL     1      38.592 -11.926   2.468  1.00  0.00     0.039 C 
HETATM   16  C   UNL     1      38.762 -10.400   4.485  1.00  0.00     0.039 C 
ENDBRANCH   1  14
BRANCH   8  17
HETATM   17  C   UNL     1      43.297 -17.461   4.141  1.00  0.00     0.311 C 
BRANCH  17  18
HETATM   18  C   UNL     1      43.693 -18.822   3.613  1.00  0.00    -0.030 A 
HETATM   19  C   UNL     1      44.512 -19.663   4.387  1.00  0.00     0.012 A 
HETATM   20  C   UNL     1      44.888 -20.920   3.913  1.00  0.00     0.043 A 
HETATM   21  C   UNL     1      44.449 -21.339   2.661  1.00  0.00     0.116 A 
HETATM   22  F   UNL     1      44.807 -22.545   2.208  1.00  0.00    -0.206 F 
HETATM   23  C   UNL     1      43.648 -20.518   1.876  1.00  0.00     0.043 A 
HETATM   24  C   UNL     1      43.271 -19.259   2.349  1.00  0.00     0.012 A 
ENDBRANCH  17  18
ENDBRANCH   8  17
TORSDOF 3
ENDMDL
MODEL 3
REMARK VINA RESULT:      -7.4      2.249      2.895
REMARK  3 active torsions:
REMARK  status: ('A' for Active; 'I' for Inactive)
REMARK    1  A    between atoms: C_2  and  N_3 
REMARK    2  A    between atoms: N_10  and  C_11 
REMARK    3  A    between atoms: C_11  and  C_12 
ROOT
HETATM    1  N   UNL     1      39.450 -13.370  -1.307  1.00  0.00    -0.063 N 
HETATM    2  H   UNL     1      38.917 -13.498  -0.425  1.00  0.00     0.280 HD
HETATM    3  C   UNL     1      40.351 -14.599  -1.336  1.00  0.00     0.277 C 
HETATM    4  C   UNL     1      40.860 -14.930   0.083  1.00  0.00     0.132 C 
HETATM    5  O   UNL     1      39.667 -14.983   0.912  1.00  0.00    -0.373 OA
HETATM    6  C   UNL     1      39.944 -15.518   2.220  1.00  0.00     0.199 C 
HETATM    7  C   UNL     1      40.511 -16.942   2.124  1.00  0.00     0.299 C 
HETATM    8  N   UNL     1      41.719 -17.028   1.289  1.00  0.00     0.097 N 
HETATM    9  C   UNL     1      41.541 -16.330   0.015  1.00  0.00     0.314 C 
HETATM   10  C   UNL     1      41.824 -13.817   0.562  1.00  0.00     0.209 C 
HETATM   11  O   UNL     1      41.133 -12.718   1.142  1.00  0.00    -0.386 OA
HETATM   12  C   UNL     1      40.500 -11.753   0.318  1.00  0.00     0.195 C 
HETATM   13  C   UNL     1      40.247 -12.086  -1.152  1.00  0.00     0.261 C 
ENDROOT
BRANCH   1  14
HETATM   14  C   UNL     1      38.415 -13.290  -2.424  1.00  0.00     0.180 C 
HETATM   15  C   UNL     1      38.190 -14.665  -3.048  1.00  0.00     0.039 C 
HETATM   16  C   UNL     1      38.805 -12.241  -3.460  1.00  0.00     0.039 C 
ENDBRANCH   1  14
BRANCH   8  17
HETATM   17  C   UNL     1      42.961 -16.743   2.005  1.00  0.00     0.311 C 
BRANCH  17  18
HETATM   18  C   UNL     1      43.501 -17.999   2.653  1.00  0.00    -0.030 A 
HETATM   19  C   UNL     1      43.673 -19.164   1.884  1.00  0.00     0.012 A 
HETATM   20  C   UNL     1      44.168 -20.331   2.467  1.00  0.00     0.043 A 
HETATM   21  C   UNL     1      44.486 -20.339   3.821  1.00  0.00     0.116 A 
HETATM   22  F   UNL     1      44.962 -21.456   4.379  1.00  0.00    -0.206 F 
HETATM   23  C   UNL     1      44.312 -19.200   4.600  1.00  0.00     0.043 A 
HETATM   24  C   UNL     1      43.817 -18.031   4.018  1.00  0.00     0.012 A 
ENDBRANCH  17  18
ENDBRANCH   8  17
TORSDOF 3
ENDMDL
MODEL 4
REMARK VINA RESULT:      -7.3      3.444      7.942
REMARK  3 active torsions:
REMARK  status: ('A' for Active; 'I' for Inactive)
REMARK    1  A    between atoms: C_2  and  N_3 
REMARK    2  A    between atoms: N_10  and  C_11 
REMARK    3  A    between atoms: C_11  and  C_12 
ROOT
HETATM    1  N   UNL     1      44.194 -19.167   4.308  1.00  0.00    -0.063 N 
HETATM    2  H   UNL     1      44.774 -18.366   3.993  1.00  0.00     0.280 HD
HETATM    3  C   UNL     1      42.843 -18.879   3.662  1.00  0.00     0.277 C 
HETATM    4  C   UNL     1      42.538 -17.366   3.701  1.00  0.00     0.132 C 
HETATM    5  O   UNL     1      43.712 -16.726   3.132  1.00  0.00    -0.373 OA
HETATM    6  C   UNL     1      43.491 -15.327   2.874  1.00  0.00     0.199 C 
HETATM    7  C   UNL     1      42.326 -15.125   1.893  1.00  0.00     0.299 C 
HETATM    8  N   UNL     1      41.074 -15.748   2.348  1.00  0.00     0.097 N 
HETATM    9  C   UNL     1      41.292 -17.123   2.798  1.00  0.00     0.314 C 
HETATM   10  C   UNL     1      42.313 -16.919   5.166  1.00  0.00     0.209 C 
HETATM   11  O   UNL     1      43.533 -16.618   5.831  1.00  0.00    -0.386 OA
HETATM   12  C   UNL     1      44.357 -17.660   6.324  1.00  0.00     0.195 C 
HETATM   13  C   UNL     1      44.126 -19.087   5.824  1.00  0.00     0.261 C 
ENDROOT
BRANCH   1  14
HETATM   14  C   UNL     1      44.900 -20.426   3.816  1.00  0.00     0.180 C 
HETATM   15  C   UNL     1      44.304 -20.892   2.490  1.00  0.00     0.039 C 
HETATM   16  C   UNL     1      44.876 -21.520   4.878  1.00  0.00     0.039 C 
ENDBRANCH   1  14
BRANCH   8  17
HETATM   17  C   UNL     1      40.276 -14.904   3.235  1.00  0.00     0.311 C 
BRANCH  17  18
HETATM   18  C   UNL     1      39.273 -14.097   2.440  1.00  0.00    -0.030 A 
HETATM   19  C   UNL     1      38.461 -14.735   1.485  1.00  0.00     0.012 A 
HETATM   20  C   UNL     1      37.532 -14.005   0.743  1.00  0.00     0.043 A 
HETATM   21  C   UNL     1      37.417 -12.634   0.949  1.00  0.00     0.116 A 
HETATM   22  F   UNL     1      36.526 -11.934   0.240  1.00  0.00    -0.206 F 
HETATM   23  C   UNL     1      38.219 -11.983   1.880  1.00  0.00     0.043 A 
HETATM   24  C   UNL     1      39.149 -12.713   2.624  1.00  0.00     0.012 A 
ENDBRANCH  17  18
ENDBRANCH   8  17
TORSDOF 3
ENDMDL
MODEL 5
REMARK VINA RESULT:      -7.1      2.821      3.908
REMARK  3 active torsions:
REMARK  status: ('A' for Active; 'I' for Inactive)
REMARK    1  A    between atoms: C_2  and  N_3 
REMARK    2  A    between atoms: N_10  and  C_11 
REMARK    3  A    between atoms: C_11  and  C_12 
ROOT
HETATM    1  N   UNL     1      40.461 -11.519   5.652  1.00  0.00    -0.063 N 
HETATM    2  H   UNL     1      41.032 -11.260   4.825  1.00  0.00     0.280 HD
HETATM    3  C   UNL     1      40.975 -12.913   5.992  1.00  0.00     0.277 C 
HETATM    4  C   UNL     1      41.260 -13.713   4.702  1.00  0.00     0.132 C 
HETATM    5  O   UNL     1      42.114 -12.851   3.901  1.00  0.00    -0.373 OA
HETATM    6  C   UNL     1      42.669 -13.545   2.768  1.00  0.00     0.199 C 
HETATM    7  C   UNL     1      43.510 -14.750   3.218  1.00  0.00     0.299 C 
HETATM    8  N   UNL     1      42.759 -15.696   4.059  1.00  0.00     0.097 N 
HETATM    9  C   UNL     1      42.025 -15.004   5.119  1.00  0.00     0.314 C 
HETATM   10  C   UNL     1      39.929 -14.014   3.972  1.00  0.00     0.209 C 
HETATM   11  O   UNL     1      39.520 -12.941   3.133  1.00  0.00    -0.386 OA
HETATM   12  C   UNL     1      38.904 -11.791   3.687  1.00  0.00     0.195 C 
HETATM   13  C   UNL     1      39.013 -11.545   5.192  1.00  0.00     0.261 C 
ENDROOT
BRANCH   1  14
HETATM   14  C   UNL     1      40.724 -10.449   6.706  1.00  0.00     0.180 C 
HETATM   15  C   UNL     1      41.930 -10.825   7.563  1.00  0.00     0.039 C 
HETATM   16  C   UNL     1      39.479 -10.184   7.544  1.00  0.00     0.039 C 
ENDBRANCH   1  14
BRANCH   8  17
HETATM   17  C   UNL     1      42.004 -16.694   3.304  1.00  0.00     0.311 C 
BRANCH  17  18
HETATM   18  C   UNL     1      42.796 -17.977   3.181  1.00  0.00    -0.030 A 
HETATM   19  C   UNL     1      42.708 -18.745   2.006  1.00  0.00     0.012 A 
HETATM   20  C   UNL     1      43.431 -19.931   1.878  1.00  0.00     0.043 A 
HETATM   21  C   UNL     1      44.240 -20.356   2.927  1.00  0.00     0.116 A 
HETATM   22  F   UNL     1      44.934 -21.492   2.804  1.00  0.00    -0.206 F 
HETATM   23  C   UNL     1      44.331 -19.618   4.101  1.00  0.00     0.043 A 
HETATM   24  C   UNL     1      43.608 -18.430   4.231  1.00  0.00     0.012 A 
ENDBRANCH  17  18
ENDBRANCH   8  17
TORSDOF 3
ENDMDL
MODEL 6
REMARK VINA RESULT:      -7.0      1.583      2.823
REMARK  3 active torsions:
REMARK  status: ('A' for Active; 'I' for Inactive)
REMARK    1  A    between atoms: C_2  and  N_3 
REMARK    2  A    between atoms: N_10  and  C_11 
REMARK    3  A    between atoms: C_11  and  C_12 
ROOT
HETATM    1  N   UNL     1      40.334 -12.710   0.995  1.00  0.00    -0.063 N 
HETATM    2  H   UNL     1      40.366 -13.376   0.199  1.00  0.00     0.280 HD
HETATM    3  C   UNL     1      41.428 -13.235   1.917  1.00  0.00     0.277 C 
HETATM    4  C   UNL     1      41.433 -14.779   1.924  1.00  0.00     0.132 C 
HETATM    5  O   UNL     1      41.484 -15.166   0.524  1.00  0.00    -0.373 OA
HETATM    6  C   UNL     1      41.737 -16.574   0.363  1.00  0.00     0.199 C 
HETATM    7  C   UNL     1      43.075 -16.969   1.006  1.00  0.00     0.299 C 
HETATM    8  N   UNL     1      43.159 -16.612   2.430  1.00  0.00     0.097 N 
HETATM    9  C   UNL     1      42.728 -15.233   2.663  1.00  0.00     0.314 C 
HETATM   10  C   UNL     1      40.143 -15.301   2.602  1.00  0.00     0.209 C 
HETATM   11  O   UNL     1      39.051 -15.379   1.694  1.00  0.00    -0.386 OA
HETATM   12  C   UNL     1      38.335 -14.211   1.331  1.00  0.00     0.195 C 
HETATM   13  C   UNL     1      38.955 -12.843   1.618  1.00  0.00     0.261 C 
ENDROOT
BRANCH   1  14
HETATM   14  C   UNL     1      40.583 -11.326   0.404  1.00  0.00     0.180 C 
HETATM   15  C   UNL     1      39.774 -11.136  -0.877  1.00  0.00     0.039 C 
HETATM   16  C   UNL     1      42.072 -11.079   0.191  1.00  0.00     0.039 C 
ENDBRANCH   1  14
BRANCH   8  17
HETATM   17  C   UNL     1      42.600 -17.617   3.332  1.00  0.00     0.311 C 
BRANCH  17  18
HETATM   18  C   UNL     1      43.271 -18.956   3.115  1.00  0.00    -0.030 A 
HETATM   19  C   UNL     1      42.906 -19.753   2.016  1.00  0.00     0.012 A 
HETATM   20  C   UNL     1      43.514 -20.990   1.804  1.00  0.00     0.043 A 
HETATM   21  C   UNL     1      44.485 -21.437   2.694  1.00  0.00     0.116 A 
HETATM   22  F   UNL     1      45.070 -22.622   2.490  1.00  0.00    -0.206 F 
HETATM   23  C   UNL     1      44.851 -20.669   3.794  1.00  0.00     0.043 A 
HETATM   24  C   UNL     1      44.243 -19.430   4.007  1.00  0.00     0.012 A 
ENDBRANCH  17  18
ENDBRANCH   8  17
TORSDOF 3
ENDMDL
MODEL 7
REMARK VINA RESULT:      -6.9      1.843      3.155
REMARK  3 active torsions:
REMARK  status: ('A' for Active; 'I' for Inactive)
REMARK    1  A    between atoms: C_2  and  N_3 
REMARK    2  A    between atoms: N_10  and  C_11 
REMARK    3  A    between atoms: C_11  and  C_12 
ROOT
HETATM    1  N   UNL     1      41.371 -13.791   3.556  1.00  0.00    -0.063 N 
HETATM    2  H   UNL     1      41.514 -13.771   2.528  1.00  0.00     0.280 HD
HETATM    3  C   UNL     1      42.291 -14.921   4.001  1.00  0.00     0.277 C 
HETATM    4  C   UNL     1      42.260 -16.078   2.979  1.00  0.00     0.132 C 
HETATM    5  O   UNL     1      42.523 -15.456   1.692  1.00  0.00    -0.373 OA
HETATM    6  C   UNL     1      42.766 -16.432   0.662  1.00  0.00     0.199 C 
HETATM    7  C   UNL     1      43.975 -17.313   1.012  1.00  0.00     0.299 C 
HETATM    8  N   UNL     1      43.840 -17.989   2.312  1.00  0.00     0.097 N 
HETATM    9  C   UNL     1      43.409 -17.059   3.357  1.00  0.00     0.314 C 
HETATM   10  C   UNL     1      40.866 -16.751   2.999  1.00  0.00     0.209 C 
HETATM   11  O   UNL     1      39.931 -16.081   2.164  1.00  0.00    -0.386 OA
HETATM   12  C   UNL     1      39.309 -14.884   2.599  1.00  0.00     0.195 C 
HETATM   13  C   UNL     1      39.907 -14.128   3.786  1.00  0.00     0.261 C 
ENDROOT
BRANCH   1  14
HETATM   14  C   UNL     1      41.742 -12.403   4.067  1.00  0.00     0.180 C 
HETATM   15  C   UNL     1      41.556 -12.320   5.580  1.00  0.00     0.039 C 
HETATM   16  C   UNL     1      40.965 -11.319   3.328  1.00  0.00     0.039 C 
ENDBRANCH   1  14
BRANCH   8  17
HETATM   17  C   UNL     1      43.121 -19.260   2.251  1.00  0.00     0.311 C 
BRANCH  17  18
HETATM   18  C   UNL     1      43.800 -20.296   3.118  1.00  0.00    -0.030 A 
HETATM   19  C   UNL     1      44.062 -21.579   2.603  1.00  0.00     0.012 A 
HETATM   20  C   UNL     1      44.686 -22.546   3.391  1.00  0.00     0.043 A 
HETATM   21  C   UNL     1      45.046 -22.235   4.698  1.00  0.00     0.116 A 
HETATM   22  F   UNL     1      45.647 -23.161   5.454  1.00  0.00    -0.206 F 
HETATM   23  C   UNL     1      44.786 -20.977   5.230  1.00  0.00     0.043 A 
HETATM   24  C   UNL     1      44.161 -20.008   4.442  1.00  0.00     0.012 A 
ENDBRANCH  17  18
ENDBRANCH   8  17
TORSDOF 3
ENDMDL
MODEL 8
REMARK VINA RESULT:      -6.9      2.354      3.554
REMARK  3 active torsions:
REMARK  status: ('A' for Active; 'I' for Inactive)
REMARK    1  A    between atoms: C_2  and  N_3 
REMARK    2  A    between atoms: N_10  and  C_11 
REMARK    3  A    between atoms: C_11  and  C_12 
ROOT
HETATM    1  N   UNL     1      41.078 -11.690   4.662  1.00  0.00    -0.063 N 
HETATM    2  H   UNL     1      40.332 -12.050   4.036  1.00  0.00     0.280 HD
HETATM    3  C   UNL     1      42.216 -12.676   4.429  1.00  0.00     0.277 C 
HETATM    4  C   UNL     1      41.666 -14.110   4.275  1.00  0.00     0.132 C 
HETATM    5  O   UNL     1      40.633 -14.015   3.257  1.00  0.00    -0.373 OA
HETATM    6  C   UNL     1      40.184 -15.312   2.822  1.00  0.00     0.199 C 
HETATM    7  C   UNL     1      41.345 -16.128   2.235  1.00  0.00     0.299 C 
HETATM    8  N   UNL     1      42.472 -16.283   3.168  1.00  0.00     0.097 N 
HETATM    9  C   UNL     1      42.841 -15.005   3.778  1.00  0.00     0.314 C 
HETATM   10  C   UNL     1      41.078 -14.589   5.624  1.00  0.00     0.209 C 
HETATM   11  O   UNL     1      39.732 -14.168   5.806  1.00  0.00    -0.386 OA
HETATM   12  C   UNL     1      39.444 -12.838   6.203  1.00  0.00     0.195 C 
HETATM   13  C   UNL     1      40.536 -11.775   6.079  1.00  0.00     0.261 C 
ENDROOT
BRANCH   1  14
HETATM   14  C   UNL     1      41.351 -10.256   4.221  1.00  0.00     0.180 C 
HETATM   15  C   UNL     1      41.215  -9.297   5.400  1.00  0.00     0.039 C 
HETATM   16  C   UNL     1      40.459  -9.862   3.048  1.00  0.00     0.039 C 
ENDBRANCH   1  14
BRANCH   8  17
HETATM   17  C   UNL     1      42.337 -17.414   4.084  1.00  0.00     0.311 C 
BRANCH  17  18
HETATM   18  C   UNL     1      43.075 -18.621   3.550  1.00  0.00    -0.030 A 
HETATM   19  C   UNL     1      42.752 -19.135   2.281  1.00  0.00     0.012 A 
HETATM   20  C   UNL     1      43.423 -20.249   1.775  1.00  0.00     0.043 A 
HETATM   21  C   UNL     1      44.415 -20.855   2.538  1.00  0.00     0.116 A 
HETATM   22  F   UNL     1      45.059 -21.921   2.053  1.00  0.00    -0.206 F 
HETATM   23  C   UNL     1      44.741 -20.369   3.799  1.00  0.00     0.043 A 
HETATM   24  C   UNL     1      44.071 -19.254   4.307  1.00  0.00     0.012 A 
ENDBRANCH  17  18
ENDBRANCH   8  17
TORSDOF 3
ENDMDL
MODEL 9
REMARK VINA RESULT:      -6.8      4.078      8.154
REMARK  3 active torsions:
REMARK  status: ('A' for Active; 'I' for Inactive)
REMARK    1  A    between atoms: C_2  and  N_3 
REMARK    2  A    between atoms: N_10  and  C_11 
REMARK    3  A    between atoms: C_11  and  C_12 
ROOT
HETATM    1  N   UNL     1      44.211 -20.121   4.483  1.00  0.00    -0.063 N 
HETATM    2  H   UNL     1      43.177 -20.195   4.542  1.00  0.00     0.280 HD
HETATM    3  C   UNL     1      44.484 -18.742   5.072  1.00  0.00     0.277 C 
HETATM    4  C   UNL     1      43.398 -17.739   4.626  1.00  0.00     0.132 C 
HETATM    5  O   UNL     1      42.133 -18.378   4.952  1.00  0.00    -0.373 OA
HETATM    6  C   UNL     1      41.023 -17.471   4.819  1.00  0.00     0.199 C 
HETATM    7  C   UNL     1      41.188 -16.258   5.747  1.00  0.00     0.299 C 
HETATM    8  N   UNL     1      42.448 -15.532   5.529  1.00  0.00     0.097 N 
HETATM    9  C   UNL     1      43.590 -16.444   5.471  1.00  0.00     0.314 C 
HETATM   10  C   UNL     1      43.519 -17.485   3.104  1.00  0.00     0.209 C 
HETATM   11  O   UNL     1      42.830 -18.465   2.337  1.00  0.00    -0.386 OA
HETATM   12  C   UNL     1      43.404 -19.743   2.124  1.00  0.00     0.195 C 
HETATM   13  C   UNL     1      44.569 -20.189   3.008  1.00  0.00     0.261 C 
ENDROOT
BRANCH   1  14
HETATM   14  C   UNL     1      44.769 -21.296   5.279  1.00  0.00     0.180 C 
HETATM   15  C   UNL     1      44.728 -22.576   4.447  1.00  0.00     0.039 C 
HETATM   16  C   UNL     1      44.045 -21.450   6.613  1.00  0.00     0.039 C 
ENDBRANCH   1  14
BRANCH   8  17
HETATM   17  C   UNL     1      42.380 -14.525   4.471  1.00  0.00     0.311 C 
BRANCH  17  18
HETATM   18  C   UNL     1      41.495 -13.372   4.892  1.00  0.00    -0.030 A 
HETATM   19  C   UNL     1      40.330 -13.079   4.161  1.00  0.00     0.012 A 
HETATM   20  C   UNL     1      39.506 -12.018   4.536  1.00  0.00     0.043 A 
HETATM   21  C   UNL     1      39.846 -11.243   5.640  1.00  0.00     0.116 A 
HETATM   22  F   UNL     1      39.055 -10.227   6.001  1.00  0.00    -0.206 F 
HETATM   23  C   UNL     1      41.000 -11.509   6.368  1.00  0.00     0.043 A 
HETATM   24  C   UNL     1      41.827 -12.571   5.995  1.00  0.00     0.012 A 
ENDBRANCH  17  18
ENDBRANCH   8  17
TORSDOF 3
ENDMDL
MODEL 10
REMARK VINA RESULT:      -6.8      1.680      2.544
REMARK  3 active torsions:
REMARK  status: ('A' for Active; 'I' for Inactive)
REMARK    1  A    between atoms: C_2  and  N_3 
REMARK    2  A    between atoms: N_10  and  C_11 
REMARK    3  A    between atoms: C_11  and  C_12 
ROOT
HETATM    1  N   UNL     1      39.138 -12.227   2.493  1.00  0.00    -0.063 N 
HETATM    2  H   UNL     1      40.008 -12.127   1.936  1.00  0.00     0.280 HD
HETATM    3  C   UNL     1      39.501 -13.323   3.489  1.00  0.00     0.277 C 
HETATM    4  C   UNL     1      40.365 -14.406   2.809  1.00  0.00     0.132 C 
HETATM    5  O   UNL     1      41.453 -13.681   2.173  1.00  0.00    -0.373 OA
HETATM    6  C   UNL     1      42.484 -14.566   1.696  1.00  0.00     0.199 C 
HETATM    7  C   UNL     1      43.081 -15.387   2.849  1.00  0.00     0.299 C 
HETATM    8  N   UNL     1      42.072 -16.159   3.591  1.00  0.00     0.097 N 
HETATM    9  C   UNL     1      40.913 -15.334   3.935  1.00  0.00     0.314 C 
HETATM   10  C   UNL     1      39.517 -15.169   1.764  1.00  0.00     0.209 C 
HETATM   11  O   UNL     1      39.485 -14.506   0.507  1.00  0.00    -0.386 OA
HETATM   12  C   UNL     1      38.640 -13.385   0.308  1.00  0.00     0.195 C 
HETATM   13  C   UNL     1      38.052 -12.675   1.529  1.00  0.00     0.261 C 
ENDROOT
BRANCH   1  14
HETATM   14  C   UNL     1      38.858 -10.857   3.100  1.00  0.00     0.180 C 
HETATM   15  C   UNL     1      38.845 -10.937   4.625  1.00  0.00     0.039 C 
HETATM   16  C   UNL     1      37.571 -10.261   2.541  1.00  0.00     0.039 C 
ENDBRANCH   1  14
BRANCH   8  17
HETATM   17  C   UNL     1      41.775 -17.467   3.010  1.00  0.00     0.311 C 
BRANCH  17  18
HETATM   18  C   UNL     1      42.801 -18.488   3.452  1.00  0.00    -0.030 A 
HETATM   19  C   UNL     1      43.178 -18.562   4.804  1.00  0.00     0.012 A 
HETATM   20  C   UNL     1      44.124 -19.497   5.227  1.00  0.00     0.043 A 
HETATM   21  C   UNL     1      44.699 -20.357   4.296  1.00  0.00     0.116 A 
HETATM   22  F   UNL     1      45.604 -21.254   4.701  1.00  0.00    -0.206 F 
HETATM   23  C   UNL     1      44.348 -20.291   2.953  1.00  0.00     0.043 A 
HETATM   24  C   UNL     1      43.402 -19.356   2.528  1.00  0.00     0.012 A 
ENDBRANCH  17  18
ENDBRANCH   8  17
TORSDOF 3
ENDMDL
