MODEL 1
REMARK VINA RESULT:      -8.6      0.000      0.000
REMARK  3 active torsions:
REMARK  status: ('A' for Active; 'I' for Inactive)
REMARK    1  A    between atoms: C_9  and  C_10 
REMARK       I    between atoms: C_10  and  N_11 
REMARK    2  A    between atoms: N_11  and  C_12 
REMARK    3  A    between atoms: C_20  and  N_21 
ROOT
HETATM    1  C   UNL     1      41.747 -16.170   1.915  1.00  0.00     0.258 C 
HETATM    2  N   UNL     1      43.053 -16.431   2.283  1.00  0.00    -0.305 N 
HETATM    3  O   UNL     1      40.727 -16.478   2.517  1.00  0.00    -0.267 OA
HETATM    4  H   UNL     1      43.804 -16.230   1.644  1.00  0.00     0.170 HD
ENDROOT
BRANCH   2   5
HETATM    5  C   UNL     1      43.435 -17.023   3.475  1.00  0.00     0.163 A 
HETATM    6  N   UNL     1      43.536 -16.393   4.644  1.00  0.00    -0.155 NA
HETATM    7  N   UNL     1      43.933 -17.332   5.509  1.00  0.00    -0.275 N 
HETATM    8  H   UNL     1      44.067 -17.062   6.477  1.00  0.00     0.189 HD
HETATM    9  C   UNL     1      44.120 -18.565   4.947  1.00  0.00     0.064 A 
HETATM   10  C   UNL     1      43.797 -18.400   3.604  1.00  0.00     0.042 A 
HETATM   11  C   UNL     1      44.538 -19.781   5.500  1.00  0.00     0.034 A 
HETATM   12  C   UNL     1      43.893 -19.509   2.739  1.00  0.00     0.053 A 
HETATM   13  C   UNL     1      44.317 -20.740   3.277  1.00  0.00     0.103 A 
HETATM   14  C   UNL     1      44.634 -20.876   4.634  1.00  0.00     0.038 A 
BRANCH  13  15
HETATM   15  N   UNL     1      44.433 -21.903   2.386  1.00  0.00    -0.116 N 
HETATM   16  O   UNL     1      44.781 -22.982   2.885  1.00  0.00    -0.532 OA
HETATM   17  O   UNL     1      44.180 -21.732   1.184  1.00  0.00    -0.532 OA
ENDBRANCH  13  15
ENDBRANCH   2   5
BRANCH   1  18
HETATM   18  C   UNL     1      41.581 -15.458   0.619  1.00  0.00     0.051 A 
HETATM   19  C   UNL     1      42.066 -14.152   0.517  1.00  0.00     0.136 A 
HETATM   20  N   UNL     1      42.002 -13.361  -0.583  1.00  0.00    -0.233 NA
HETATM   21  C   UNL     1      41.423 -13.973  -1.635  1.00  0.00     0.206 A 
HETATM   22  O   UNL     1      41.246 -13.393  -2.855  1.00  0.00    -0.192 OA
HETATM   23  C   UNL     1      40.917 -15.265  -1.674  1.00  0.00     0.047 A 
HETATM   24  N   UNL     1      40.625 -14.289  -3.714  1.00  0.00    -0.130 NA
HETATM   25  C   UNL     1      40.437 -15.407  -3.000  1.00  0.00     0.073 A 
HETATM   26  C   UNL     1      39.787 -16.585  -3.618  1.00  0.00     0.074 C 
HETATM   27  C   UNL     1      40.999 -16.050  -0.511  1.00  0.00     0.036 A 
ENDBRANCH   1  18
TORSDOF 3
ENDMDL
MODEL 2
REMARK VINA RESULT:      -8.5      1.967      7.695
REMARK  3 active torsions:
REMARK  status: ('A' for Active; 'I' for Inactive)
REMARK    1  A    between atoms: C_9  and  C_10 
REMARK       I    between atoms: C_10  and  N_11 
REMARK    2  A    between atoms: N_11  and  C_12 
REMARK    3  A    between atoms: C_20  and  N_21 
ROOT
HETATM    1  C   UNL     1      42.674 -16.368   3.003  1.00  0.00     0.258 C 
HETATM    2  N   UNL     1      41.406 -16.510   2.475  1.00  0.00    -0.305 N 
HETATM    3  O   UNL     1      43.318 -15.334   3.128  1.00  0.00    -0.267 OA
HETATM    4  H   UNL     1      41.029 -17.429   2.316  1.00  0.00     0.170 HD
ENDROOT
BRANCH   2   5
HETATM    5  C   UNL     1      40.595 -15.462   2.071  1.00  0.00     0.163 A 
HETATM    6  N   UNL     1      39.872 -14.696   2.886  1.00  0.00    -0.155 NA
HETATM    7  N   UNL     1      39.250 -13.828   2.082  1.00  0.00    -0.275 N 
HETATM    8  H   UNL     1      38.642 -13.136   2.508  1.00  0.00     0.189 HD
HETATM    9  C   UNL     1      39.521 -14.004   0.753  1.00  0.00     0.064 A 
HETATM   10  C   UNL     1      40.410 -15.074   0.708  1.00  0.00     0.042 A 
HETATM   11  C   UNL     1      39.066 -13.327  -0.383  1.00  0.00     0.034 A 
HETATM   12  C   UNL     1      40.885 -15.511  -0.545  1.00  0.00     0.053 A 
HETATM   13  C   UNL     1      40.433 -14.844  -1.700  1.00  0.00     0.103 A 
HETATM   14  C   UNL     1      39.539 -13.769  -1.623  1.00  0.00     0.038 A 
BRANCH  13  15
HETATM   15  N   UNL     1      40.911 -15.296  -3.015  1.00  0.00    -0.116 N 
HETATM   16  O   UNL     1      41.851 -14.677  -3.533  1.00  0.00    -0.532 OA
HETATM   17  O   UNL     1      40.340 -16.269  -3.529  1.00  0.00    -0.532 OA
ENDBRANCH  13  15
ENDBRANCH   2   5
BRANCH   1  18
HETATM   18  C   UNL     1      43.329 -17.631   3.436  1.00  0.00     0.051 A 
HETATM   19  C   UNL     1      43.874 -17.684   4.721  1.00  0.00     0.136 A 
HETATM   20  N   UNL     1      44.502 -18.751   5.278  1.00  0.00    -0.233 NA
HETATM   21  C   UNL     1      44.542 -19.821   4.459  1.00  0.00     0.206 A 
HETATM   22  O   UNL     1      45.111 -21.014   4.787  1.00  0.00    -0.192 OA
HETATM   23  C   UNL     1      44.027 -19.908   3.173  1.00  0.00     0.047 A 
HETATM   24  N   UNL     1      44.980 -21.903   3.730  1.00  0.00    -0.130 NA
HETATM   25  C   UNL     1      44.327 -21.233   2.771  1.00  0.00     0.073 A 
HETATM   26  C   UNL     1      44.015 -21.892   1.482  1.00  0.00     0.074 C 
HETATM   27  C   UNL     1      43.388 -18.778   2.632  1.00  0.00     0.036 A 
ENDBRANCH   1  18
TORSDOF 3
ENDMDL
MODEL 3
REMARK VINA RESULT:      -8.3      1.096      1.850
REMARK  3 active torsions:
REMARK  status: ('A' for Active; 'I' for Inactive)
REMARK    1  A    between atoms: C_9  and  C_10 
REMARK       I    between atoms: C_10  and  N_11 
REMARK    2  A    between atoms: N_11  and  C_12 
REMARK    3  A    between atoms: C_20  and  N_21 
ROOT
HETATM    1  C   UNL     1      41.699 -15.970   1.353  1.00  0.00     0.258 C 
HETATM    2  N   UNL     1      42.965 -16.385   1.717  1.00  0.00    -0.305 N 
HETATM    3  O   UNL     1      40.673 -16.035   2.019  1.00  0.00    -0.267 OA
HETATM    4  H   UNL     1      43.706 -16.388   1.036  1.00  0.00     0.170 HD
ENDROOT
BRANCH   2   5
HETATM    5  C   UNL     1      43.309 -16.875   2.965  1.00  0.00     0.163 A 
HETATM    6  N   UNL     1      43.367 -16.152   4.082  1.00  0.00    -0.155 NA
HETATM    7  N   UNL     1      43.739 -17.014   5.033  1.00  0.00    -0.275 N 
HETATM    8  H   UNL     1      43.838 -16.665   5.980  1.00  0.00     0.189 HD
HETATM    9  C   UNL     1      43.949 -18.288   4.581  1.00  0.00     0.064 A 
HETATM   10  C   UNL     1      43.671 -18.235   3.218  1.00  0.00     0.042 A 
HETATM   11  C   UNL     1      44.352 -19.452   5.245  1.00  0.00     0.034 A 
HETATM   12  C   UNL     1      43.800 -19.410   2.451  1.00  0.00     0.053 A 
HETATM   13  C   UNL     1      44.211 -20.590   3.102  1.00  0.00     0.103 A 
HETATM   14  C   UNL     1      44.482 -20.613   4.476  1.00  0.00     0.038 A 
BRANCH  13  15
HETATM   15  N   UNL     1      44.362 -21.821   2.313  1.00  0.00    -0.116 N 
HETATM   16  O   UNL     1      44.723 -22.848   2.906  1.00  0.00    -0.532 OA
HETATM   17  O   UNL     1      44.121 -21.757   1.098  1.00  0.00    -0.532 OA
ENDBRANCH  13  15
ENDBRANCH   2   5
BRANCH   1  18
HETATM   18  C   UNL     1      41.581 -15.410  -0.020  1.00  0.00     0.051 A 
HETATM   19  C   UNL     1      41.069 -16.232  -1.026  1.00  0.00     0.136 A 
HETATM   20  N   UNL     1      40.892 -15.885  -2.326  1.00  0.00    -0.233 NA
HETATM   21  C   UNL     1      41.247 -14.611  -2.581  1.00  0.00     0.206 A 
HETATM   22  O   UNL     1      41.157 -14.023  -3.807  1.00  0.00    -0.192 OA
HETATM   23  C   UNL     1      41.750 -13.687  -1.676  1.00  0.00     0.047 A 
HETATM   24  N   UNL     1      41.597 -12.709  -3.730  1.00  0.00    -0.130 NA
HETATM   25  C   UNL     1      41.944 -12.517  -2.450  1.00  0.00     0.073 A 
HETATM   26  C   UNL     1      42.467 -11.203  -2.010  1.00  0.00     0.074 C 
HETATM   27  C   UNL     1      41.923 -14.088  -0.339  1.00  0.00     0.036 A 
ENDBRANCH   1  18
TORSDOF 3
ENDMDL
MODEL 4
REMARK VINA RESULT:      -8.2      1.669      2.033
REMARK  3 active torsions:
REMARK  status: ('A' for Active; 'I' for Inactive)
REMARK    1  A    between atoms: C_9  and  C_10 
REMARK       I    between atoms: C_10  and  N_11 
REMARK    2  A    between atoms: N_11  and  C_12 
REMARK    3  A    between atoms: C_20  and  N_21 
ROOT
HETATM    1  C   UNL     1      41.264 -16.291   2.603  1.00  0.00     0.258 C 
HETATM    2  N   UNL     1      42.618 -16.561   2.652  1.00  0.00    -0.305 N 
HETATM    3  O   UNL     1      40.416 -16.574   3.439  1.00  0.00    -0.267 OA
HETATM    4  H   UNL     1      43.194 -16.383   1.847  1.00  0.00     0.170 HD
ENDROOT
BRANCH   2   5
HETATM    5  C   UNL     1      43.271 -17.136   3.730  1.00  0.00     0.163 A 
HETATM    6  N   UNL     1      43.555 -16.514   4.872  1.00  0.00    -0.155 NA
HETATM    7  N   UNL     1      44.183 -17.430   5.617  1.00  0.00    -0.275 N 
HETATM    8  H   UNL     1      44.486 -17.161   6.547  1.00  0.00     0.189 HD
HETATM    9  C   UNL     1      44.343 -18.639   4.997  1.00  0.00     0.064 A 
HETATM   10  C   UNL     1      43.749 -18.483   3.749  1.00  0.00     0.042 A 
HETATM   11  C   UNL     1      44.949 -19.825   5.425  1.00  0.00     0.034 A 
HETATM   12  C   UNL     1      43.752 -19.572   2.854  1.00  0.00     0.053 A 
HETATM   13  C   UNL     1      44.362 -20.773   3.264  1.00  0.00     0.103 A 
HETATM   14  C   UNL     1      44.951 -20.900   4.529  1.00  0.00     0.038 A 
BRANCH  13  15
HETATM   15  N   UNL     1      44.383 -21.913   2.338  1.00  0.00    -0.116 N 
HETATM   16  O   UNL     1      44.019 -21.717   1.170  1.00  0.00    -0.532 OA
HETATM   17  O   UNL     1      44.762 -23.007   2.784  1.00  0.00    -0.532 OA
ENDBRANCH  13  15
ENDBRANCH   2   5
BRANCH   1  18
HETATM   18  C   UNL     1      40.797 -15.601   1.370  1.00  0.00     0.051 A 
HETATM   19  C   UNL     1      41.496 -15.828   0.183  1.00  0.00     0.136 A 
HETATM   20  N   UNL     1      41.208 -15.287  -1.028  1.00  0.00    -0.233 NA
HETATM   21  C   UNL     1      40.124 -14.487  -1.000  1.00  0.00     0.206 A 
HETATM   22  O   UNL     1      39.629 -13.832  -2.086  1.00  0.00    -0.192 OA
HETATM   23  C   UNL     1      39.334 -14.191   0.102  1.00  0.00     0.047 A 
HETATM   24  N   UNL     1      38.508 -13.099  -1.722  1.00  0.00    -0.130 NA
HETATM   25  C   UNL     1      38.338 -13.324  -0.412  1.00  0.00     0.073 A 
HETATM   26  C   UNL     1      37.216 -12.685   0.314  1.00  0.00     0.074 C 
HETATM   27  C   UNL     1      39.669 -14.770   1.339  1.00  0.00     0.036 A 
ENDBRANCH   1  18
TORSDOF 3
ENDMDL
MODEL 5
REMARK VINA RESULT:      -8.1      3.363      7.915
REMARK  3 active torsions:
REMARK  status: ('A' for Active; 'I' for Inactive)
REMARK    1  A    between atoms: C_9  and  C_10 
REMARK       I    between atoms: C_10  and  N_11 
REMARK    2  A    between atoms: N_11  and  C_12 
REMARK    3  A    between atoms: C_20  and  N_21 
ROOT
HETATM    1  C   UNL     1      42.839 -17.197   4.531  1.00  0.00     0.258 C 
HETATM    2  N   UNL     1      41.550 -16.754   4.307  1.00  0.00    -0.305 N 
HETATM    3  O   UNL     1      43.704 -16.662   5.213  1.00  0.00    -0.267 OA
HETATM    4  H   UNL     1      40.970 -17.220   3.630  1.00  0.00     0.170 HD
ENDROOT
BRANCH   2   5
HETATM    5  C   UNL     1      40.980 -15.644   4.909  1.00  0.00     0.163 A 
HETATM    6  N   UNL     1      40.442 -15.626   6.127  1.00  0.00    -0.155 NA
HETATM    7  N   UNL     1      40.016 -14.370   6.297  1.00  0.00    -0.275 N 
HETATM    8  H   UNL     1      39.572 -14.133   7.178  1.00  0.00     0.189 HD
HETATM    9  C   UNL     1      40.236 -13.555   5.221  1.00  0.00     0.064 A 
HETATM   10  C   UNL     1      40.875 -14.362   4.285  1.00  0.00     0.042 A 
HETATM   11  C   UNL     1      39.929 -12.207   5.002  1.00  0.00     0.034 A 
HETATM   12  C   UNL     1      41.239 -13.806   3.042  1.00  0.00     0.053 A 
HETATM   13  C   UNL     1      40.934 -12.452   2.801  1.00  0.00     0.103 A 
HETATM   14  C   UNL     1      40.290 -11.663   3.764  1.00  0.00     0.038 A 
BRANCH  13  15
HETATM   15  N   UNL     1      41.296 -11.860   1.506  1.00  0.00    -0.116 N 
HETATM   16  O   UNL     1      40.451 -11.158   0.933  1.00  0.00    -0.532 OA
HETATM   17  O   UNL     1      42.428 -12.103   1.062  1.00  0.00    -0.532 OA
ENDBRANCH  13  15
ENDBRANCH   2   5
BRANCH   1  18
HETATM   18  C   UNL     1      43.210 -18.455   3.830  1.00  0.00     0.051 A 
HETATM   19  C   UNL     1      42.973 -18.540   2.456  1.00  0.00     0.136 A 
HETATM   20  N   UNL     1      43.250 -19.605   1.662  1.00  0.00    -0.233 NA
HETATM   21  C   UNL     1      43.823 -20.623   2.334  1.00  0.00     0.206 A 
HETATM   22  O   UNL     1      44.202 -21.799   1.761  1.00  0.00    -0.192 OA
HETATM   23  C   UNL     1      44.128 -20.663   3.687  1.00  0.00     0.047 A 
HETATM   24  N   UNL     1      44.761 -22.630   2.722  1.00  0.00    -0.130 NA
HETATM   25  C   UNL     1      44.717 -21.939   3.869  1.00  0.00     0.073 A 
HETATM   26  C   UNL     1      45.238 -22.538   5.120  1.00  0.00     0.074 C 
HETATM   27  C   UNL     1      43.821 -19.540   4.475  1.00  0.00     0.036 A 
ENDBRANCH   1  18
TORSDOF 3
ENDMDL
MODEL 6
REMARK VINA RESULT:      -8.0      2.147      8.362
REMARK  3 active torsions:
REMARK  status: ('A' for Active; 'I' for Inactive)
REMARK    1  A    between atoms: C_9  and  C_10 
REMARK       I    between atoms: C_10  and  N_11 
REMARK    2  A    between atoms: N_11  and  C_12 
REMARK    3  A    between atoms: C_20  and  N_21 
ROOT
HETATM    1  C   UNL     1      41.532 -16.708   1.310  1.00  0.00     0.258 C 
HETATM    2  N   UNL     1      42.028 -16.381   0.063  1.00  0.00    -0.305 N 
HETATM    3  O   UNL     1      40.458 -16.377   1.796  1.00  0.00    -0.267 OA
HETATM    4  H   UNL     1      42.976 -16.615  -0.177  1.00  0.00     0.170 HD
ENDROOT
BRANCH   2   5
HETATM    5  C   UNL     1      41.331 -15.677  -0.905  1.00  0.00     0.163 A 
HETATM    6  N   UNL     1      40.597 -16.226  -1.871  1.00  0.00    -0.155 NA
HETATM    7  N   UNL     1      40.116 -15.193  -2.569  1.00  0.00    -0.275 N 
HETATM    8  H   UNL     1      39.514 -15.393  -3.361  1.00  0.00     0.189 HD
HETATM    9  C   UNL     1      40.524 -13.971  -2.110  1.00  0.00     0.064 A 
HETATM   10  C   UNL     1      41.326 -14.251  -1.008  1.00  0.00     0.042 A 
HETATM   11  C   UNL     1      40.258 -12.675  -2.566  1.00  0.00     0.034 A 
HETATM   12  C   UNL     1      41.911 -13.181  -0.303  1.00  0.00     0.053 A 
HETATM   13  C   UNL     1      41.660 -11.869  -0.751  1.00  0.00     0.103 A 
HETATM   14  C   UNL     1      40.847 -11.618  -1.863  1.00  0.00     0.038 A 
BRANCH  13  15
HETATM   15  N   UNL     1      42.273 -10.742  -0.033  1.00  0.00    -0.116 N 
HETATM   16  O   UNL     1      41.599 -10.175   0.837  1.00  0.00    -0.532 OA
HETATM   17  O   UNL     1      43.431 -10.426  -0.346  1.00  0.00    -0.532 OA
ENDBRANCH  13  15
ENDBRANCH   2   5
BRANCH   1  18
HETATM   18  C   UNL     1      42.434 -17.534   2.157  1.00  0.00     0.051 A 
HETATM   19  C   UNL     1      42.863 -17.004   3.375  1.00  0.00     0.136 A 
HETATM   20  N   UNL     1      43.681 -17.616   4.269  1.00  0.00    -0.233 NA
HETATM   21  C   UNL     1      44.049 -18.852   3.879  1.00  0.00     0.206 A 
HETATM   22  O   UNL     1      44.861 -19.672   4.603  1.00  0.00    -0.192 OA
HETATM   23  C   UNL     1      43.683 -19.502   2.708  1.00  0.00     0.047 A 
HETATM   24  N   UNL     1      45.040 -20.871   3.926  1.00  0.00    -0.130 NA
HETATM   25  C   UNL     1      44.328 -20.761   2.797  1.00  0.00     0.073 A 
HETATM   26  C   UNL     1      44.298 -21.876   1.823  1.00  0.00     0.074 C 
HETATM   27  C   UNL     1      42.838 -18.831   1.808  1.00  0.00     0.036 A 
ENDBRANCH   1  18
TORSDOF 3
ENDMDL
MODEL 7
REMARK VINA RESULT:      -7.9      3.024      8.096
REMARK  3 active torsions:
REMARK  status: ('A' for Active; 'I' for Inactive)
REMARK    1  A    between atoms: C_9  and  C_10 
REMARK       I    between atoms: C_10  and  N_11 
REMARK    2  A    between atoms: N_11  and  C_12 
REMARK    3  A    between atoms: C_20  and  N_21 
ROOT
HETATM    1  C   UNL     1      42.913 -16.404   2.659  1.00  0.00     0.258 C 
HETATM    2  N   UNL     1      41.600 -16.455   2.232  1.00  0.00    -0.305 N 
HETATM    3  O   UNL     1      43.675 -15.447   2.615  1.00  0.00    -0.267 OA
HETATM    4  H   UNL     1      41.113 -17.335   2.212  1.00  0.00     0.170 HD
ENDROOT
BRANCH   2   5
HETATM    5  C   UNL     1      40.882 -15.373   1.751  1.00  0.00     0.163 A 
HETATM    6  N   UNL     1      40.592 -15.156   0.469  1.00  0.00    -0.155 NA
HETATM    7  N   UNL     1      39.901 -14.012   0.460  1.00  0.00    -0.275 N 
HETATM    8  H   UNL     1      39.570 -13.663  -0.433  1.00  0.00     0.189 HD
HETATM    9  C   UNL     1      39.738 -13.448   1.696  1.00  0.00     0.064 A 
HETATM   10  C   UNL     1      40.371 -14.322   2.574  1.00  0.00     0.042 A 
HETATM   11  C   UNL     1      39.103 -12.269   2.099  1.00  0.00     0.034 A 
HETATM   12  C   UNL     1      40.382 -14.015   3.950  1.00  0.00     0.053 A 
HETATM   13  C   UNL     1      39.752 -12.829   4.374  1.00  0.00     0.103 A 
HETATM   14  C   UNL     1      39.121 -11.969   3.466  1.00  0.00     0.038 A 
BRANCH  13  15
HETATM   15  N   UNL     1      39.765 -12.488   5.804  1.00  0.00    -0.116 N 
HETATM   16  O   UNL     1      38.677 -12.425   6.393  1.00  0.00    -0.532 OA
HETATM   17  O   UNL     1      40.866 -12.281   6.334  1.00  0.00    -0.532 OA
ENDBRANCH  13  15
ENDBRANCH   2   5
BRANCH   1  18
HETATM   18  C   UNL     1      43.454 -17.677   3.205  1.00  0.00     0.051 A 
HETATM   19  C   UNL     1      43.849 -17.705   4.545  1.00  0.00     0.136 A 
HETATM   20  N   UNL     1      44.359 -18.776   5.205  1.00  0.00    -0.233 NA
HETATM   21  C   UNL     1      44.440 -19.877   4.432  1.00  0.00     0.206 A 
HETATM   22  O   UNL     1      44.911 -21.080   4.862  1.00  0.00    -0.192 OA
HETATM   23  C   UNL     1      44.068 -19.990   3.099  1.00  0.00     0.047 A 
HETATM   24  N   UNL     1      44.858 -22.003   3.826  1.00  0.00    -0.130 NA
HETATM   25  C   UNL     1      44.348 -21.342   2.778  1.00  0.00     0.073 A 
HETATM   26  C   UNL     1      44.152 -22.036   1.484  1.00  0.00     0.074 C 
HETATM   27  C   UNL     1      43.548 -18.856   2.452  1.00  0.00     0.036 A 
ENDBRANCH   1  18
TORSDOF 3
ENDMDL
MODEL 8
REMARK VINA RESULT:      -7.9      2.653      3.509
REMARK  3 active torsions:
REMARK  status: ('A' for Active; 'I' for Inactive)
REMARK    1  A    between atoms: C_9  and  C_10 
REMARK       I    between atoms: C_10  and  N_11 
REMARK    2  A    between atoms: N_11  and  C_12 
REMARK    3  A    between atoms: C_20  and  N_21 
ROOT
HETATM    1  C   UNL     1      42.313 -16.467   1.677  1.00  0.00     0.258 C 
HETATM    2  N   UNL     1      42.078 -17.821   1.817  1.00  0.00    -0.305 N 
HETATM    3  O   UNL     1      43.270 -15.829   2.095  1.00  0.00    -0.267 OA
HETATM    4  H   UNL     1      41.195 -18.209   1.531  1.00  0.00     0.170 HD
ENDROOT
BRANCH   2   5
HETATM    5  C   UNL     1      42.958 -18.720   2.396  1.00  0.00     0.163 A 
HETATM    6  N   UNL     1      43.628 -19.665   1.739  1.00  0.00    -0.155 NA
HETATM    7  N   UNL     1      44.345 -20.295   2.676  1.00  0.00    -0.275 N 
HETATM    8  H   UNL     1      44.944 -21.059   2.383  1.00  0.00     0.189 HD
HETATM    9  C   UNL     1      44.158 -19.810   3.941  1.00  0.00     0.064 A 
HETATM   10  C   UNL     1      43.250 -18.766   3.794  1.00  0.00     0.042 A 
HETATM   11  C   UNL     1      44.701 -20.199   5.171  1.00  0.00     0.034 A 
HETATM   12  C   UNL     1      42.844 -18.052   4.940  1.00  0.00     0.053 A 
HETATM   13  C   UNL     1      43.376 -18.432   6.187  1.00  0.00     0.103 A 
HETATM   14  C   UNL     1      44.290 -19.487   6.303  1.00  0.00     0.038 A 
BRANCH  13  15
HETATM   15  N   UNL     1      42.953 -17.705   7.392  1.00  0.00    -0.116 N 
HETATM   16  O   UNL     1      43.652 -17.815   8.410  1.00  0.00    -0.532 OA
HETATM   17  O   UNL     1      41.918 -17.026   7.319  1.00  0.00    -0.532 OA
ENDBRANCH  13  15
ENDBRANCH   2   5
BRANCH   1  18
HETATM   18  C   UNL     1      41.256 -15.709   0.956  1.00  0.00     0.051 A 
HETATM   19  C   UNL     1      40.140 -15.282   1.680  1.00  0.00     0.136 A 
HETATM   20  N   UNL     1      39.088 -14.581   1.186  1.00  0.00    -0.233 NA
HETATM   21  C   UNL     1      39.220 -14.294  -0.123  1.00  0.00     0.206 A 
HETATM   22  O   UNL     1      38.303 -13.595  -0.848  1.00  0.00    -0.192 OA
HETATM   23  C   UNL     1      40.278 -14.640  -0.952  1.00  0.00     0.047 A 
HETATM   24  N   UNL     1      38.739 -13.468  -2.160  1.00  0.00    -0.130 NA
HETATM   25  C   UNL     1      39.924 -14.093  -2.210  1.00  0.00     0.073 A 
HETATM   26  C   UNL     1      40.681 -14.152  -3.481  1.00  0.00     0.074 C 
HETATM   27  C   UNL     1      41.346 -15.370  -0.402  1.00  0.00     0.036 A 
ENDBRANCH   1  18
TORSDOF 3
ENDMDL
MODEL 9
REMARK VINA RESULT:      -7.7      2.263      2.419
REMARK  3 active torsions:
REMARK  status: ('A' for Active; 'I' for Inactive)
REMARK    1  A    between atoms: C_9  and  C_10 
REMARK       I    between atoms: C_10  and  N_11 
REMARK    2  A    between atoms: N_11  and  C_12 
REMARK    3  A    between atoms: C_20  and  N_21 
ROOT
HETATM    1  C   UNL     1      40.976 -14.943   2.395  1.00  0.00     0.258 C 
HETATM    2  N   UNL     1      40.437 -15.895   3.238  1.00  0.00    -0.305 N 
HETATM    3  O   UNL     1      42.026 -14.330   2.536  1.00  0.00    -0.267 OA
HETATM    4  H   UNL     1      39.507 -16.242   3.074  1.00  0.00     0.170 HD
ENDROOT
BRANCH   2   5
HETATM    5  C   UNL     1      41.060 -16.392   4.370  1.00  0.00     0.163 A 
HETATM    6  N   UNL     1      40.872 -15.938   5.608  1.00  0.00    -0.155 NA
HETATM    7  N   UNL     1      41.665 -16.692   6.376  1.00  0.00    -0.275 N 
HETATM    8  H   UNL     1      41.669 -16.514   7.375  1.00  0.00     0.189 HD
HETATM    9  C   UNL     1      42.391 -17.623   5.685  1.00  0.00     0.064 A 
HETATM   10  C   UNL     1      42.015 -17.456   4.356  1.00  0.00     0.042 A 
HETATM   11  C   UNL     1      43.326 -18.572   6.113  1.00  0.00     0.034 A 
HETATM   12  C   UNL     1      42.600 -18.281   3.375  1.00  0.00     0.053 A 
HETATM   13  C   UNL     1      43.547 -19.239   3.786  1.00  0.00     0.103 A 
HETATM   14  C   UNL     1      43.905 -19.385   5.132  1.00  0.00     0.038 A 
BRANCH  13  15
HETATM   15  N   UNL     1      44.175 -20.099   2.773  1.00  0.00    -0.116 N 
HETATM   16  O   UNL     1      45.275 -20.602   3.042  1.00  0.00    -0.532 OA
HETATM   17  O   UNL     1      43.566 -20.266   1.706  1.00  0.00    -0.532 OA
ENDBRANCH  13  15
ENDBRANCH   2   5
BRANCH   1  18
HETATM   18  C   UNL     1      40.156 -14.616   1.198  1.00  0.00     0.051 A 
HETATM   19  C   UNL     1      38.807 -14.307   1.386  1.00  0.00     0.136 A 
HETATM   20  N   UNL     1      37.918 -13.985   0.412  1.00  0.00    -0.233 NA
HETATM   21  C   UNL     1      38.472 -13.962  -0.815  1.00  0.00     0.206 A 
HETATM   22  O   UNL     1      37.792 -13.660  -1.956  1.00  0.00    -0.192 OA
HETATM   23  C   UNL     1      39.795 -14.229  -1.139  1.00  0.00     0.047 A 
HETATM   24  N   UNL     1      38.651 -13.722  -3.045  1.00  0.00    -0.130 NA
HETATM   25  C   UNL     1      39.847 -14.058  -2.545  1.00  0.00     0.073 A 
HETATM   26  C   UNL     1      41.013 -14.215  -3.444  1.00  0.00     0.074 C 
HETATM   27  C   UNL     1      40.683 -14.563  -0.101  1.00  0.00     0.036 A 
ENDBRANCH   1  18
TORSDOF 3
ENDMDL
MODEL 10
REMARK VINA RESULT:      -7.4      4.284      5.908
REMARK  3 active torsions:
REMARK  status: ('A' for Active; 'I' for Inactive)
REMARK    1  A    between atoms: C_9  and  C_10 
REMARK       I    between atoms: C_10  and  N_11 
REMARK    2  A    between atoms: N_11  and  C_12 
REMARK    3  A    between atoms: C_20  and  N_21 
ROOT
HETATM    1  C   UNL     1      40.283 -14.606   3.086  1.00  0.00     0.258 C 
HETATM    2  N   UNL     1      41.635 -14.863   2.965  1.00  0.00    -0.305 N 
HETATM    3  O   UNL     1      39.364 -15.144   2.481  1.00  0.00    -0.267 OA
HETATM    4  H   UNL     1      42.301 -14.270   3.431  1.00  0.00     0.170 HD
ENDROOT
BRANCH   2   5
HETATM    5  C   UNL     1      42.182 -15.865   2.181  1.00  0.00     0.163 A 
HETATM    6  N   UNL     1      42.089 -15.935   0.855  1.00  0.00    -0.155 NA
HETATM    7  N   UNL     1      42.748 -17.049   0.521  1.00  0.00    -0.275 N 
HETATM    8  H   UNL     1      42.806 -17.292  -0.462  1.00  0.00     0.189 HD
HETATM    9  C   UNL     1      43.262 -17.735   1.587  1.00  0.00     0.064 A 
HETATM   10  C   UNL     1      42.910 -16.979   2.702  1.00  0.00     0.042 A 
HETATM   11  C   UNL     1      43.988 -18.929   1.658  1.00  0.00     0.034 A 
HETATM   12  C   UNL     1      43.299 -17.430   3.979  1.00  0.00     0.053 A 
HETATM   13  C   UNL     1      44.026 -18.633   4.071  1.00  0.00     0.103 A 
HETATM   14  C   UNL     1      44.367 -19.372   2.930  1.00  0.00     0.038 A 
BRANCH  13  15
HETATM   15  N   UNL     1      44.428 -19.123   5.397  1.00  0.00    -0.116 N 
HETATM   16  O   UNL     1      45.110 -18.372   6.108  1.00  0.00    -0.532 OA
HETATM   17  O   UNL     1      44.062 -20.262   5.722  1.00  0.00    -0.532 OA
ENDBRANCH  13  15
ENDBRANCH   2   5
BRANCH   1  18
HETATM   18  C   UNL     1      39.923 -13.526   4.044  1.00  0.00     0.051 A 
HETATM   19  C   UNL     1      40.001 -13.804   5.410  1.00  0.00     0.136 A 
HETATM   20  N   UNL     1      39.714 -12.941   6.417  1.00  0.00    -0.233 NA
HETATM   21  C   UNL     1      39.349 -11.722   5.975  1.00  0.00     0.206 A 
HETATM   22  O   UNL     1      39.017 -10.681   6.787  1.00  0.00    -0.192 OA
HETATM   23  C   UNL     1      39.247 -11.310   4.653  1.00  0.00     0.047 A 
HETATM   24  N   UNL     1      38.695  -9.570   6.019  1.00  0.00    -0.130 NA
HETATM   25  C   UNL     1      38.840  -9.956   4.745  1.00  0.00     0.073 A 
HETATM   26  C   UNL     1      38.570  -9.004   3.643  1.00  0.00     0.074 C 
HETATM   27  C   UNL     1      39.549 -12.237   3.639  1.00  0.00     0.036 A 
ENDBRANCH   1  18
TORSDOF 3
ENDMDL
