MODEL 1
REMARK VINA RESULT:      -8.0      0.000      0.000
REMARK  10 active torsions:
REMARK  status: ('A' for Active; 'I' for Inactive)
REMARK    1  A    between atoms: C_2  and  C_3 
REMARK    2  A    between atoms: C_3  and  C_4 
REMARK    3  A    between atoms: N_7  and  C_9 
REMARK    4  A    between atoms: C_9  and  C_10 
REMARK    5  A    between atoms: C_11  and  O_12 
REMARK    6  A    between atoms: C_13  and  O_14 
REMARK    7  A    between atoms: O_14  and  C_15 
REMARK    8  A    between atoms: N_25  and  C_26 
REMARK    9  A    between atoms: C_26  and  C_27 
REMARK   10  A    between atoms: C_27  and  C_28 
ROOT
HETATM    1  C   UNL     1      40.572 -15.707   1.045  1.00  0.00     0.026 C 
HETATM    2  C   UNL     1      40.438 -16.587   2.306  1.00  0.00     0.035 C 
HETATM    3  C   UNL     1      41.760 -17.075   2.875  1.00  0.00     0.235 C 
HETATM    4  N   UNL     1      42.603 -17.732   1.820  1.00  0.00    -0.067 N 
HETATM    5  H   UNL     1      42.199 -18.669   1.644  1.00  0.00     0.280 HD
HETATM    6  C   UNL     1      42.703 -17.031   0.497  1.00  0.00     0.235 C 
HETATM    7  C   UNL     1      41.349 -16.534   0.008  1.00  0.00     0.035 C 
ENDROOT
BRANCH   1   8
HETATM    8  C   UNL     1      41.107 -14.246   1.272  1.00  0.00     0.119 A 
HETATM    9  N   UNL     1      42.516 -14.204   1.585  1.00  0.00    -0.324 N 
HETATM   10  C   UNL     1      42.759 -13.660   2.829  1.00  0.00     0.326 A 
HETATM   11  H   UNL     1      43.260 -14.097   0.904  1.00  0.00     0.165 HD
HETATM   12  O   UNL     1      43.893 -13.501   3.239  1.00  0.00    -0.247 OA
HETATM   13  N   UNL     1      41.575 -13.406   3.442  1.00  0.00    -0.268 N 
HETATM   14  C   UNL     1      40.536 -13.687   2.592  1.00  0.00     0.256 A 
HETATM   15  O   UNL     1      39.345 -13.569   2.838  1.00  0.00    -0.270 OA
BRANCH   8  16
HETATM   16  C   UNL     1      40.764 -13.308   0.094  1.00  0.00     0.037 C 
HETATM   17  C   UNL     1      41.834 -13.206  -0.992  1.00  0.00     0.008 C 
ENDBRANCH   8  16
BRANCH  13  18
HETATM   18  C   UNL     1      41.353 -12.944   4.807  1.00  0.00     0.142 C 
BRANCH  18  19
HETATM   19  C   UNL     1      42.332 -13.446   5.870  1.00  0.00     0.068 C 
BRANCH  19  20
HETATM   20  C   UNL     1      42.145 -14.910   6.132  1.00  0.00     0.010 A 
HETATM   21  S   UNL     1      40.586 -15.625   6.016  1.00  0.00    -0.085 SA
HETATM   22  C   UNL     1      41.265 -17.138   6.437  1.00  0.00     0.166 A 
HETATM   23  N   UNL     1      42.560 -17.144   6.660  1.00  0.00    -0.258 NA
HETATM   24  C   UNL     1      43.078 -15.873   6.480  1.00  0.00     0.044 A 
HETATM   25  C   UNL     1      44.540 -15.677   6.677  1.00  0.00     0.071 C 
ENDBRANCH  19  20
ENDBRANCH  18  19
ENDBRANCH  13  18
ENDBRANCH   1   8
BRANCH   4  26
HETATM   26  C   UNL     1      43.994 -18.038   2.351  1.00  0.00     0.276 C 
BRANCH  26  27
HETATM   27  C   UNL     1      44.211 -19.469   2.742  1.00  0.00     0.004 A 
HETATM   28  C   UNL     1      44.553 -19.806   4.053  1.00  0.00     0.107 A 
HETATM   29  C   UNL     1      44.607 -21.138   4.462  1.00  0.00     0.102 A 
HETATM   30  C   UNL     1      44.413 -22.163   3.543  1.00  0.00     0.039 A 
HETATM   31  C   UNL     1      44.111 -21.845   2.219  1.00  0.00     0.003 A 
HETATM   32  C   UNL     1      43.992 -20.508   1.823  1.00  0.00     0.012 A 
BRANCH  28  33
HETATM   33  O   UNL     1      44.853 -18.803   4.941  1.00  0.00    -0.357 OA
HETATM   34  H   UNL     1      45.834 -18.814   5.008  1.00  0.00     0.218 HD
ENDBRANCH  28  33
BRANCH  29  35
HETATM   35  O   UNL     1      44.876 -21.426   5.771  1.00  0.00    -0.349 OA
BRANCH  35  36
HETATM   36  C   UNL     1      43.658 -21.521   6.531  1.00  0.00     0.171 C 
HETATM   37  C   UNL     1      43.708 -20.562   7.703  1.00  0.00     0.034 C 
ENDBRANCH  35  36
ENDBRANCH  29  35
ENDBRANCH  26  27
ENDBRANCH   4  26
TORSDOF 10
ENDMDL
MODEL 2
REMARK VINA RESULT:      -8.0      3.331      7.635
REMARK  10 active torsions:
REMARK  status: ('A' for Active; 'I' for Inactive)
REMARK    1  A    between atoms: C_2  and  C_3 
REMARK    2  A    between atoms: C_3  and  C_4 
REMARK    3  A    between atoms: N_7  and  C_9 
REMARK    4  A    between atoms: C_9  and  C_10 
REMARK    5  A    between atoms: C_11  and  O_12 
REMARK    6  A    between atoms: C_13  and  O_14 
REMARK    7  A    between atoms: O_14  and  C_15 
REMARK    8  A    between atoms: N_25  and  C_26 
REMARK    9  A    between atoms: C_26  and  C_27 
REMARK   10  A    between atoms: C_27  and  C_28 
ROOT
HETATM    1  C   UNL     1      40.748 -14.006   3.602  1.00  0.00     0.026 C 
HETATM    2  C   UNL     1      39.862 -14.937   2.747  1.00  0.00     0.035 C 
HETATM    3  C   UNL     1      40.351 -15.134   1.322  1.00  0.00     0.235 C 
HETATM    4  N   UNL     1      40.603 -13.820   0.640  1.00  0.00    -0.067 N 
HETATM    5  H   UNL     1      39.680 -13.421   0.393  1.00  0.00     0.280 HD
HETATM    6  C   UNL     1      41.345 -12.780   1.426  1.00  0.00     0.235 C 
HETATM    7  C   UNL     1      40.831 -12.664   2.855  1.00  0.00     0.035 C 
ENDROOT
BRANCH   1   8
HETATM    8  C   UNL     1      42.127 -14.597   4.071  1.00  0.00     0.119 A 
HETATM    9  N   UNL     1      43.014 -14.898   2.971  1.00  0.00    -0.324 N 
HETATM   10  C   UNL     1      43.335 -16.238   2.911  1.00  0.00     0.326 A 
HETATM   11  H   UNL     1      43.705 -14.262   2.591  1.00  0.00     0.165 HD
HETATM   12  O   UNL     1      44.110 -16.666   2.077  1.00  0.00    -0.247 OA
HETATM   13  N   UNL     1      42.635 -16.906   3.864  1.00  0.00    -0.268 N 
HETATM   14  C   UNL     1      41.916 -16.021   4.625  1.00  0.00     0.256 A 
HETATM   15  O   UNL     1      41.182 -16.300   5.562  1.00  0.00    -0.270 OA
BRANCH   8  16
HETATM   16  C   UNL     1      42.819 -13.704   5.123  1.00  0.00     0.037 C 
HETATM   17  C   UNL     1      44.046 -14.319   5.795  1.00  0.00     0.008 C 
ENDBRANCH   8  16
BRANCH  13  18
HETATM   18  C   UNL     1      42.570 -18.346   4.085  1.00  0.00     0.142 C 
BRANCH  18  19
HETATM   19  C   UNL     1      43.894 -19.058   4.370  1.00  0.00     0.068 C 
BRANCH  19  20
HETATM   20  C   UNL     1      44.055 -20.271   3.505  1.00  0.00     0.010 A 
HETATM   21  S   UNL     1      43.587 -20.233   1.851  1.00  0.00    -0.085 SA
HETATM   22  C   UNL     1      44.073 -21.865   1.691  1.00  0.00     0.166 A 
HETATM   23  N   UNL     1      44.550 -22.432   2.776  1.00  0.00    -0.258 NA
HETATM   24  C   UNL     1      44.553 -21.525   3.822  1.00  0.00     0.044 A 
HETATM   25  C   UNL     1      45.071 -21.977   5.141  1.00  0.00     0.071 C 
ENDBRANCH  19  20
ENDBRANCH  18  19
ENDBRANCH  13  18
ENDBRANCH   1   8
BRANCH   4  26
HETATM   26  C   UNL     1      41.274 -14.030  -0.708  1.00  0.00     0.276 C 
BRANCH  26  27
HETATM   27  C   UNL     1      40.384 -14.619  -1.761  1.00  0.00     0.004 A 
HETATM   28  C   UNL     1      39.154 -14.034  -2.063  1.00  0.00     0.107 A 
HETATM   29  C   UNL     1      38.391 -14.481  -3.142  1.00  0.00     0.102 A 
HETATM   30  C   UNL     1      38.798 -15.586  -3.880  1.00  0.00     0.039 A 
HETATM   31  C   UNL     1      40.006 -16.210  -3.565  1.00  0.00     0.003 A 
HETATM   32  C   UNL     1      40.804 -15.720  -2.526  1.00  0.00     0.012 A 
BRANCH  28  33
HETATM   33  O   UNL     1      38.691 -13.012  -1.273  1.00  0.00    -0.357 OA
HETATM   34  H   UNL     1      39.302 -12.995  -0.503  1.00  0.00     0.218 HD
ENDBRANCH  28  33
BRANCH  29  35
HETATM   35  O   UNL     1      37.225 -13.836  -3.450  1.00  0.00    -0.349 OA
BRANCH  35  36
HETATM   36  C   UNL     1      36.478 -14.578  -4.430  1.00  0.00     0.171 C 
HETATM   37  C   UNL     1      35.325 -13.738  -4.940  1.00  0.00     0.034 C 
ENDBRANCH  35  36
ENDBRANCH  29  35
ENDBRANCH  26  27
ENDBRANCH   4  26
TORSDOF 10
ENDMDL
MODEL 3
REMARK VINA RESULT:      -7.9      3.251      6.000
REMARK  10 active torsions:
REMARK  status: ('A' for Active; 'I' for Inactive)
REMARK    1  A    between atoms: C_2  and  C_3 
REMARK    2  A    between atoms: C_3  and  C_4 
REMARK    3  A    between atoms: N_7  and  C_9 
REMARK    4  A    between atoms: C_9  and  C_10 
REMARK    5  A    between atoms: C_11  and  O_12 
REMARK    6  A    between atoms: C_13  and  O_14 
REMARK    7  A    between atoms: O_14  and  C_15 
REMARK    8  A    between atoms: N_25  and  C_26 
REMARK    9  A    between atoms: C_26  and  C_27 
REMARK   10  A    between atoms: C_27  and  C_28 
ROOT
HETATM    1  C   UNL     1      41.500 -13.203   1.078  1.00  0.00     0.026 C 
HETATM    2  C   UNL     1      41.540 -14.539   0.306  1.00  0.00     0.035 C 
HETATM    3  C   UNL     1      41.065 -15.742   1.104  1.00  0.00     0.235 C 
HETATM    4  N   UNL     1      41.773 -15.838   2.426  1.00  0.00    -0.067 N 
HETATM    5  H   UNL     1      42.727 -16.192   2.238  1.00  0.00     0.280 HD
HETATM    6  C   UNL     1      41.912 -14.569   3.214  1.00  0.00     0.235 C 
HETATM    7  C   UNL     1      42.351 -13.398   2.345  1.00  0.00     0.035 C 
ENDROOT
BRANCH   1   8
HETATM    8  C   UNL     1      40.076 -12.584   1.319  1.00  0.00     0.119 A 
HETATM    9  N   UNL     1      39.069 -13.579   1.605  1.00  0.00    -0.324 N 
HETATM   10  C   UNL     1      38.059 -13.586   0.665  1.00  0.00     0.326 A 
HETATM   11  H   UNL     1      38.808 -13.893   2.533  1.00  0.00     0.165 HD
HETATM   12  O   UNL     1      37.101 -14.328   0.771  1.00  0.00    -0.247 OA
HETATM   13  N   UNL     1      38.363 -12.703  -0.320  1.00  0.00    -0.268 N 
HETATM   14  C   UNL     1      39.520 -12.035  -0.012  1.00  0.00     0.256 A 
HETATM   15  O   UNL     1      40.066 -11.176  -0.690  1.00  0.00    -0.270 OA
BRANCH   8  16
HETATM   16  C   UNL     1      40.093 -11.477   2.396  1.00  0.00     0.037 C 
HETATM   17  C   UNL     1      39.153 -11.702   3.579  1.00  0.00     0.008 C 
ENDBRANCH   8  16
BRANCH  13  18
HETATM   18  C   UNL     1      37.647 -12.470  -1.568  1.00  0.00     0.142 C 
BRANCH  18  19
HETATM   19  C   UNL     1      38.486 -12.439  -2.847  1.00  0.00     0.068 C 
BRANCH  19  20
HETATM   20  C   UNL     1      38.812 -13.825  -3.316  1.00  0.00     0.010 A 
HETATM   21  S   UNL     1      37.556 -14.947  -3.663  1.00  0.00    -0.085 SA
HETATM   22  C   UNL     1      38.735 -16.117  -4.074  1.00  0.00     0.166 A 
HETATM   23  N   UNL     1      39.986 -15.733  -3.966  1.00  0.00    -0.258 NA
HETATM   24  C   UNL     1      40.044 -14.417  -3.541  1.00  0.00     0.044 A 
HETATM   25  C   UNL     1      41.384 -13.794  -3.369  1.00  0.00     0.071 C 
ENDBRANCH  19  20
ENDBRANCH  18  19
ENDBRANCH  13  18
ENDBRANCH   1   8
BRANCH   4  26
HETATM   26  C   UNL     1      41.154 -16.923   3.292  1.00  0.00     0.276 C 
BRANCH  26  27
HETATM   27  C   UNL     1      42.140 -17.885   3.884  1.00  0.00     0.004 A 
HETATM   28  C   UNL     1      42.983 -18.635   3.063  1.00  0.00     0.107 A 
HETATM   29  C   UNL     1      44.004 -19.416   3.604  1.00  0.00     0.102 A 
HETATM   30  C   UNL     1      44.141 -19.538   4.981  1.00  0.00     0.039 A 
HETATM   31  C   UNL     1      43.280 -18.827   5.818  1.00  0.00     0.003 A 
HETATM   32  C   UNL     1      42.298 -17.992   5.275  1.00  0.00     0.012 A 
BRANCH  28  33
HETATM   33  O   UNL     1      42.787 -18.607   1.705  1.00  0.00    -0.357 OA
HETATM   34  H   UNL     1      43.250 -19.408   1.369  1.00  0.00     0.218 HD
ENDBRANCH  28  33
BRANCH  29  35
HETATM   35  O   UNL     1      44.855 -20.080   2.764  1.00  0.00    -0.349 OA
BRANCH  35  36
HETATM   36  C   UNL     1      44.609 -21.497   2.808  1.00  0.00     0.171 C 
HETATM   37  C   UNL     1      43.959 -21.946   1.515  1.00  0.00     0.034 C 
ENDBRANCH  35  36
ENDBRANCH  29  35
ENDBRANCH  26  27
ENDBRANCH   4  26
TORSDOF 10
ENDMDL
MODEL 4
REMARK VINA RESULT:      -7.7      2.684      5.764
REMARK  10 active torsions:
REMARK  status: ('A' for Active; 'I' for Inactive)
REMARK    1  A    between atoms: C_2  and  C_3 
REMARK    2  A    between atoms: C_3  and  C_4 
REMARK    3  A    between atoms: N_7  and  C_9 
REMARK    4  A    between atoms: C_9  and  C_10 
REMARK    5  A    between atoms: C_11  and  O_12 
REMARK    6  A    between atoms: C_13  and  O_14 
REMARK    7  A    between atoms: O_14  and  C_15 
REMARK    8  A    between atoms: N_25  and  C_26 
REMARK    9  A    between atoms: C_26  and  C_27 
REMARK   10  A    between atoms: C_27  and  C_28 
ROOT
HETATM    1  C   UNL     1      41.114 -12.892   4.066  1.00  0.00     0.026 C 
HETATM    2  C   UNL     1      42.518 -13.525   4.166  1.00  0.00     0.035 C 
HETATM    3  C   UNL     1      42.531 -14.938   4.725  1.00  0.00     0.235 C 
HETATM    4  N   UNL     1      41.785 -15.023   6.025  1.00  0.00    -0.067 N 
HETATM    5  H   UNL     1      42.389 -14.603   6.754  1.00  0.00     0.280 HD
HETATM    6  C   UNL     1      40.457 -14.328   6.091  1.00  0.00     0.235 C 
HETATM    7  C   UNL     1      40.506 -12.935   5.478  1.00  0.00     0.035 C 
ENDROOT
BRANCH   1   8
HETATM    8  C   UNL     1      40.186 -13.440   2.922  1.00  0.00     0.119 A 
HETATM    9  N   UNL     1      39.800 -14.817   3.120  1.00  0.00    -0.324 N 
HETATM   10  C   UNL     1      40.240 -15.635   2.100  1.00  0.00     0.326 A 
HETATM   11  H   UNL     1      38.960 -15.123   3.598  1.00  0.00     0.165 HD
HETATM   12  O   UNL     1      39.965 -16.820   2.076  1.00  0.00    -0.247 OA
HETATM   13  N   UNL     1      40.999 -14.907   1.243  1.00  0.00    -0.268 N 
HETATM   14  C   UNL     1      41.003 -13.589   1.622  1.00  0.00     0.256 A 
HETATM   15  O   UNL     1      41.592 -12.675   1.063  1.00  0.00    -0.270 OA
BRANCH   8  16
HETATM   16  C   UNL     1      38.954 -12.539   2.686  1.00  0.00     0.037 C 
HETATM   17  C   UNL     1      39.218 -11.037   2.771  1.00  0.00     0.008 C 
ENDBRANCH   8  16
BRANCH  13  18
HETATM   18  C   UNL     1      41.763 -15.382   0.095  1.00  0.00     0.142 C 
BRANCH  18  19
HETATM   19  C   UNL     1      40.964 -15.749  -1.157  1.00  0.00     0.068 C 
BRANCH  19  20
HETATM   20  C   UNL     1      40.574 -14.526  -1.930  1.00  0.00     0.010 A 
HETATM   21  S   UNL     1      41.604 -13.903  -3.157  1.00  0.00    -0.085 SA
HETATM   22  C   UNL     1      40.477 -12.650  -3.448  1.00  0.00     0.166 A 
HETATM   23  N   UNL     1      39.400 -12.661  -2.697  1.00  0.00    -0.258 NA
HETATM   24  C   UNL     1      39.439 -13.738  -1.827  1.00  0.00     0.044 A 
HETATM   25  C   UNL     1      38.294 -13.930  -0.896  1.00  0.00     0.071 C 
ENDBRANCH  19  20
ENDBRANCH  18  19
ENDBRANCH  13  18
ENDBRANCH   1   8
BRANCH   4  26
HETATM   26  C   UNL     1      41.637 -16.468   6.472  1.00  0.00     0.276 C 
BRANCH  26  27
HETATM   27  C   UNL     1      42.782 -17.358   6.089  1.00  0.00     0.004 A 
HETATM   28  C   UNL     1      42.725 -18.132   4.929  1.00  0.00     0.107 A 
HETATM   29  C   UNL     1      43.839 -18.843   4.485  1.00  0.00     0.102 A 
HETATM   30  C   UNL     1      45.003 -18.870   5.243  1.00  0.00     0.039 A 
HETATM   31  C   UNL     1      45.064 -18.135   6.428  1.00  0.00     0.003 A 
HETATM   32  C   UNL     1      43.969 -17.369   6.840  1.00  0.00     0.012 A 
BRANCH  28  33
HETATM   33  O   UNL     1      41.545 -18.199   4.230  1.00  0.00    -0.357 OA
HETATM   34  H   UNL     1      40.913 -18.629   4.849  1.00  0.00     0.218 HD
ENDBRANCH  28  33
BRANCH  29  35
HETATM   35  O   UNL     1      43.767 -19.532   3.306  1.00  0.00    -0.349 OA
BRANCH  35  36
HETATM   36  C   UNL     1      44.723 -20.607   3.286  1.00  0.00     0.171 C 
HETATM   37  C   UNL     1      44.351 -21.605   2.208  1.00  0.00     0.034 C 
ENDBRANCH  35  36
ENDBRANCH  29  35
ENDBRANCH  26  27
ENDBRANCH   4  26
TORSDOF 10
ENDMDL
MODEL 5
REMARK VINA RESULT:      -7.7      3.782      6.309
REMARK  10 active torsions:
REMARK  status: ('A' for Active; 'I' for Inactive)
REMARK    1  A    between atoms: C_2  and  C_3 
REMARK    2  A    between atoms: C_3  and  C_4 
REMARK    3  A    between atoms: N_7  and  C_9 
REMARK    4  A    between atoms: C_9  and  C_10 
REMARK    5  A    between atoms: C_11  and  O_12 
REMARK    6  A    between atoms: C_13  and  O_14 
REMARK    7  A    between atoms: O_14  and  C_15 
REMARK    8  A    between atoms: N_25  and  C_26 
REMARK    9  A    between atoms: C_26  and  C_27 
REMARK   10  A    between atoms: C_27  and  C_28 
ROOT
HETATM    1  C   UNL     1      40.222 -13.523   0.652  1.00  0.00     0.026 C 
HETATM    2  C   UNL     1      41.714 -13.915   0.617  1.00  0.00     0.035 C 
HETATM    3  C   UNL     1      41.970 -15.414   0.601  1.00  0.00     0.235 C 
HETATM    4  N   UNL     1      41.234 -16.108   1.711  1.00  0.00    -0.067 N 
HETATM    5  H   UNL     1      41.746 -15.912   2.589  1.00  0.00     0.280 HD
HETATM    6  C   UNL     1      39.804 -15.712   1.928  1.00  0.00     0.235 C 
HETATM    7  C   UNL     1      39.614 -14.201   1.891  1.00  0.00     0.035 C 
ENDROOT
BRANCH   1   8
HETATM    8  C   UNL     1      39.419 -13.728  -0.684  1.00  0.00     0.119 A 
HETATM    9  N   UNL     1      39.878 -14.863  -1.449  1.00  0.00    -0.324 N 
HETATM   10  C   UNL     1      40.351 -14.499  -2.693  1.00  0.00     0.326 A 
HETATM   11  H   UNL     1      39.503 -15.802  -1.378  1.00  0.00     0.165 HD
HETATM   12  O   UNL     1      40.734 -15.332  -3.492  1.00  0.00    -0.247 OA
HETATM   13  N   UNL     1      40.332 -13.146  -2.796  1.00  0.00    -0.268 N 
HETATM   14  C   UNL     1      39.768 -12.597  -1.674  1.00  0.00     0.256 A 
HETATM   15  O   UNL     1      39.604 -11.406  -1.453  1.00  0.00    -0.270 OA
BRANCH   8  16
HETATM   16  C   UNL     1      37.895 -13.788  -0.447  1.00  0.00     0.037 C 
HETATM   17  C   UNL     1      37.277 -12.525   0.150  1.00  0.00     0.008 C 
ENDBRANCH   8  16
BRANCH  13  18
HETATM   18  C   UNL     1      40.850 -12.323  -3.882  1.00  0.00     0.142 C 
BRANCH  18  19
HETATM   19  C   UNL     1      42.319 -11.907  -3.789  1.00  0.00     0.068 C 
BRANCH  19  20
HETATM   20  C   UNL     1      42.452 -10.456  -3.438  1.00  0.00     0.010 A 
HETATM   21  S   UNL     1      42.153  -9.243  -4.618  1.00  0.00    -0.085 SA
HETATM   22  C   UNL     1      42.512  -8.042  -3.453  1.00  0.00     0.166 A 
HETATM   23  N   UNL     1      42.840  -8.480  -2.259  1.00  0.00    -0.258 NA
HETATM   24  C   UNL     1      42.801  -9.864  -2.235  1.00  0.00     0.044 A 
HETATM   25  C   UNL     1      43.134 -10.553  -0.959  1.00  0.00     0.071 C 
ENDBRANCH  19  20
ENDBRANCH  18  19
ENDBRANCH  13  18
ENDBRANCH   1   8
BRANCH   4  26
HETATM   26  C   UNL     1      41.338 -17.618   1.567  1.00  0.00     0.276 C 
BRANCH  26  27
HETATM   27  C   UNL     1      42.427 -18.247   2.383  1.00  0.00     0.004 A 
HETATM   28  C   UNL     1      42.416 -18.157   3.776  1.00  0.00     0.107 A 
HETATM   29  C   UNL     1      43.335 -18.865   4.549  1.00  0.00     0.102 A 
HETATM   30  C   UNL     1      44.345 -19.601   3.941  1.00  0.00     0.039 A 
HETATM   31  C   UNL     1      44.397 -19.669   2.548  1.00  0.00     0.003 A 
HETATM   32  C   UNL     1      43.434 -19.013   1.774  1.00  0.00     0.012 A 
BRANCH  28  33
HETATM   33  O   UNL     1      41.490 -17.346   4.383  1.00  0.00    -0.357 OA
HETATM   34  H   UNL     1      40.807 -17.187   3.694  1.00  0.00     0.218 HD
ENDBRANCH  28  33
BRANCH  29  35
HETATM   35  O   UNL     1      43.248 -18.808   5.913  1.00  0.00    -0.349 OA
BRANCH  35  36
HETATM   36  C   UNL     1      44.485 -18.344   6.482  1.00  0.00     0.171 C 
HETATM   37  C   UNL     1      44.443 -16.838   6.641  1.00  0.00     0.034 C 
ENDBRANCH  35  36
ENDBRANCH  29  35
ENDBRANCH  26  27
ENDBRANCH   4  26
TORSDOF 10
ENDMDL
MODEL 6
REMARK VINA RESULT:      -7.6      2.612      5.142
REMARK  10 active torsions:
REMARK  status: ('A' for Active; 'I' for Inactive)
REMARK    1  A    between atoms: C_2  and  C_3 
REMARK    2  A    between atoms: C_3  and  C_4 
REMARK    3  A    between atoms: N_7  and  C_9 
REMARK    4  A    between atoms: C_9  and  C_10 
REMARK    5  A    between atoms: C_11  and  O_12 
REMARK    6  A    between atoms: C_13  and  O_14 
REMARK    7  A    between atoms: O_14  and  C_15 
REMARK    8  A    between atoms: N_25  and  C_26 
REMARK    9  A    between atoms: C_26  and  C_27 
REMARK   10  A    between atoms: C_27  and  C_28 
ROOT
HETATM    1  C   UNL     1      41.639 -12.685   4.189  1.00  0.00     0.026 C 
HETATM    2  C   UNL     1      42.643 -13.405   3.263  1.00  0.00     0.035 C 
HETATM    3  C   UNL     1      42.293 -14.853   2.962  1.00  0.00     0.235 C 
HETATM    4  N   UNL     1      42.036 -15.630   4.221  1.00  0.00    -0.067 N 
HETATM    5  H   UNL     1      42.956 -15.821   4.657  1.00  0.00     0.280 HD
HETATM    6  C   UNL     1      41.176 -14.973   5.260  1.00  0.00     0.235 C 
HETATM    7  C   UNL     1      41.555 -13.515   5.481  1.00  0.00     0.035 C 
ENDROOT
BRANCH   1   8
HETATM    8  C   UNL     1      40.256 -12.302   3.549  1.00  0.00     0.119 A 
HETATM    9  N   UNL     1      39.491 -13.453   3.128  1.00  0.00    -0.324 N 
HETATM   10  C   UNL     1      39.248 -13.451   1.770  1.00  0.00     0.326 A 
HETATM   11  H   UNL     1      38.806 -13.936   3.698  1.00  0.00     0.165 HD
HETATM   12  O   UNL     1      38.577 -14.321   1.247  1.00  0.00    -0.247 OA
HETATM   13  N   UNL     1      39.890 -12.397   1.206  1.00  0.00    -0.268 N 
HETATM   14  C   UNL     1      40.489 -11.637   2.177  1.00  0.00     0.256 A 
HETATM   15  O   UNL     1      41.146 -10.621   2.001  1.00  0.00    -0.270 OA
BRANCH   8  16
HETATM   16  C   UNL     1      39.423 -11.378   4.464  1.00  0.00     0.037 C 
HETATM   17  C   UNL     1      38.258 -10.663   3.782  1.00  0.00     0.008 C 
ENDBRANCH   8  16
BRANCH  13  18
HETATM   18  C   UNL     1      40.010 -12.075  -0.211  1.00  0.00     0.142 C 
BRANCH  18  19
HETATM   19  C   UNL     1      41.233 -12.631  -0.942  1.00  0.00     0.068 C 
BRANCH  19  20
HETATM   20  C   UNL     1      40.855 -13.758  -1.854  1.00  0.00     0.010 A 
HETATM   21  S   UNL     1      40.255 -13.439  -3.433  1.00  0.00    -0.085 SA
HETATM   22  C   UNL     1      40.105 -15.122  -3.701  1.00  0.00     0.166 A 
HETATM   23  N   UNL     1      40.463 -15.897  -2.702  1.00  0.00    -0.258 NA
HETATM   24  C   UNL     1      40.903 -15.126  -1.639  1.00  0.00     0.044 A 
HETATM   25  C   UNL     1      41.366 -15.826  -0.410  1.00  0.00     0.071 C 
ENDBRANCH  19  20
ENDBRANCH  18  19
ENDBRANCH  13  18
ENDBRANCH   1   8
BRANCH   4  26
HETATM   26  C   UNL     1      41.498 -17.015   3.902  1.00  0.00     0.276 C 
BRANCH  26  27
HETATM   27  C   UNL     1      42.543 -18.008   3.487  1.00  0.00     0.004 A 
HETATM   28  C   UNL     1      43.437 -18.534   4.421  1.00  0.00     0.107 A 
HETATM   29  C   UNL     1      44.309 -19.567   4.078  1.00  0.00     0.102 A 
HETATM   30  C   UNL     1      44.370 -20.029   2.768  1.00  0.00     0.039 A 
HETATM   31  C   UNL     1      43.512 -19.486   1.812  1.00  0.00     0.003 A 
HETATM   32  C   UNL     1      42.591 -18.495   2.171  1.00  0.00     0.012 A 
BRANCH  28  33
HETATM   33  O   UNL     1      43.461 -18.009   5.689  1.00  0.00    -0.357 OA
HETATM   34  H   UNL     1      44.309 -17.513   5.739  1.00  0.00     0.218 HD
ENDBRANCH  28  33
BRANCH  29  35
HETATM   35  O   UNL     1      45.120 -20.104   5.039  1.00  0.00    -0.349 OA
BRANCH  35  36
HETATM   36  C   UNL     1      44.678 -21.426   5.395  1.00  0.00     0.171 C 
HETATM   37  C   UNL     1      43.878 -21.370   6.681  1.00  0.00     0.034 C 
ENDBRANCH  35  36
ENDBRANCH  29  35
ENDBRANCH  26  27
ENDBRANCH   4  26
TORSDOF 10
ENDMDL
MODEL 7
REMARK VINA RESULT:      -7.6      2.436      7.342
REMARK  10 active torsions:
REMARK  status: ('A' for Active; 'I' for Inactive)
REMARK    1  A    between atoms: C_2  and  C_3 
REMARK    2  A    between atoms: C_3  and  C_4 
REMARK    3  A    between atoms: N_7  and  C_9 
REMARK    4  A    between atoms: C_9  and  C_10 
REMARK    5  A    between atoms: C_11  and  O_12 
REMARK    6  A    between atoms: C_13  and  O_14 
REMARK    7  A    between atoms: O_14  and  C_15 
REMARK    8  A    between atoms: N_25  and  C_26 
REMARK    9  A    between atoms: C_26  and  C_27 
REMARK   10  A    between atoms: C_27  and  C_28 
ROOT
HETATM    1  C   UNL     1      41.668 -14.138   5.706  1.00  0.00     0.026 C 
HETATM    2  C   UNL     1      40.271 -14.478   5.144  1.00  0.00     0.035 C 
HETATM    3  C   UNL     1      39.892 -13.704   3.892  1.00  0.00     0.235 C 
HETATM    4  N   UNL     1      40.074 -12.225   4.084  1.00  0.00    -0.067 N 
HETATM    5  H   UNL     1      39.288 -11.892   4.669  1.00  0.00     0.280 HD
HETATM    6  C   UNL     1      41.345 -11.779   4.744  1.00  0.00     0.235 C 
HETATM    7  C   UNL     1      41.684 -12.622   5.966  1.00  0.00     0.035 C 
ENDROOT
BRANCH   1   8
HETATM    8  C   UNL     1      42.896 -14.690   4.894  1.00  0.00     0.119 A 
HETATM    9  N   UNL     1      42.771 -14.481   3.471  1.00  0.00    -0.324 N 
HETATM   10  C   UNL     1      42.755 -15.668   2.768  1.00  0.00     0.326 A 
HETATM   11  H   UNL     1      43.126 -13.676   2.968  1.00  0.00     0.165 HD
HETATM   12  O   UNL     1      42.703 -15.682   1.552  1.00  0.00    -0.247 OA
HETATM   13  N   UNL     1      42.768 -16.704   3.644  1.00  0.00    -0.268 N 
HETATM   14  C   UNL     1      42.883 -16.233   4.927  1.00  0.00     0.256 A 
HETATM   15  O   UNL     1      42.922 -16.906   5.947  1.00  0.00    -0.270 OA
BRANCH   8  16
HETATM   16  C   UNL     1      44.240 -14.149   5.426  1.00  0.00     0.037 C 
HETATM   17  C   UNL     1      44.582 -14.547   6.861  1.00  0.00     0.008 C 
ENDBRANCH   8  16
BRANCH  13  18
HETATM   18  C   UNL     1      42.640 -18.127   3.353  1.00  0.00     0.142 C 
BRANCH  18  19
HETATM   19  C   UNL     1      43.843 -18.805   2.696  1.00  0.00     0.068 C 
BRANCH  19  20
HETATM   20  C   UNL     1      44.223 -20.059   3.422  1.00  0.00     0.010 A 
HETATM   21  S   UNL     1      44.614 -20.014   5.095  1.00  0.00    -0.085 SA
HETATM   22  C   UNL     1      44.890 -21.702   5.062  1.00  0.00     0.166 A 
HETATM   23  N   UNL     1      44.717 -22.289   3.899  1.00  0.00    -0.258 NA
HETATM   24  C   UNL     1      44.326 -21.358   2.952  1.00  0.00     0.044 A 
HETATM   25  C   UNL     1      44.068 -21.835   1.566  1.00  0.00     0.071 C 
ENDBRANCH  19  20
ENDBRANCH  18  19
ENDBRANCH  13  18
ENDBRANCH   1   8
BRANCH   4  26
HETATM   26  C   UNL     1      39.882 -11.482   2.772  1.00  0.00     0.276 C 
BRANCH  26  27
HETATM   27  C   UNL     1      39.327 -12.318   1.658  1.00  0.00     0.004 A 
HETATM   28  C   UNL     1      40.173 -13.083   0.852  1.00  0.00     0.107 A 
HETATM   29  C   UNL     1      39.657 -13.979  -0.084  1.00  0.00     0.102 A 
HETATM   30  C   UNL     1      38.286 -14.057  -0.300  1.00  0.00     0.039 A 
HETATM   31  C   UNL     1      37.428 -13.269   0.468  1.00  0.00     0.003 A 
HETATM   32  C   UNL     1      37.942 -12.419   1.453  1.00  0.00     0.012 A 
BRANCH  28  33
HETATM   33  O   UNL     1      41.531 -12.933   0.982  1.00  0.00    -0.357 OA
HETATM   34  H   UNL     1      41.915 -13.622   0.394  1.00  0.00     0.218 HD
ENDBRANCH  28  33
BRANCH  29  35
HETATM   35  O   UNL     1      40.515 -14.762  -0.804  1.00  0.00    -0.349 OA
BRANCH  35  36
HETATM   36  C   UNL     1      40.418 -14.465  -2.208  1.00  0.00     0.171 C 
HETATM   37  C   UNL     1      40.673 -15.720  -3.018  1.00  0.00     0.034 C 
ENDBRANCH  35  36
ENDBRANCH  29  35
ENDBRANCH  26  27
ENDBRANCH   4  26
TORSDOF 10
ENDMDL
MODEL 8
REMARK VINA RESULT:      -7.4      3.423      7.522
REMARK  10 active torsions:
REMARK  status: ('A' for Active; 'I' for Inactive)
REMARK    1  A    between atoms: C_2  and  C_3 
REMARK    2  A    between atoms: C_3  and  C_4 
REMARK    3  A    between atoms: N_7  and  C_9 
REMARK    4  A    between atoms: C_9  and  C_10 
REMARK    5  A    between atoms: C_11  and  O_12 
REMARK    6  A    between atoms: C_13  and  O_14 
REMARK    7  A    between atoms: O_14  and  C_15 
REMARK    8  A    between atoms: N_25  and  C_26 
REMARK    9  A    between atoms: C_26  and  C_27 
REMARK   10  A    between atoms: C_27  and  C_28 
ROOT
HETATM    1  C   UNL     1      42.676 -14.228   2.920  1.00  0.00     0.026 C 
HETATM    2  C   UNL     1      43.157 -14.056   4.376  1.00  0.00     0.035 C 
HETATM    3  C   UNL     1      42.070 -13.636   5.351  1.00  0.00     0.235 C 
HETATM    4  N   UNL     1      41.327 -12.426   4.860  1.00  0.00    -0.067 N 
HETATM    5  H   UNL     1      41.942 -11.607   5.010  1.00  0.00     0.280 HD
HETATM    6  C   UNL     1      40.920 -12.422   3.416  1.00  0.00     0.235 C 
HETATM    7  C   UNL     1      42.043 -12.891   2.501  1.00  0.00     0.035 C 
ENDROOT
BRANCH   1   8
HETATM    8  C   UNL     1      41.805 -15.502   2.623  1.00  0.00     0.119 A 
HETATM    9  N   UNL     1      41.078 -15.970   3.779  1.00  0.00    -0.324 N 
HETATM   10  C   UNL     1      41.441 -17.250   4.143  1.00  0.00     0.326 A 
HETATM   11  H   UNL     1      40.133 -15.695   4.022  1.00  0.00     0.165 HD
HETATM   12  O   UNL     1      40.896 -17.824   5.068  1.00  0.00    -0.247 OA
HETATM   13  N   UNL     1      42.461 -17.665   3.350  1.00  0.00    -0.268 N 
HETATM   14  C   UNL     1      42.730 -16.717   2.396  1.00  0.00     0.256 A 
HETATM   15  O   UNL     1      43.589 -16.783   1.530  1.00  0.00    -0.270 OA
BRANCH   8  16
HETATM   16  C   UNL     1      40.868 -15.302   1.412  1.00  0.00     0.037 C 
HETATM   17  C   UNL     1      39.374 -15.334   1.731  1.00  0.00     0.008 C 
ENDBRANCH   8  16
BRANCH  13  18
HETATM   18  C   UNL     1      43.234 -18.897   3.454  1.00  0.00     0.142 C 
BRANCH  18  19
HETATM   19  C   UNL     1      44.534 -18.826   4.257  1.00  0.00     0.068 C 
BRANCH  19  20
HETATM   20  C   UNL     1      44.261 -18.765   5.729  1.00  0.00     0.010 A 
HETATM   21  S   UNL     1      44.247 -17.257   6.552  1.00  0.00    -0.085 SA
HETATM   22  C   UNL     1      43.898 -18.074   8.014  1.00  0.00     0.166 A 
HETATM   23  N   UNL     1      43.798 -19.381   7.931  1.00  0.00    -0.258 NA
HETATM   24  C   UNL     1      43.996 -19.789   6.623  1.00  0.00     0.044 A 
HETATM   25  C   UNL     1      43.910 -21.244   6.322  1.00  0.00     0.071 C 
ENDBRANCH  19  20
ENDBRANCH  18  19
ENDBRANCH  13  18
ENDBRANCH   1   8
BRANCH   4  26
HETATM   26  C   UNL     1      40.122 -12.136   5.740  1.00  0.00     0.276 C 
BRANCH  26  27
HETATM   27  C   UNL     1      40.397 -11.207   6.884  1.00  0.00     0.004 A 
HETATM   28  C   UNL     1      39.905 -11.484   8.161  1.00  0.00     0.107 A 
HETATM   29  C   UNL     1      40.281 -10.711   9.259  1.00  0.00     0.102 A 
HETATM   30  C   UNL     1      41.080  -9.587   9.086  1.00  0.00     0.039 A 
HETATM   31  C   UNL     1      41.547  -9.270   7.810  1.00  0.00     0.003 A 
HETATM   32  C   UNL     1      41.224 -10.084   6.719  1.00  0.00     0.012 A 
BRANCH  28  33
HETATM   33  O   UNL     1      39.029 -12.527   8.324  1.00  0.00    -0.357 OA
HETATM   34  H   UNL     1      39.073 -12.743   9.283  1.00  0.00     0.218 HD
ENDBRANCH  28  33
BRANCH  29  35
HETATM   35  O   UNL     1      39.835 -11.057  10.505  1.00  0.00    -0.349 OA
BRANCH  35  36
HETATM   36  C   UNL     1      40.859 -10.834  11.491  1.00  0.00     0.171 C 
HETATM   37  C   UNL     1      40.536 -11.611  12.750  1.00  0.00     0.034 C 
ENDBRANCH  35  36
ENDBRANCH  29  35
ENDBRANCH  26  27
ENDBRANCH   4  26
TORSDOF 10
ENDMDL
MODEL 9
REMARK VINA RESULT:      -7.3      3.013      7.495
REMARK  10 active torsions:
REMARK  status: ('A' for Active; 'I' for Inactive)
REMARK    1  A    between atoms: C_2  and  C_3 
REMARK    2  A    between atoms: C_3  and  C_4 
REMARK    3  A    between atoms: N_7  and  C_9 
REMARK    4  A    between atoms: C_9  and  C_10 
REMARK    5  A    between atoms: C_11  and  O_12 
REMARK    6  A    between atoms: C_13  and  O_14 
REMARK    7  A    between atoms: O_14  and  C_15 
REMARK    8  A    between atoms: N_25  and  C_26 
REMARK    9  A    between atoms: C_26  and  C_27 
REMARK   10  A    between atoms: C_27  and  C_28 
ROOT
HETATM    1  C   UNL     1      40.673 -15.003   4.008  1.00  0.00     0.026 C 
HETATM    2  C   UNL     1      39.921 -15.369   2.712  1.00  0.00     0.035 C 
HETATM    3  C   UNL     1      40.456 -14.691   1.461  1.00  0.00     0.235 C 
HETATM    4  N   UNL     1      40.563 -13.205   1.645  1.00  0.00    -0.067 N 
HETATM    5  H   UNL     1      39.604 -12.818   1.586  1.00  0.00     0.280 HD
HETATM    6  C   UNL     1      41.162 -12.722   2.933  1.00  0.00     0.235 C 
HETATM    7  C   UNL     1      40.611 -13.471   4.139  1.00  0.00     0.035 C 
ENDROOT
BRANCH   1   8
HETATM    8  C   UNL     1      42.103 -15.631   4.182  1.00  0.00     0.119 A 
HETATM    9  N   UNL     1      43.005 -15.285   3.108  1.00  0.00    -0.324 N 
HETATM   10  C   UNL     1      43.446 -16.395   2.417  1.00  0.00     0.326 A 
HETATM   11  H   UNL     1      43.634 -14.490   3.110  1.00  0.00     0.165 HD
HETATM   12  O   UNL     1      44.249 -16.297   1.509  1.00  0.00    -0.247 OA
HETATM   13  N   UNL     1      42.816 -17.496   2.899  1.00  0.00    -0.268 N 
HETATM   14  C   UNL     1      42.026 -17.157   3.967  1.00  0.00     0.256 A 
HETATM   15  O   UNL     1      41.328 -17.916   4.624  1.00  0.00    -0.270 OA
BRANCH   8  16
HETATM   16  C   UNL     1      42.721 -15.309   5.560  1.00  0.00     0.037 C 
HETATM   17  C   UNL     1      43.893 -14.330   5.537  1.00  0.00     0.008 C 
ENDBRANCH   8  16
BRANCH  13  18
HETATM   18  C   UNL     1      42.883 -18.861   2.391  1.00  0.00     0.142 C 
BRANCH  18  19
HETATM   19  C   UNL     1      44.275 -19.486   2.280  1.00  0.00     0.068 C 
BRANCH  19  20
HETATM   20  C   UNL     1      44.485 -20.536   3.328  1.00  0.00     0.010 A 
HETATM   21  S   UNL     1      44.436 -22.203   2.915  1.00  0.00    -0.085 SA
HETATM   22  C   UNL     1      44.739 -22.603   4.551  1.00  0.00     0.166 A 
HETATM   23  N   UNL     1      44.867 -21.588   5.376  1.00  0.00    -0.258 NA
HETATM   24  C   UNL     1      44.732 -20.396   4.684  1.00  0.00     0.044 A 
HETATM   25  C   UNL     1      44.858 -19.125   5.447  1.00  0.00     0.071 C 
ENDBRANCH  19  20
ENDBRANCH  18  19
ENDBRANCH  13  18
ENDBRANCH   1   8
BRANCH   4  26
HETATM   26  C   UNL     1      41.280 -12.564   0.467  1.00  0.00     0.276 C 
BRANCH  26  27
HETATM   27  C   UNL     1      40.500 -12.571  -0.814  1.00  0.00     0.004 A 
HETATM   28  C   UNL     1      40.866 -13.412  -1.866  1.00  0.00     0.107 A 
HETATM   29  C   UNL     1      40.062 -13.537  -2.999  1.00  0.00     0.102 A 
HETATM   30  C   UNL     1      38.926 -12.751  -3.144  1.00  0.00     0.039 A 
HETATM   31  C   UNL     1      38.567 -11.874  -2.120  1.00  0.00     0.003 A 
HETATM   32  C   UNL     1      39.337 -11.797  -0.954  1.00  0.00     0.012 A 
BRANCH  28  33
HETATM   33  O   UNL     1      42.044 -14.111  -1.780  1.00  0.00    -0.357 OA
HETATM   34  H   UNL     1      41.939 -14.682  -0.986  1.00  0.00     0.218 HD
ENDBRANCH  28  33
BRANCH  29  35
HETATM   35  O   UNL     1      40.418 -14.425  -3.977  1.00  0.00    -0.349 OA
BRANCH  35  36
HETATM   36  C   UNL     1      39.463 -15.498  -4.060  1.00  0.00     0.171 C 
HETATM   37  C   UNL     1      39.893 -16.639  -3.161  1.00  0.00     0.034 C 
ENDBRANCH  35  36
ENDBRANCH  29  35
ENDBRANCH  26  27
ENDBRANCH   4  26
TORSDOF 10
ENDMDL
MODEL 10
REMARK VINA RESULT:      -7.2      3.472      6.483
REMARK  10 active torsions:
REMARK  status: ('A' for Active; 'I' for Inactive)
REMARK    1  A    between atoms: C_2  and  C_3 
REMARK    2  A    between atoms: C_3  and  C_4 
REMARK    3  A    between atoms: N_7  and  C_9 
REMARK    4  A    between atoms: C_9  and  C_10 
REMARK    5  A    between atoms: C_11  and  O_12 
REMARK    6  A    between atoms: C_13  and  O_14 
REMARK    7  A    between atoms: O_14  and  C_15 
REMARK    8  A    between atoms: N_25  and  C_26 
REMARK    9  A    between atoms: C_26  and  C_27 
REMARK   10  A    between atoms: C_27  and  C_28 
ROOT
HETATM    1  C   UNL     1      39.527 -13.256   2.230  1.00  0.00     0.026 C 
HETATM    2  C   UNL     1      40.731 -12.312   2.426  1.00  0.00     0.035 C 
HETATM    3  C   UNL     1      42.085 -13.001   2.376  1.00  0.00     0.235 C 
HETATM    4  N   UNL     1      42.138 -14.177   3.309  1.00  0.00    -0.067 N 
HETATM    5  H   UNL     1      42.233 -13.802   4.270  1.00  0.00     0.280 HD
HETATM    6  C   UNL     1      40.956 -15.100   3.303  1.00  0.00     0.235 C 
HETATM    7  C   UNL     1      39.635 -14.343   3.313  1.00  0.00     0.035 C 
ENDROOT
BRANCH   1   8
HETATM    8  C   UNL     1      39.293 -13.789   0.770  1.00  0.00     0.119 A 
HETATM    9  N   UNL     1      39.862 -15.098   0.549  1.00  0.00    -0.324 N 
HETATM   10  C   UNL     1      40.828 -15.088  -0.436  1.00  0.00     0.326 A 
HETATM   11  H   UNL     1      39.370 -15.975   0.674  1.00  0.00     0.165 HD
HETATM   12  O   UNL     1      41.382 -16.112  -0.788  1.00  0.00    -0.247 OA
HETATM   13  N   UNL     1      41.028 -13.811  -0.849  1.00  0.00    -0.268 N 
HETATM   14  C   UNL     1      40.146 -12.970  -0.221  1.00  0.00     0.256 A 
HETATM   15  O   UNL     1      40.065 -11.759  -0.370  1.00  0.00    -0.270 OA
BRANCH   8  16
HETATM   16  C   UNL     1      37.803 -13.748   0.363  1.00  0.00     0.037 C 
HETATM   17  C   UNL     1      37.060 -12.466   0.737  1.00  0.00     0.008 C 
ENDBRANCH   8  16
BRANCH  13  18
HETATM   18  C   UNL     1      42.034 -13.318  -1.783  1.00  0.00     0.142 C 
BRANCH  18  19
HETATM   19  C   UNL     1      41.729 -13.485  -3.272  1.00  0.00     0.068 C 
BRANCH  19  20
HETATM   20  C   UNL     1      41.133 -12.237  -3.848  1.00  0.00     0.010 A 
HETATM   21  S   UNL     1      42.140 -11.022  -4.530  1.00  0.00    -0.085 SA
HETATM   22  C   UNL     1      40.751 -10.088  -4.883  1.00  0.00     0.166 A 
HETATM   23  N   UNL     1      39.601 -10.613  -4.527  1.00  0.00    -0.258 NA
HETATM   24  C   UNL     1      39.806 -11.850  -3.940  1.00  0.00     0.044 A 
HETATM   25  C   UNL     1      38.614 -12.612  -3.477  1.00  0.00     0.071 C 
ENDBRANCH  19  20
ENDBRANCH  18  19
ENDBRANCH  13  18
ENDBRANCH   1   8
BRANCH   4  26
HETATM   26  C   UNL     1      43.418 -14.971   3.107  1.00  0.00     0.276 C 
BRANCH  26  27
HETATM   27  C   UNL     1      43.360 -16.383   3.608  1.00  0.00     0.004 A 
HETATM   28  C   UNL     1      43.263 -17.452   2.715  1.00  0.00     0.107 A 
HETATM   29  C   UNL     1      43.362 -18.770   3.159  1.00  0.00     0.102 A 
HETATM   30  C   UNL     1      43.464 -19.048   4.517  1.00  0.00     0.039 A 
HETATM   31  C   UNL     1      43.521 -17.992   5.428  1.00  0.00     0.003 A 
HETATM   32  C   UNL     1      43.488 -16.669   4.977  1.00  0.00     0.012 A 
BRANCH  28  33
HETATM   33  O   UNL     1      43.052 -17.190   1.384  1.00  0.00    -0.357 OA
HETATM   34  H   UNL     1      43.283 -16.240   1.277  1.00  0.00     0.218 HD
ENDBRANCH  28  33
BRANCH  29  35
HETATM   35  O   UNL     1      43.333 -19.788   2.246  1.00  0.00    -0.349 OA
BRANCH  35  36
HETATM   36  C   UNL     1      44.343 -20.767   2.545  1.00  0.00     0.171 C 
HETATM   37  C   UNL     1      44.200 -21.953   1.613  1.00  0.00     0.034 C 
ENDBRANCH  35  36
ENDBRANCH  29  35
ENDBRANCH  26  27
ENDBRANCH   4  26
TORSDOF 10
ENDMDL
