MODEL 1
REMARK VINA RESULT:      -7.5      0.000      0.000
REMARK  8 active torsions:
REMARK  status: ('A' for Active; 'I' for Inactive)
REMARK    1  A    between atoms: C_2  and  O_3 
REMARK    2  A    between atoms: O_3  and  C_4 
REMARK       I    between atoms: C_4  and  N_5 
REMARK    3  A    between atoms: C_8  and  N_9 
REMARK       I    between atoms: N_9  and  C_10 
REMARK    4  A    between atoms: C_10  and  C_11 
REMARK    5  A    between atoms: C_12  and  C_13 
REMARK    6  A    between atoms: N_18  and  C_19 
REMARK    7  A    between atoms: C_19  and  C_20 
REMARK    8  A    between atoms: C_20  and  O_21 
ROOT
HETATM    1  C   UNL     1      42.247 -17.731   3.052  1.00  0.00     0.139 C 
HETATM    2  C   UNL     1      42.189 -17.401   4.558  1.00  0.00     0.145 C 
HETATM    3  N   UNL     1      43.528 -17.298   5.152  1.00  0.00    -0.335 N 
HETATM    4  C   UNL     1      44.444 -18.322   4.910  1.00  0.00     0.255 C 
HETATM    5  O   UNL     1      45.512 -18.427   5.505  1.00  0.00    -0.267 OA
HETATM    6  C   UNL     1      44.091 -19.295   3.827  1.00  0.00     0.039 A 
HETATM    7  C   UNL     1      43.056 -19.015   2.910  1.00  0.00    -0.027 A 
HETATM    8  C   UNL     1      44.835 -20.474   3.705  1.00  0.00     0.017 A 
HETATM    9  C   UNL     1      44.546 -21.380   2.683  1.00  0.00     0.001 A 
HETATM   10  C   UNL     1      43.524 -21.106   1.775  1.00  0.00     0.001 A 
HETATM   11  C   UNL     1      42.781 -19.929   1.882  1.00  0.00     0.009 A 
ENDROOT
BRANCH   1  12
HETATM   12  C   UNL     1      42.863 -16.607   2.208  1.00  0.00     0.229 C 
HETATM   13  N   UNL     1      41.968 -16.004   1.338  1.00  0.00    -0.356 N 
HETATM   14  H   UNL     1      40.996 -16.256   1.466  1.00  0.00     0.162 HD
HETATM   15  O   UNL     1      44.048 -16.297   2.270  1.00  0.00    -0.273 OA
BRANCH  13  16
HETATM   16  C   UNL     1      42.179 -14.710   0.674  1.00  0.00     0.087 C 
HETATM   17  C   UNL     1      42.092 -14.665  -0.857  1.00  0.00     0.045 C 
HETATM   18  C   UNL     1      40.674 -14.905  -1.356  1.00  0.00     0.130 C 
HETATM   19  N   UNL     1      39.735 -13.976  -0.726  1.00  0.00    -0.328 N 
HETATM   20  C   UNL     1      38.593 -13.534  -1.379  1.00  0.00     0.362 C 
HETATM   21  C   UNL     1      39.780 -13.897   0.728  1.00  0.00     0.130 C 
HETATM   22  O   UNL     1      37.667 -12.960  -0.818  1.00  0.00    -0.238 OA
HETATM   23  C   UNL     1      41.199 -13.676   1.249  1.00  0.00     0.045 C 
BRANCH  20  24
HETATM   24  O   UNL     1      38.622 -13.795  -2.713  1.00  0.00    -0.304 OA
BRANCH  24  25
HETATM   25  C   UNL     1      37.651 -14.730  -3.203  1.00  0.00     0.176 C 
HETATM   26  C   UNL     1      38.329 -15.767  -4.076  1.00  0.00     0.034 C 
ENDBRANCH  24  25
ENDBRANCH  20  24
ENDBRANCH  13  16
ENDBRANCH   1  12
BRANCH   2  27
HETATM   27  C   UNL     1      41.193 -16.349   5.012  1.00  0.00     0.006 A 
HETATM   28  S   UNL     1      40.405 -16.390   6.536  1.00  0.00    -0.104 SA
HETATM   29  C   UNL     1      39.551 -14.947   6.226  1.00  0.00     0.050 A 
HETATM   30  C   UNL     1      39.868 -14.415   4.998  1.00  0.00     0.008 A 
HETATM   31  C   UNL     1      40.818 -15.216   4.306  1.00  0.00     0.017 A 
ENDBRANCH   2  27
BRANCH   3  32
HETATM   32  C   UNL     1      44.041 -16.051   5.726  1.00  0.00     0.153 C 
BRANCH  32  33
HETATM   33  C   UNL     1      44.006 -16.015   7.252  1.00  0.00     0.187 C 
BRANCH  33  34
HETATM   34  O   UNL     1      44.404 -14.712   7.689  1.00  0.00    -0.394 OA
HETATM   35  C   UNL     1      45.090 -14.000   6.670  1.00  0.00     0.201 C 
ENDBRANCH  33  34
ENDBRANCH  32  33
ENDBRANCH   3  32
TORSDOF 8
ENDMDL
MODEL 2
REMARK VINA RESULT:      -7.1      2.412      8.130
REMARK  8 active torsions:
REMARK  status: ('A' for Active; 'I' for Inactive)
REMARK    1  A    between atoms: C_2  and  O_3 
REMARK    2  A    between atoms: O_3  and  C_4 
REMARK       I    between atoms: C_4  and  N_5 
REMARK    3  A    between atoms: C_8  and  N_9 
REMARK       I    between atoms: N_9  and  C_10 
REMARK    4  A    between atoms: C_10  and  C_11 
REMARK    5  A    between atoms: C_12  and  C_13 
REMARK    6  A    between atoms: N_18  and  C_19 
REMARK    7  A    between atoms: C_19  and  C_20 
REMARK    8  A    between atoms: C_20  and  O_21 
ROOT
HETATM    1  C   UNL     1      41.568 -13.356  -0.347  1.00  0.00     0.139 C 
HETATM    2  C   UNL     1      40.410 -12.739   0.464  1.00  0.00     0.145 C 
HETATM    3  N   UNL     1      39.124 -12.851  -0.239  1.00  0.00    -0.335 N 
HETATM    4  C   UNL     1      39.059 -12.449  -1.573  1.00  0.00     0.255 C 
HETATM    5  O   UNL     1      38.005 -12.324  -2.189  1.00  0.00    -0.267 OA
HETATM    6  C   UNL     1      40.364 -12.213  -2.268  1.00  0.00     0.039 A 
HETATM    7  C   UNL     1      41.576 -12.665  -1.705  1.00  0.00    -0.027 A 
HETATM    8  C   UNL     1      40.366 -11.574  -3.513  1.00  0.00     0.017 A 
HETATM    9  C   UNL     1      41.567 -11.374  -4.195  1.00  0.00     0.001 A 
HETATM   10  C   UNL     1      42.767 -11.819  -3.642  1.00  0.00     0.001 A 
HETATM   11  C   UNL     1      42.776 -12.466  -2.405  1.00  0.00     0.009 A 
ENDROOT
BRANCH   1  12
HETATM   12  C   UNL     1      41.450 -14.877  -0.513  1.00  0.00     0.229 C 
HETATM   13  N   UNL     1      42.276 -15.600   0.334  1.00  0.00    -0.356 N 
HETATM   14  H   UNL     1      42.735 -15.064   1.059  1.00  0.00     0.162 HD
HETATM   15  O   UNL     1      40.721 -15.404  -1.346  1.00  0.00    -0.273 OA
BRANCH  13  16
HETATM   16  C   UNL     1      42.132 -17.031   0.633  1.00  0.00     0.087 C 
HETATM   17  C   UNL     1      43.396 -17.819   1.004  1.00  0.00     0.045 C 
HETATM   18  C   UNL     1      43.954 -17.398   2.355  1.00  0.00     0.130 C 
HETATM   19  N   UNL     1      42.928 -17.487   3.395  1.00  0.00    -0.328 N 
HETATM   20  C   UNL     1      43.245 -17.778   4.714  1.00  0.00     0.362 C 
HETATM   21  C   UNL     1      41.663 -16.823   3.114  1.00  0.00     0.130 C 
HETATM   22  O   UNL     1      42.469 -17.626   5.651  1.00  0.00    -0.238 OA
HETATM   23  C   UNL     1      41.095 -17.217   1.751  1.00  0.00     0.045 C 
BRANCH  20  24
HETATM   24  O   UNL     1      44.508 -18.262   4.851  1.00  0.00    -0.304 OA
BRANCH  24  25
HETATM   25  C   UNL     1      44.629 -19.602   5.349  1.00  0.00     0.176 C 
HETATM   26  C   UNL     1      45.076 -20.527   4.235  1.00  0.00     0.034 C 
ENDBRANCH  24  25
ENDBRANCH  20  24
ENDBRANCH  13  16
ENDBRANCH   1  12
BRANCH   2  27
HETATM   27  C   UNL     1      40.362 -13.021   1.954  1.00  0.00     0.006 A 
HETATM   28  S   UNL     1      41.255 -12.124   3.114  1.00  0.00    -0.104 SA
HETATM   29  C   UNL     1      40.645 -13.041   4.415  1.00  0.00     0.050 A 
HETATM   30  C   UNL     1      39.755 -14.001   3.996  1.00  0.00     0.008 A 
HETATM   31  C   UNL     1      39.586 -13.983   2.583  1.00  0.00     0.017 A 
ENDBRANCH   2  27
BRANCH   3  32
HETATM   32  C   UNL     1      38.003 -13.633   0.290  1.00  0.00     0.153 C 
BRANCH  32  33
HETATM   33  C   UNL     1      36.768 -12.795   0.614  1.00  0.00     0.187 C 
BRANCH  33  34
HETATM   34  O   UNL     1      37.181 -11.636   1.345  1.00  0.00    -0.394 OA
HETATM   35  C   UNL     1      36.215 -10.598   1.279  1.00  0.00     0.201 C 
ENDBRANCH  33  34
ENDBRANCH  32  33
ENDBRANCH   3  32
TORSDOF 8
ENDMDL
MODEL 3
REMARK VINA RESULT:      -7.0      2.491      7.986
REMARK  8 active torsions:
REMARK  status: ('A' for Active; 'I' for Inactive)
REMARK    1  A    between atoms: C_2  and  O_3 
REMARK    2  A    between atoms: O_3  and  C_4 
REMARK       I    between atoms: C_4  and  N_5 
REMARK    3  A    between atoms: C_8  and  N_9 
REMARK       I    between atoms: N_9  and  C_10 
REMARK    4  A    between atoms: C_10  and  C_11 
REMARK    5  A    between atoms: C_12  and  C_13 
REMARK    6  A    between atoms: N_18  and  C_19 
REMARK    7  A    between atoms: C_19  and  C_20 
REMARK    8  A    between atoms: C_20  and  O_21 
ROOT
HETATM    1  C   UNL     1      42.090 -12.491   0.943  1.00  0.00     0.139 C 
HETATM    2  C   UNL     1      41.004 -12.105   1.969  1.00  0.00     0.145 C 
HETATM    3  N   UNL     1      39.681 -11.966   1.345  1.00  0.00    -0.335 N 
HETATM    4  C   UNL     1      39.567 -11.188   0.193  1.00  0.00     0.255 C 
HETATM    5  O   UNL     1      38.491 -10.856  -0.293  1.00  0.00    -0.267 OA
HETATM    6  C   UNL     1      40.846 -10.798  -0.483  1.00  0.00     0.039 A 
HETATM    7  C   UNL     1      42.062 -11.433  -0.152  1.00  0.00    -0.027 A 
HETATM    8  C   UNL     1      40.815  -9.823  -1.485  1.00  0.00     0.017 A 
HETATM    9  C   UNL     1      41.988  -9.468  -2.152  1.00  0.00     0.001 A 
HETATM   10  C   UNL     1      43.192 -10.092  -1.828  1.00  0.00     0.001 A 
HETATM   11  C   UNL     1      43.233 -11.073  -0.836  1.00  0.00     0.009 A 
ENDROOT
BRANCH   1  12
HETATM   12  C   UNL     1      41.892 -13.892   0.350  1.00  0.00     0.229 C 
HETATM   13  N   UNL     1      42.233 -14.921   1.213  1.00  0.00    -0.356 N 
HETATM   14  H   UNL     1      42.418 -14.647   2.169  1.00  0.00     0.162 HD
HETATM   15  O   UNL     1      41.505 -14.083  -0.798  1.00  0.00    -0.273 OA
BRANCH  13  16
HETATM   16  C   UNL     1      41.836 -16.327   1.049  1.00  0.00     0.087 C 
HETATM   17  C   UNL     1      42.940 -17.361   0.791  1.00  0.00     0.045 C 
HETATM   18  C   UNL     1      43.833 -17.557   2.007  1.00  0.00     0.130 C 
HETATM   19  N   UNL     1      43.040 -17.887   3.191  1.00  0.00    -0.328 N 
HETATM   20  C   UNL     1      43.538 -18.691   4.207  1.00  0.00     0.362 C 
HETATM   21  C   UNL     1      41.925 -16.999   3.490  1.00  0.00     0.130 C 
HETATM   22  O   UNL     1      43.016 -18.796   5.311  1.00  0.00    -0.238 OA
HETATM   23  C   UNL     1      41.026 -16.773   2.275  1.00  0.00     0.045 C 
BRANCH  20  24
HETATM   24  O   UNL     1      44.663 -19.359   3.836  1.00  0.00    -0.304 OA
BRANCH  24  25
HETATM   25  C   UNL     1      44.589 -20.791   3.850  1.00  0.00     0.176 C 
HETATM   26  C   UNL     1      44.289 -21.305   2.456  1.00  0.00     0.034 C 
ENDBRANCH  24  25
ENDBRANCH  20  24
ENDBRANCH  13  16
ENDBRANCH   1  12
BRANCH   2  27
HETATM   27  C   UNL     1      41.019 -12.810   3.313  1.00  0.00     0.006 A 
HETATM   28  S   UNL     1      42.457 -13.151   4.185  1.00  0.00    -0.104 SA
HETATM   29  C   UNL     1      41.605 -13.885   5.466  1.00  0.00     0.050 A 
HETATM   30  C   UNL     1      40.246 -13.857   5.263  1.00  0.00     0.008 A 
HETATM   31  C   UNL     1      39.909 -13.231   4.030  1.00  0.00     0.017 A 
ENDBRANCH   2  27
BRANCH   3  32
HETATM   32  C   UNL     1      38.552 -12.834   1.692  1.00  0.00     0.153 C 
BRANCH  32  33
HETATM   33  C   UNL     1      38.515 -14.140   0.901  1.00  0.00     0.187 C 
BRANCH  33  34
HETATM   34  O   UNL     1      37.510 -14.032  -0.112  1.00  0.00    -0.394 OA
HETATM   35  C   UNL     1      38.070 -14.057  -1.416  1.00  0.00     0.201 C 
ENDBRANCH  33  34
ENDBRANCH  32  33
ENDBRANCH   3  32
TORSDOF 8
ENDMDL
MODEL 4
REMARK VINA RESULT:      -6.9      4.739      8.912
REMARK  8 active torsions:
REMARK  status: ('A' for Active; 'I' for Inactive)
REMARK    1  A    between atoms: C_2  and  O_3 
REMARK    2  A    between atoms: O_3  and  C_4 
REMARK       I    between atoms: C_4  and  N_5 
REMARK    3  A    between atoms: C_8  and  N_9 
REMARK       I    between atoms: N_9  and  C_10 
REMARK    4  A    between atoms: C_10  and  C_11 
REMARK    5  A    between atoms: C_12  and  C_13 
REMARK    6  A    between atoms: N_18  and  C_19 
REMARK    7  A    between atoms: C_19  and  C_20 
REMARK    8  A    between atoms: C_20  and  O_21 
ROOT
HETATM    1  C   UNL     1      42.116 -12.981   5.104  1.00  0.00     0.139 C 
HETATM    2  C   UNL     1      41.801 -13.276   3.623  1.00  0.00     0.145 C 
HETATM    3  N   UNL     1      41.086 -14.548   3.454  1.00  0.00    -0.335 N 
HETATM    4  C   UNL     1      41.593 -15.685   4.084  1.00  0.00     0.255 C 
HETATM    5  O   UNL     1      41.186 -16.820   3.857  1.00  0.00    -0.267 OA
HETATM    6  C   UNL     1      42.653 -15.463   5.118  1.00  0.00     0.039 A 
HETATM    7  C   UNL     1      42.899 -14.174   5.638  1.00  0.00    -0.027 A 
HETATM    8  C   UNL     1      43.373 -16.562   5.601  1.00  0.00     0.017 A 
HETATM    9  C   UNL     1      44.342 -16.383   6.589  1.00  0.00     0.001 A 
HETATM   10  C   UNL     1      44.588 -15.111   7.105  1.00  0.00     0.001 A 
HETATM   11  C   UNL     1      43.870 -14.009   6.637  1.00  0.00     0.009 A 
ENDROOT
BRANCH   1  12
HETATM   12  C   UNL     1      40.861 -12.733   5.953  1.00  0.00     0.229 C 
HETATM   13  N   UNL     1      40.947 -11.617   6.769  1.00  0.00    -0.356 N 
HETATM   14  H   UNL     1      41.742 -11.013   6.602  1.00  0.00     0.162 HD
HETATM   15  O   UNL     1      39.887 -13.478   5.939  1.00  0.00    -0.273 OA
BRANCH  13  16
HETATM   16  C   UNL     1      39.806 -10.955   7.417  1.00  0.00     0.087 C 
HETATM   17  C   UNL     1      39.450 -11.373   8.850  1.00  0.00     0.045 C 
HETATM   18  C   UNL     1      40.512 -10.941   9.850  1.00  0.00     0.130 C 
HETATM   19  N   UNL     1      40.773  -9.505   9.747  1.00  0.00    -0.328 N 
HETATM   20  C   UNL     1      41.163  -8.751  10.846  1.00  0.00     0.362 C 
HETATM   21  C   UNL     1      41.062  -8.994   8.415  1.00  0.00     0.130 C 
HETATM   22  O   UNL     1      41.622  -7.617  10.765  1.00  0.00    -0.238 OA
HETATM   23  C   UNL     1      40.017  -9.434   7.390  1.00  0.00     0.045 C 
BRANCH  20  24
HETATM   24  O   UNL     1      40.966  -9.404  12.022  1.00  0.00    -0.304 OA
BRANCH  24  25
HETATM   25  C   UNL     1      41.986  -9.250  13.018  1.00  0.00     0.176 C 
HETATM   26  C   UNL     1      43.210 -10.054  12.629  1.00  0.00     0.034 C 
ENDBRANCH  24  25
ENDBRANCH  20  24
ENDBRANCH  13  16
ENDBRANCH   1  12
BRANCH   2  27
HETATM   27  C   UNL     1      41.299 -12.129   2.766  1.00  0.00     0.006 A 
HETATM   28  S   UNL     1      41.726 -11.925   1.116  1.00  0.00    -0.104 SA
HETATM   29  C   UNL     1      40.786 -10.511   0.961  1.00  0.00     0.050 A 
HETATM   30  C   UNL     1      40.130 -10.199   2.128  1.00  0.00     0.008 A 
HETATM   31  C   UNL     1      40.418 -11.134   3.162  1.00  0.00     0.017 A 
ENDBRANCH   2  27
BRANCH   3  32
HETATM   32  C   UNL     1      39.724 -14.621   2.916  1.00  0.00     0.153 C 
BRANCH  32  33
HETATM   33  C   UNL     1      39.651 -15.196   1.504  1.00  0.00     0.187 C 
BRANCH  33  34
HETATM   34  O   UNL     1      39.059 -14.219   0.642  1.00  0.00    -0.394 OA
HETATM   35  C   UNL     1      38.077 -13.445   1.316  1.00  0.00     0.201 C 
ENDBRANCH  33  34
ENDBRANCH  32  33
ENDBRANCH   3  32
TORSDOF 8
ENDMDL
MODEL 5
REMARK VINA RESULT:      -6.8      3.169      5.089
REMARK  8 active torsions:
REMARK  status: ('A' for Active; 'I' for Inactive)
REMARK    1  A    between atoms: C_2  and  O_3 
REMARK    2  A    between atoms: O_3  and  C_4 
REMARK       I    between atoms: C_4  and  N_5 
REMARK    3  A    between atoms: C_8  and  N_9 
REMARK       I    between atoms: N_9  and  C_10 
REMARK    4  A    between atoms: C_10  and  C_11 
REMARK    5  A    between atoms: C_12  and  C_13 
REMARK    6  A    between atoms: N_18  and  C_19 
REMARK    7  A    between atoms: C_19  and  C_20 
REMARK    8  A    between atoms: C_20  and  O_21 
ROOT
HETATM    1  C   UNL     1      40.497 -15.394   0.803  1.00  0.00     0.139 C 
HETATM    2  C   UNL     1      40.197 -14.129   1.633  1.00  0.00     0.145 C 
HETATM    3  N   UNL     1      41.412 -13.354   1.916  1.00  0.00    -0.335 N 
HETATM    4  C   UNL     1      42.524 -14.024   2.427  1.00  0.00     0.255 C 
HETATM    5  O   UNL     1      43.514 -13.450   2.871  1.00  0.00    -0.267 OA
HETATM    6  C   UNL     1      42.491 -15.520   2.370  1.00  0.00     0.039 A 
HETATM    7  C   UNL     1      41.540 -16.194   1.574  1.00  0.00    -0.027 A 
HETATM    8  C   UNL     1      43.449 -16.250   3.083  1.00  0.00     0.017 A 
HETATM    9  C   UNL     1      43.458 -17.643   3.017  1.00  0.00     0.001 A 
HETATM   10  C   UNL     1      42.519 -18.312   2.232  1.00  0.00     0.001 A 
HETATM   11  C   UNL     1      41.565 -17.595   1.509  1.00  0.00     0.009 A 
ENDROOT
BRANCH   1  12
HETATM   12  C   UNL     1      40.991 -15.084  -0.617  1.00  0.00     0.229 C 
HETATM   13  N   UNL     1      40.082 -15.409  -1.611  1.00  0.00    -0.356 N 
HETATM   14  H   UNL     1      39.154 -15.658  -1.291  1.00  0.00     0.162 HD
HETATM   15  O   UNL     1      42.104 -14.628  -0.852  1.00  0.00    -0.273 OA
BRANCH  13  16
HETATM   16  C   UNL     1      40.137 -14.923  -2.997  1.00  0.00     0.087 C 
HETATM   17  C   UNL     1      39.148 -15.518  -4.008  1.00  0.00     0.045 C 
HETATM   18  C   UNL     1      37.714 -15.099  -3.718  1.00  0.00     0.130 C 
HETATM   19  N   UNL     1      37.603 -13.642  -3.634  1.00  0.00    -0.328 N 
HETATM   20  C   UNL     1      36.442 -12.974  -3.999  1.00  0.00     0.362 C 
HETATM   21  C   UNL     1      38.541 -12.971  -2.745  1.00  0.00     0.130 C 
HETATM   22  O   UNL     1      36.215 -11.801  -3.722  1.00  0.00    -0.238 OA
HETATM   23  C   UNL     1      39.986 -13.394  -3.007  1.00  0.00     0.045 C 
BRANCH  20  24
HETATM   24  O   UNL     1      35.590 -13.761  -4.708  1.00  0.00    -0.304 OA
BRANCH  24  25
HETATM   25  C   UNL     1      34.728 -13.094  -5.640  1.00  0.00     0.176 C 
HETATM   26  C   UNL     1      35.364 -13.087  -7.015  1.00  0.00     0.034 C 
ENDBRANCH  24  25
ENDBRANCH  20  24
ENDBRANCH  13  16
ENDBRANCH   1  12
BRANCH   2  27
HETATM   27  C   UNL     1      38.976 -13.309   1.256  1.00  0.00     0.006 A 
HETATM   28  S   UNL     1      37.549 -13.991   0.592  1.00  0.00    -0.104 SA
HETATM   29  C   UNL     1      36.771 -12.477   0.493  1.00  0.00     0.050 A 
HETATM   30  C   UNL     1      37.560 -11.461   0.978  1.00  0.00     0.008 A 
HETATM   31  C   UNL     1      38.824 -11.941   1.424  1.00  0.00     0.017 A 
ENDBRANCH   2  27
BRANCH   3  32
HETATM   32  C   UNL     1      41.613 -11.992   1.414  1.00  0.00     0.153 C 
BRANCH  32  33
HETATM   33  C   UNL     1      42.205 -11.936   0.008  1.00  0.00     0.187 C 
BRANCH  33  34
HETATM   34  O   UNL     1      43.182 -10.891  -0.036  1.00  0.00    -0.394 OA
HETATM   35  C   UNL     1      43.370 -10.398  -1.354  1.00  0.00     0.201 C 
ENDBRANCH  33  34
ENDBRANCH  32  33
ENDBRANCH   3  32
TORSDOF 8
ENDMDL
MODEL 6
REMARK VINA RESULT:      -6.6      3.026      7.853
REMARK  8 active torsions:
REMARK  status: ('A' for Active; 'I' for Inactive)
REMARK    1  A    between atoms: C_2  and  O_3 
REMARK    2  A    between atoms: O_3  and  C_4 
REMARK       I    between atoms: C_4  and  N_5 
REMARK    3  A    between atoms: C_8  and  N_9 
REMARK       I    between atoms: N_9  and  C_10 
REMARK    4  A    between atoms: C_10  and  C_11 
REMARK    5  A    between atoms: C_12  and  C_13 
REMARK    6  A    between atoms: N_18  and  C_19 
REMARK    7  A    between atoms: C_19  and  C_20 
REMARK    8  A    between atoms: C_20  and  O_21 
ROOT
HETATM    1  C   UNL     1      41.441 -12.506   1.184  1.00  0.00     0.139 C 
HETATM    2  C   UNL     1      40.744 -11.519   2.143  1.00  0.00     0.145 C 
HETATM    3  N   UNL     1      39.441 -11.077   1.628  1.00  0.00    -0.335 N 
HETATM    4  C   UNL     1      39.367 -10.619   0.313  1.00  0.00     0.255 C 
HETATM    5  O   UNL     1      38.380 -10.056  -0.152  1.00  0.00    -0.267 OA
HETATM    6  C   UNL     1      40.553 -10.888  -0.560  1.00  0.00     0.039 A 
HETATM    7  C   UNL     1      41.546 -11.812  -0.168  1.00  0.00    -0.027 A 
HETATM    8  C   UNL     1      40.646 -10.245  -1.799  1.00  0.00     0.017 A 
HETATM    9  C   UNL     1      41.726 -10.507  -2.644  1.00  0.00     0.001 A 
HETATM   10  C   UNL     1      42.709 -11.418  -2.259  1.00  0.00     0.001 A 
HETATM   11  C   UNL     1      42.622 -12.073  -1.030  1.00  0.00     0.009 A 
ENDROOT
BRANCH   1  12
HETATM   12  C   UNL     1      40.702 -13.845   1.051  1.00  0.00     0.229 C 
HETATM   13  N   UNL     1      41.437 -14.937   1.486  1.00  0.00    -0.356 N 
HETATM   14  H   UNL     1      42.293 -14.719   1.980  1.00  0.00     0.162 HD
HETATM   15  O   UNL     1      39.581 -13.945   0.566  1.00  0.00    -0.273 OA
BRANCH  13  16
HETATM   16  C   UNL     1      40.879 -16.262   1.791  1.00  0.00     0.087 C 
HETATM   17  C   UNL     1      41.435 -17.470   1.025  1.00  0.00     0.045 C 
HETATM   18  C   UNL     1      42.874 -17.777   1.412  1.00  0.00     0.130 C 
HETATM   19  N   UNL     1      43.003 -17.940   2.860  1.00  0.00    -0.328 N 
HETATM   20  C   UNL     1      43.948 -18.787   3.422  1.00  0.00     0.362 C 
HETATM   21  C   UNL     1      42.449 -16.873   3.683  1.00  0.00     0.130 C 
HETATM   22  O   UNL     1      44.255 -18.774   4.609  1.00  0.00    -0.238 OA
HETATM   23  C   UNL     1      41.010 -16.536   3.297  1.00  0.00     0.045 C 
BRANCH  20  24
HETATM   24  O   UNL     1      44.488 -19.641   2.511  1.00  0.00    -0.304 OA
BRANCH  24  25
HETATM   25  C   UNL     1      44.456 -21.035   2.845  1.00  0.00     0.176 C 
HETATM   26  C   UNL     1      43.982 -21.840   1.651  1.00  0.00     0.034 C 
ENDBRANCH  24  25
ENDBRANCH  20  24
ENDBRANCH  13  16
ENDBRANCH   1  12
BRANCH   2  27
HETATM   27  C   UNL     1      40.784 -11.829   3.629  1.00  0.00     0.006 A 
HETATM   28  S   UNL     1      39.999 -13.184   4.332  1.00  0.00    -0.104 SA
HETATM   29  C   UNL     1      40.535 -12.785   5.901  1.00  0.00     0.050 A 
HETATM   30  C   UNL     1      41.322 -11.657   5.904  1.00  0.00     0.008 A 
HETATM   31  C   UNL     1      41.472 -11.114   4.597  1.00  0.00     0.017 A 
ENDBRANCH   2  27
BRANCH   3  32
HETATM   32  C   UNL     1      38.180 -11.373   2.316  1.00  0.00     0.153 C 
BRANCH  32  33
HETATM   33  C   UNL     1      37.565 -10.165   3.018  1.00  0.00     0.187 C 
BRANCH  33  34
HETATM   34  O   UNL     1      37.823 -10.272   4.422  1.00  0.00    -0.394 OA
HETATM   35  C   UNL     1      38.434  -9.099   4.938  1.00  0.00     0.201 C 
ENDBRANCH  33  34
ENDBRANCH  32  33
ENDBRANCH   3  32
TORSDOF 8
ENDMDL
MODEL 7
REMARK VINA RESULT:      -6.6      2.834      7.680
REMARK  8 active torsions:
REMARK  status: ('A' for Active; 'I' for Inactive)
REMARK    1  A    between atoms: C_2  and  O_3 
REMARK    2  A    between atoms: O_3  and  C_4 
REMARK       I    between atoms: C_4  and  N_5 
REMARK    3  A    between atoms: C_8  and  N_9 
REMARK       I    between atoms: N_9  and  C_10 
REMARK    4  A    between atoms: C_10  and  C_11 
REMARK    5  A    between atoms: C_12  and  C_13 
REMARK    6  A    between atoms: N_18  and  C_19 
REMARK    7  A    between atoms: C_19  and  C_20 
REMARK    8  A    between atoms: C_20  and  O_21 
ROOT
HETATM    1  C   UNL     1      42.128 -13.300   0.505  1.00  0.00     0.139 C 
HETATM    2  C   UNL     1      41.766 -12.453   1.743  1.00  0.00     0.145 C 
HETATM    3  N   UNL     1      40.391 -11.941   1.677  1.00  0.00    -0.335 N 
HETATM    4  C   UNL     1      39.974 -11.304   0.508  1.00  0.00     0.255 C 
HETATM    5  O   UNL     1      38.921 -10.679   0.418  1.00  0.00    -0.267 OA
HETATM    6  C   UNL     1      40.860 -11.453  -0.690  1.00  0.00     0.039 A 
HETATM    7  C   UNL     1      41.883 -12.424  -0.718  1.00  0.00    -0.027 A 
HETATM    8  C   UNL     1      40.633 -10.643  -1.808  1.00  0.00     0.017 A 
HETATM    9  C   UNL     1      41.424 -10.788  -2.949  1.00  0.00     0.001 A 
HETATM   10  C   UNL     1      42.436 -11.747  -2.980  1.00  0.00     0.001 A 
HETATM   11  C   UNL     1      42.666 -12.566  -1.873  1.00  0.00     0.009 A 
ENDROOT
BRANCH   1  12
HETATM   12  C   UNL     1      41.327 -14.605   0.408  1.00  0.00     0.229 C 
HETATM   13  N   UNL     1      42.025 -15.725   0.831  1.00  0.00    -0.356 N 
HETATM   14  H   UNL     1      42.905 -15.541   1.297  1.00  0.00     0.162 HD
HETATM   15  O   UNL     1      40.188 -14.658  -0.042  1.00  0.00    -0.273 OA
BRANCH  13  16
HETATM   16  C   UNL     1      41.418 -17.021   1.166  1.00  0.00     0.087 C 
HETATM   17  C   UNL     1      42.351 -18.165   1.583  1.00  0.00     0.045 C 
HETATM   18  C   UNL     1      43.002 -17.908   2.933  1.00  0.00     0.130 C 
HETATM   19  N   UNL     1      41.994 -17.623   3.954  1.00  0.00    -0.328 N 
HETATM   20  C   UNL     1      42.185 -17.960   5.287  1.00  0.00     0.362 C 
HETATM   21  C   UNL     1      41.018 -16.591   3.631  1.00  0.00     0.130 C 
HETATM   22  O   UNL     1      41.492 -17.533   6.204  1.00  0.00    -0.238 OA
HETATM   23  C   UNL     1      40.367 -16.822   2.268  1.00  0.00     0.045 C 
BRANCH  20  24
HETATM   24  O   UNL     1      43.219 -18.826   5.462  1.00  0.00    -0.304 OA
BRANCH  24  25
HETATM   25  C   UNL     1      43.910 -18.753   6.716  1.00  0.00     0.176 C 
HETATM   26  C   UNL     1      45.224 -18.019   6.538  1.00  0.00     0.034 C 
ENDBRANCH  24  25
ENDBRANCH  20  24
ENDBRANCH  13  16
ENDBRANCH   1  12
BRANCH   2  27
HETATM   27  C   UNL     1      42.204 -12.967   3.103  1.00  0.00     0.006 A 
HETATM   28  S   UNL     1      43.557 -13.997   3.332  1.00  0.00    -0.104 SA
HETATM   29  C   UNL     1      43.330 -14.058   5.021  1.00  0.00     0.050 A 
HETATM   30  C   UNL     1      42.262 -13.291   5.424  1.00  0.00     0.008 A 
HETATM   31  C   UNL     1      41.621 -12.658   4.323  1.00  0.00     0.017 A 
ENDBRANCH   2  27
BRANCH   3  32
HETATM   32  C   UNL     1      39.359 -12.326   2.645  1.00  0.00     0.153 C 
BRANCH  32  33
HETATM   33  C   UNL     1      38.569 -11.145   3.204  1.00  0.00     0.187 C 
BRANCH  33  34
HETATM   34  O   UNL     1      38.430 -11.317   4.618  1.00  0.00    -0.394 OA
HETATM   35  C   UNL     1      39.087 -10.288   5.342  1.00  0.00     0.201 C 
ENDBRANCH  33  34
ENDBRANCH  32  33
ENDBRANCH   3  32
TORSDOF 8
ENDMDL
MODEL 8
REMARK VINA RESULT:      -6.4      2.710      3.503
REMARK  8 active torsions:
REMARK  status: ('A' for Active; 'I' for Inactive)
REMARK    1  A    between atoms: C_2  and  O_3 
REMARK    2  A    between atoms: O_3  and  C_4 
REMARK       I    between atoms: C_4  and  N_5 
REMARK    3  A    between atoms: C_8  and  N_9 
REMARK       I    between atoms: N_9  and  C_10 
REMARK    4  A    between atoms: C_10  and  C_11 
REMARK    5  A    between atoms: C_12  and  C_13 
REMARK    6  A    between atoms: N_18  and  C_19 
REMARK    7  A    between atoms: C_19  and  C_20 
REMARK    8  A    between atoms: C_20  and  O_21 
ROOT
HETATM    1  C   UNL     1      42.407 -17.794   3.040  1.00  0.00     0.139 C 
HETATM    2  C   UNL     1      42.222 -17.513   4.546  1.00  0.00     0.145 C 
HETATM    3  N   UNL     1      43.504 -17.497   5.264  1.00  0.00    -0.335 N 
HETATM    4  C   UNL     1      44.389 -18.557   5.067  1.00  0.00     0.255 C 
HETATM    5  O   UNL     1      45.391 -18.736   5.754  1.00  0.00    -0.267 OA
HETATM    6  C   UNL     1      44.095 -19.474   3.921  1.00  0.00     0.039 A 
HETATM    7  C   UNL     1      43.164 -19.111   2.924  1.00  0.00    -0.027 A 
HETATM    8  C   UNL     1      44.791 -20.684   3.822  1.00  0.00     0.017 A 
HETATM    9  C   UNL     1      44.557 -21.538   2.744  1.00  0.00     0.001 A 
HETATM   10  C   UNL     1      43.638 -21.184   1.757  1.00  0.00     0.001 A 
HETATM   11  C   UNL     1      42.945 -19.975   1.841  1.00  0.00     0.009 A 
ENDROOT
BRANCH   1  12
HETATM   12  C   UNL     1      43.150 -16.674   2.300  1.00  0.00     0.229 C 
HETATM   13  N   UNL     1      42.432 -15.492   2.203  1.00  0.00    -0.356 N 
HETATM   14  H   UNL     1      41.585 -15.449   2.756  1.00  0.00     0.162 HD
HETATM   15  O   UNL     1      44.262 -16.823   1.805  1.00  0.00    -0.273 OA
BRANCH  13  16
HETATM   16  C   UNL     1      43.005 -14.182   1.863  1.00  0.00     0.087 C 
HETATM   17  C   UNL     1      42.085 -13.143   1.208  1.00  0.00     0.045 C 
HETATM   18  C   UNL     1      41.018 -12.640   2.169  1.00  0.00     0.130 C 
HETATM   19  N   UNL     1      41.622 -12.136   3.403  1.00  0.00    -0.328 N 
HETATM   20  C   UNL     1      41.045 -11.109   4.136  1.00  0.00     0.362 C 
HETATM   21  C   UNL     1      42.562 -13.025   4.073  1.00  0.00     0.130 C 
HETATM   22  O   UNL     1      41.372 -10.821   5.282  1.00  0.00    -0.238 OA
HETATM   23  C   UNL     1      43.630 -13.558   3.119  1.00  0.00     0.045 C 
BRANCH  20  24
HETATM   24  O   UNL     1      40.084 -10.448   3.437  1.00  0.00    -0.304 OA
BRANCH  24  25
HETATM   25  C   UNL     1      40.316  -9.055   3.191  1.00  0.00     0.176 C 
HETATM   26  C   UNL     1      40.987  -8.874   1.844  1.00  0.00     0.034 C 
ENDBRANCH  24  25
ENDBRANCH  20  24
ENDBRANCH  13  16
ENDBRANCH   1  12
BRANCH   2  27
HETATM   27  C   UNL     1      41.239 -16.428   4.946  1.00  0.00     0.006 A 
HETATM   28  S   UNL     1      40.165 -15.673   3.842  1.00  0.00    -0.104 SA
HETATM   29  C   UNL     1      39.488 -14.678   5.050  1.00  0.00     0.050 A 
HETATM   30  C   UNL     1      40.041 -14.922   6.286  1.00  0.00     0.008 A 
HETATM   31  C   UNL     1      41.040 -15.934   6.226  1.00  0.00     0.017 A 
ENDBRANCH   2  27
BRANCH   3  32
HETATM   32  C   UNL     1      44.019 -16.297   5.930  1.00  0.00     0.153 C 
BRANCH  32  33
HETATM   33  C   UNL     1      43.993 -16.381   7.455  1.00  0.00     0.187 C 
BRANCH  33  34
HETATM   34  O   UNL     1      44.158 -15.063   7.988  1.00  0.00    -0.394 OA
HETATM   35  C   UNL     1      44.696 -14.168   7.026  1.00  0.00     0.201 C 
ENDBRANCH  33  34
ENDBRANCH  32  33
ENDBRANCH   3  32
TORSDOF 8
ENDMDL
MODEL 9
REMARK VINA RESULT:      -6.4      2.725      8.235
REMARK  8 active torsions:
REMARK  status: ('A' for Active; 'I' for Inactive)
REMARK    1  A    between atoms: C_2  and  O_3 
REMARK    2  A    between atoms: O_3  and  C_4 
REMARK       I    between atoms: C_4  and  N_5 
REMARK    3  A    between atoms: C_8  and  N_9 
REMARK       I    between atoms: N_9  and  C_10 
REMARK    4  A    between atoms: C_10  and  C_11 
REMARK    5  A    between atoms: C_12  and  C_13 
REMARK    6  A    between atoms: N_18  and  C_19 
REMARK    7  A    between atoms: C_19  and  C_20 
REMARK    8  A    between atoms: C_20  and  O_21 
ROOT
HETATM    1  C   UNL     1      40.571 -13.734   0.640  1.00  0.00     0.139 C 
HETATM    2  C   UNL     1      40.000 -12.302   0.703  1.00  0.00     0.145 C 
HETATM    3  N   UNL     1      38.590 -12.253   0.295  1.00  0.00    -0.335 N 
HETATM    4  C   UNL     1      38.220 -12.877  -0.897  1.00  0.00     0.255 C 
HETATM    5  O   UNL     1      37.119 -12.735  -1.419  1.00  0.00    -0.267 OA
HETATM    6  C   UNL     1      39.229 -13.795  -1.514  1.00  0.00     0.039 A 
HETATM    7  C   UNL     1      40.350 -14.238  -0.781  1.00  0.00    -0.027 A 
HETATM    8  C   UNL     1      39.023 -14.251  -2.821  1.00  0.00     0.017 A 
HETATM    9  C   UNL     1      39.932 -15.135  -3.405  1.00  0.00     0.001 A 
HETATM   10  C   UNL     1      41.042 -15.573  -2.683  1.00  0.00     0.001 A 
HETATM   11  C   UNL     1      41.252 -15.132  -1.376  1.00  0.00     0.009 A 
ENDROOT
BRANCH   1  12
HETATM   12  C   UNL     1      39.932 -14.688   1.659  1.00  0.00     0.229 C 
HETATM   13  N   UNL     1      40.843 -15.291   2.512  1.00  0.00    -0.356 N 
HETATM   14  H   UNL     1      41.785 -14.924   2.476  1.00  0.00     0.162 HD
HETATM   15  O   UNL     1      38.729 -14.925   1.689  1.00  0.00    -0.273 OA
BRANCH  13  16
HETATM   16  C   UNL     1      40.500 -15.965   3.772  1.00  0.00     0.087 C 
HETATM   17  C   UNL     1      41.218 -17.280   4.102  1.00  0.00     0.045 C 
HETATM   18  C   UNL     1      42.695 -17.064   4.399  1.00  0.00     0.130 C 
HETATM   19  N   UNL     1      42.877 -16.062   5.448  1.00  0.00    -0.328 N 
HETATM   20  C   UNL     1      43.952 -16.105   6.325  1.00  0.00     0.362 C 
HETATM   21  C   UNL     1      42.184 -14.795   5.261  1.00  0.00     0.130 C 
HETATM   22  O   UNL     1      44.278 -15.172   7.051  1.00  0.00    -0.238 OA
HETATM   23  C   UNL     1      40.702 -14.990   4.942  1.00  0.00     0.045 C 
BRANCH  20  24
HETATM   24  O   UNL     1      44.597 -17.303   6.299  1.00  0.00    -0.304 OA
BRANCH  24  25
HETATM   25  C   UNL     1      44.399 -18.160   7.431  1.00  0.00     0.176 C 
HETATM   26  C   UNL     1      43.801 -19.478   6.982  1.00  0.00     0.034 C 
ENDBRANCH  24  25
ENDBRANCH  20  24
ENDBRANCH  13  16
ENDBRANCH   1  12
BRANCH   2  27
HETATM   27  C   UNL     1      40.358 -11.452   1.909  1.00  0.00     0.006 A 
HETATM   28  S   UNL     1      40.706  -9.774   1.810  1.00  0.00    -0.104 SA
HETATM   29  C   UNL     1      40.969  -9.645   3.490  1.00  0.00     0.050 A 
HETATM   30  C   UNL     1      40.774 -10.844   4.135  1.00  0.00     0.008 A 
HETATM   31  C   UNL     1      40.414 -11.879   3.226  1.00  0.00     0.017 A 
ENDBRANCH   2  27
BRANCH   3  32
HETATM   32  C   UNL     1      37.518 -11.851   1.211  1.00  0.00     0.153 C 
BRANCH  32  33
HETATM   33  C   UNL     1      37.023 -10.424   0.989  1.00  0.00     0.187 C 
BRANCH  33  34
HETATM   34  O   UNL     1      36.306 -10.002   2.154  1.00  0.00    -0.394 OA
HETATM   35  C   UNL     1      37.180  -9.546   3.176  1.00  0.00     0.201 C 
ENDBRANCH  33  34
ENDBRANCH  32  33
ENDBRANCH   3  32
TORSDOF 8
ENDMDL
MODEL 10
REMARK VINA RESULT:      -6.4      3.908      8.124
REMARK  8 active torsions:
REMARK  status: ('A' for Active; 'I' for Inactive)
REMARK    1  A    between atoms: C_2  and  O_3 
REMARK    2  A    between atoms: O_3  and  C_4 
REMARK       I    between atoms: C_4  and  N_5 
REMARK    3  A    between atoms: C_8  and  N_9 
REMARK       I    between atoms: N_9  and  C_10 
REMARK    4  A    between atoms: C_10  and  C_11 
REMARK    5  A    between atoms: C_12  and  C_13 
REMARK    6  A    between atoms: N_18  and  C_19 
REMARK    7  A    between atoms: C_19  and  C_20 
REMARK    8  A    between atoms: C_20  and  O_21 
ROOT
HETATM    1  C   UNL     1      42.021 -13.706   2.108  1.00  0.00     0.139 C 
HETATM    2  C   UNL     1      42.067 -13.143   0.673  1.00  0.00     0.145 C 
HETATM    3  N   UNL     1      41.296 -13.968  -0.268  1.00  0.00    -0.335 N 
HETATM    4  C   UNL     1      41.511 -15.346  -0.274  1.00  0.00     0.255 C 
HETATM    5  O   UNL     1      41.066 -16.095  -1.138  1.00  0.00    -0.267 OA
HETATM    6  C   UNL     1      42.290 -15.909   0.875  1.00  0.00     0.039 A 
HETATM    7  C   UNL     1      42.521 -15.143   2.038  1.00  0.00    -0.027 A 
HETATM    8  C   UNL     1      42.750 -17.229   0.803  1.00  0.00     0.017 A 
HETATM    9  C   UNL     1      43.448 -17.785   1.875  1.00  0.00     0.001 A 
HETATM   10  C   UNL     1      43.679 -17.031   3.026  1.00  0.00     0.001 A 
HETATM   11  C   UNL     1      43.217 -15.717   3.112  1.00  0.00     0.009 A 
ENDROOT
BRANCH   1  12
HETATM   12  C   UNL     1      40.622 -13.649   2.737  1.00  0.00     0.229 C 
HETATM   13  N   UNL     1      40.545 -12.845   3.864  1.00  0.00    -0.356 N 
HETATM   14  H   UNL     1      41.359 -12.272   4.048  1.00  0.00     0.162 HD
HETATM   15  O   UNL     1      39.669 -14.288   2.306  1.00  0.00    -0.273 OA
BRANCH  13  16
HETATM   16  C   UNL     1      39.299 -12.340   4.457  1.00  0.00     0.087 C 
HETATM   17  C   UNL     1      38.922 -12.828   5.862  1.00  0.00     0.045 C 
HETATM   18  C   UNL     1      39.869 -12.292   6.925  1.00  0.00     0.130 C 
HETATM   19  N   UNL     1      39.958 -10.833   6.858  1.00  0.00    -0.328 N 
HETATM   20  C   UNL     1      40.193 -10.060   7.987  1.00  0.00     0.362 C 
HETATM   21  C   UNL     1      40.251 -10.262   5.551  1.00  0.00     0.130 C 
HETATM   22  O   UNL     1      40.514  -8.878   7.948  1.00  0.00    -0.238 OA
HETATM   23  C   UNL     1      39.324 -10.804   4.464  1.00  0.00     0.045 C 
BRANCH  20  24
HETATM   24  O   UNL     1      40.016 -10.758   9.141  1.00  0.00    -0.304 OA
BRANCH  24  25
HETATM   25  C   UNL     1      41.079 -10.686  10.101  1.00  0.00     0.176 C 
HETATM   26  C   UNL     1      40.545 -10.996  11.484  1.00  0.00     0.034 C 
ENDBRANCH  24  25
ENDBRANCH  20  24
ENDBRANCH  13  16
ENDBRANCH   1  12
BRANCH   2  27
HETATM   27  C   UNL     1      41.915 -11.643   0.497  1.00  0.00     0.006 A 
HETATM   28  S   UNL     1      42.771 -10.739  -0.685  1.00  0.00    -0.104 SA
HETATM   29  C   UNL     1      42.043  -9.272  -0.211  1.00  0.00     0.050 A 
HETATM   30  C   UNL     1      41.141  -9.453   0.812  1.00  0.00     0.008 A 
HETATM   31  C   UNL     1      41.061 -10.816   1.211  1.00  0.00     0.017 A 
ENDBRANCH   2  27
BRANCH   3  32
HETATM   32  C   UNL     1      40.116 -13.462  -0.975  1.00  0.00     0.153 C 
BRANCH  32  33
HETATM   33  C   UNL     1      40.379 -13.113  -2.438  1.00  0.00     0.187 C 
BRANCH  33  34
HETATM   34  O   UNL     1      39.291 -13.603  -3.228  1.00  0.00    -0.394 OA
HETATM   35  C   UNL     1      38.248 -14.130  -2.421  1.00  0.00     0.201 C 
ENDBRANCH  33  34
ENDBRANCH  32  33
ENDBRANCH   3  32
TORSDOF 8
ENDMDL
