MODEL 1
REMARK VINA RESULT:     -10.1      0.000      0.000
REMARK  7 active torsions:
REMARK  status: ('A' for Active; 'I' for Inactive)
REMARK    1  A    between atoms: N_5  and  C_6 
REMARK    2  A    between atoms: C_14  and  N_15 
REMARK       I    between atoms: N_15  and  C_16 
REMARK    3  A    between atoms: C_16  and  C_17 
REMARK    4  A    between atoms: C_17  and  C_18 
REMARK    5  A    between atoms: C_18  and  C_19 
REMARK    6  A    between atoms: C_19  and  C_20 
REMARK       I    between atoms: C_20  and  N_21 
REMARK    7  A    between atoms: N_24  and  C_25 
ROOT
HETATM    1  C   UNL     1      40.700 -12.456   6.500  1.00  0.00     0.112 C 
ENDROOT
BRANCH   1   2
HETATM    2  C   UNL     1      41.260 -11.061   6.547  1.00  0.00     0.223 C 
HETATM    3  N   UNL     1      42.089 -10.599   7.506  1.00  0.00    -0.321 N 
HETATM    4  H   UNL     1      42.308  -9.624   7.280  1.00  0.00     0.169 HD
HETATM    5  O   UNL     1      40.949 -10.258   5.657  1.00  0.00    -0.273 OA
BRANCH   3   6
HETATM    6  C   UNL     1      42.673 -10.962   8.689  1.00  0.00     0.129 C 
HETATM    7  C   UNL     1      43.773 -11.574   9.168  1.00  0.00     0.057 C 
HETATM    8  C   UNL     1      44.971 -12.111   8.457  1.00  0.00     0.072 C 
HETATM    9  N   UNL     1      43.762 -11.663  10.579  1.00  0.00    -0.289 N 
HETATM   10  C   UNL     1      44.304 -12.812  11.303  1.00  0.00     0.178 C 
HETATM   11  N   UNL     1      42.504 -11.162  11.031  1.00  0.00    -0.217 N 
HETATM   12  C   UNL     1      41.877 -10.603   9.919  1.00  0.00     0.295 C 
HETATM   13  O   UNL     1      40.856  -9.928   9.855  1.00  0.00    -0.264 OA
BRANCH  11  14
HETATM   14  C   UNL     1      42.435 -10.558  12.314  1.00  0.00     0.060 A 
HETATM   15  C   UNL     1      43.444  -9.673  12.718  1.00  0.00     0.031 A 
HETATM   16  C   UNL     1      43.426  -9.105  13.994  1.00  0.00     0.002 A 
HETATM   17  C   UNL     1      42.400  -9.418  14.884  1.00  0.00     0.000 A 
HETATM   18  C   UNL     1      41.400 -10.309  14.501  1.00  0.00     0.002 A 
HETATM   19  C   UNL     1      41.423 -10.884  13.226  1.00  0.00     0.031 A 
ENDBRANCH  11  14
ENDBRANCH   3   6
ENDBRANCH   1   2
BRANCH   1  20
HETATM   20  C   UNL     1      41.402 -13.402   5.477  1.00  0.00    -0.031 C 
HETATM   21  C   UNL     1      41.485 -12.636   4.142  1.00  0.00     0.016 C 
HETATM   22  C   UNL     1      42.851 -13.684   5.938  1.00  0.00     0.016 C 
BRANCH  20  23
HETATM   23  C   UNL     1      40.631 -14.738   5.329  1.00  0.00     0.112 C 
BRANCH  23  24
HETATM   24  C   UNL     1      40.781 -15.464   3.996  1.00  0.00     0.220 C 
HETATM   25  N   UNL     1      41.831 -16.353   3.825  1.00  0.00    -0.349 N 
HETATM   26  C   UNL     1      41.977 -16.992   2.508  1.00  0.00     0.145 C 
HETATM   27  C   UNL     1      42.552 -17.046   4.905  1.00  0.00     0.145 C 
HETATM   28  C   UNL     1      43.452 -17.247   2.148  1.00  0.00     0.143 C 
HETATM   29  N   UNL     1      44.138 -18.011   3.218  1.00  0.00    -0.375 N 
HETATM   30  C   UNL     1      44.015 -17.368   4.541  1.00  0.00     0.143 C 
HETATM   31  O   UNL     1      40.004 -15.198   3.075  1.00  0.00    -0.273 OA
BRANCH  29  32
HETATM   32  C   UNL     1      44.154 -19.404   3.090  1.00  0.00     0.069 A 
HETATM   33  C   UNL     1      44.734 -20.297   4.010  1.00  0.00     0.142 A 
HETATM   34  F   UNL     1      45.305 -19.851   5.141  1.00  0.00    -0.204 F 
HETATM   35  C   UNL     1      44.726 -21.682   3.815  1.00  0.00     0.044 A 
HETATM   36  C   UNL     1      44.149 -22.224   2.672  1.00  0.00     0.003 A 
HETATM   37  C   UNL     1      43.589 -21.375   1.727  1.00  0.00     0.002 A 
HETATM   38  C   UNL     1      43.598 -19.989   1.935  1.00  0.00     0.032 A 
ENDBRANCH  29  32
ENDBRANCH  23  24
ENDBRANCH  20  23
ENDBRANCH   1  20
TORSDOF 7
ENDMDL
MODEL 2
REMARK VINA RESULT:      -9.9      3.962      7.874
REMARK  7 active torsions:
REMARK  status: ('A' for Active; 'I' for Inactive)
REMARK    1  A    between atoms: N_5  and  C_6 
REMARK    2  A    between atoms: C_14  and  N_15 
REMARK       I    between atoms: N_15  and  C_16 
REMARK    3  A    between atoms: C_16  and  C_17 
REMARK    4  A    between atoms: C_17  and  C_18 
REMARK    5  A    between atoms: C_18  and  C_19 
REMARK    6  A    between atoms: C_19  and  C_20 
REMARK       I    between atoms: C_20  and  N_21 
REMARK    7  A    between atoms: N_24  and  C_25 
ROOT
HETATM    1  C   UNL     1      40.733 -11.398   4.776  1.00  0.00     0.112 C 
ENDROOT
BRANCH   1   2
HETATM    2  C   UNL     1      39.385 -11.792   4.236  1.00  0.00     0.223 C 
HETATM    3  N   UNL     1      39.191 -12.562   3.145  1.00  0.00    -0.321 N 
HETATM    4  H   UNL     1      38.179 -12.665   3.017  1.00  0.00     0.169 HD
HETATM    5  O   UNL     1      38.366 -11.389   4.812  1.00  0.00    -0.273 OA
BRANCH   3   6
HETATM    6  C   UNL     1      39.870 -13.185   2.133  1.00  0.00     0.129 C 
HETATM    7  C   UNL     1      40.389 -12.937   0.916  1.00  0.00     0.057 C 
HETATM    8  C   UNL     1      40.469 -11.667   0.135  1.00  0.00     0.072 C 
HETATM    9  N   UNL     1      40.977 -14.089   0.343  1.00  0.00    -0.289 N 
HETATM   10  C   UNL     1      40.922 -14.376  -1.090  1.00  0.00     0.178 C 
HETATM   11  N   UNL     1      40.718 -15.185   1.221  1.00  0.00    -0.217 N 
HETATM   12  C   UNL     1      40.168 -14.643   2.381  1.00  0.00     0.295 C 
HETATM   13  O   UNL     1      39.929 -15.179   3.457  1.00  0.00    -0.264 OA
BRANCH  11  14
HETATM   14  C   UNL     1      41.649 -16.257   1.261  1.00  0.00     0.060 A 
HETATM   15  C   UNL     1      41.183 -17.577   1.311  1.00  0.00     0.031 A 
HETATM   16  C   UNL     1      42.078 -18.646   1.402  1.00  0.00     0.002 A 
HETATM   17  C   UNL     1      43.449 -18.407   1.448  1.00  0.00     0.000 A 
HETATM   18  C   UNL     1      43.925 -17.098   1.416  1.00  0.00     0.002 A 
HETATM   19  C   UNL     1      43.029 -16.027   1.334  1.00  0.00     0.031 A 
ENDBRANCH  11  14
ENDBRANCH   3   6
ENDBRANCH   1   2
BRANCH   1  20
HETATM   20  C   UNL     1      41.388 -12.457   5.716  1.00  0.00    -0.031 C 
HETATM   21  C   UNL     1      41.915 -11.698   6.949  1.00  0.00     0.016 C 
HETATM   22  C   UNL     1      40.311 -13.451   6.211  1.00  0.00     0.016 C 
BRANCH  20  23
HETATM   23  C   UNL     1      42.517 -13.230   4.987  1.00  0.00     0.112 C 
BRANCH  23  24
HETATM   24  C   UNL     1      43.438 -14.072   5.865  1.00  0.00     0.220 C 
HETATM   25  N   UNL     1      43.227 -15.441   5.948  1.00  0.00    -0.349 N 
HETATM   26  C   UNL     1      44.099 -16.212   6.847  1.00  0.00     0.145 C 
HETATM   27  C   UNL     1      42.530 -16.263   4.945  1.00  0.00     0.145 C 
HETATM   28  C   UNL     1      43.362 -17.403   7.487  1.00  0.00     0.143 C 
HETATM   29  N   UNL     1      42.730 -18.258   6.453  1.00  0.00    -0.375 N 
HETATM   30  C   UNL     1      41.837 -17.497   5.557  1.00  0.00     0.143 C 
HETATM   31  O   UNL     1      44.310 -13.512   6.533  1.00  0.00    -0.273 OA
BRANCH  29  32
HETATM   32  C   UNL     1      43.483 -19.336   5.976  1.00  0.00     0.069 A 
HETATM   33  C   UNL     1      43.738 -20.525   6.686  1.00  0.00     0.142 A 
HETATM   34  F   UNL     1      43.219 -20.726   7.909  1.00  0.00    -0.204 F 
HETATM   35  C   UNL     1      44.511 -21.562   6.155  1.00  0.00     0.044 A 
HETATM   36  C   UNL     1      45.080 -21.435   4.893  1.00  0.00     0.003 A 
HETATM   37  C   UNL     1      44.875 -20.266   4.171  1.00  0.00     0.002 A 
HETATM   38  C   UNL     1      44.093 -19.236   4.710  1.00  0.00     0.032 A 
ENDBRANCH  29  32
ENDBRANCH  23  24
ENDBRANCH  20  23
ENDBRANCH   1  20
TORSDOF 7
ENDMDL
MODEL 3
REMARK VINA RESULT:      -9.8      5.004      9.211
REMARK  7 active torsions:
REMARK  status: ('A' for Active; 'I' for Inactive)
REMARK    1  A    between atoms: N_5  and  C_6 
REMARK    2  A    between atoms: C_14  and  N_15 
REMARK       I    between atoms: N_15  and  C_16 
REMARK    3  A    between atoms: C_16  and  C_17 
REMARK    4  A    between atoms: C_17  and  C_18 
REMARK    5  A    between atoms: C_18  and  C_19 
REMARK    6  A    between atoms: C_19  and  C_20 
REMARK       I    between atoms: C_20  and  N_21 
REMARK    7  A    between atoms: N_24  and  C_25 
ROOT
HETATM    1  C   UNL     1      42.301 -13.010   4.587  1.00  0.00     0.112 C 
ENDROOT
BRANCH   1   2
HETATM    2  C   UNL     1      42.705 -13.611   3.268  1.00  0.00     0.223 C 
HETATM    3  N   UNL     1      42.879 -14.932   3.049  1.00  0.00    -0.321 N 
HETATM    4  H   UNL     1      43.149 -15.047   2.067  1.00  0.00     0.169 HD
HETATM    5  O   UNL     1      42.903 -12.863   2.302  1.00  0.00    -0.273 OA
BRANCH   3   6
HETATM    6  C   UNL     1      42.883 -16.138   3.695  1.00  0.00     0.129 C 
HETATM    7  C   UNL     1      42.362 -16.745   4.778  1.00  0.00     0.057 C 
HETATM    8  C   UNL     1      41.387 -16.248   5.794  1.00  0.00     0.072 C 
HETATM    9  N   UNL     1      42.810 -18.081   4.908  1.00  0.00    -0.289 N 
HETATM   10  C   UNL     1      43.073 -18.704   6.204  1.00  0.00     0.178 C 
HETATM   11  N   UNL     1      43.779 -18.310   3.884  1.00  0.00    -0.217 N 
HETATM   12  C   UNL     1      43.744 -17.195   3.049  1.00  0.00     0.295 C 
HETATM   13  O   UNL     1      44.287 -17.013   1.965  1.00  0.00    -0.264 OA
BRANCH  11  14
HETATM   14  C   UNL     1      43.928 -19.626   3.374  1.00  0.00     0.060 A 
HETATM   15  C   UNL     1      44.768 -20.533   4.032  1.00  0.00     0.031 A 
HETATM   16  C   UNL     1      44.971 -21.818   3.522  1.00  0.00     0.002 A 
HETATM   17  C   UNL     1      44.338 -22.209   2.344  1.00  0.00     0.000 A 
HETATM   18  C   UNL     1      43.513 -21.312   1.671  1.00  0.00     0.002 A 
HETATM   19  C   UNL     1      43.317 -20.023   2.177  1.00  0.00     0.031 A 
ENDBRANCH  11  14
ENDBRANCH   3   6
ENDBRANCH   1   2
BRANCH   1  20
HETATM   20  C   UNL     1      40.849 -12.439   4.620  1.00  0.00    -0.031 C 
HETATM   21  C   UNL     1      40.444 -12.324   6.102  1.00  0.00     0.016 C 
HETATM   22  C   UNL     1      40.837 -11.011   4.026  1.00  0.00     0.016 C 
BRANCH  20  23
HETATM   23  C   UNL     1      39.874 -13.344   3.823  1.00  0.00     0.112 C 
BRANCH  23  24
HETATM   24  C   UNL     1      39.175 -12.703   2.629  1.00  0.00     0.220 C 
HETATM   25  N   UNL     1      39.512 -13.114   1.348  1.00  0.00    -0.349 N 
HETATM   26  C   UNL     1      38.858 -12.434   0.220  1.00  0.00     0.145 C 
HETATM   27  C   UNL     1      40.113 -14.410   0.994  1.00  0.00     0.145 C 
HETATM   28  C   UNL     1      39.784 -12.326  -1.006  1.00  0.00     0.143 C 
HETATM   29  N   UNL     1      40.319 -13.655  -1.389  1.00  0.00    -0.375 N 
HETATM   30  C   UNL     1      40.994 -14.338  -0.269  1.00  0.00     0.143 C 
HETATM   31  O   UNL     1      38.372 -11.786   2.823  1.00  0.00    -0.273 OA
BRANCH  29  32
HETATM   32  C   UNL     1      39.595 -14.377  -2.345  1.00  0.00     0.069 A 
HETATM   33  C   UNL     1      40.123 -15.391  -3.168  1.00  0.00     0.142 A 
HETATM   34  F   UNL     1      41.406 -15.773  -3.057  1.00  0.00    -0.204 F 
HETATM   35  C   UNL     1      39.345 -16.066  -4.114  1.00  0.00     0.044 A 
HETATM   36  C   UNL     1      38.007 -15.733  -4.285  1.00  0.00     0.003 A 
HETATM   37  C   UNL     1      37.455 -14.720  -3.512  1.00  0.00     0.002 A 
HETATM   38  C   UNL     1      38.241 -14.053  -2.563  1.00  0.00     0.032 A 
ENDBRANCH  29  32
ENDBRANCH  23  24
ENDBRANCH  20  23
ENDBRANCH   1  20
TORSDOF 7
ENDMDL
MODEL 4
REMARK VINA RESULT:      -9.7      3.969      5.586
REMARK  7 active torsions:
REMARK  status: ('A' for Active; 'I' for Inactive)
REMARK    1  A    between atoms: N_5  and  C_6 
REMARK    2  A    between atoms: C_14  and  N_15 
REMARK       I    between atoms: N_15  and  C_16 
REMARK    3  A    between atoms: C_16  and  C_17 
REMARK    4  A    between atoms: C_17  and  C_18 
REMARK    5  A    between atoms: C_18  and  C_19 
REMARK    6  A    between atoms: C_19  and  C_20 
REMARK       I    between atoms: C_20  and  N_21 
REMARK    7  A    between atoms: N_24  and  C_25 
ROOT
HETATM    1  C   UNL     1      39.307 -12.396   0.850  1.00  0.00     0.112 C 
ENDROOT
BRANCH   1   2
HETATM    2  C   UNL     1      40.754 -11.989   0.777  1.00  0.00     0.223 C 
HETATM    3  N   UNL     1      41.598 -11.967   1.830  1.00  0.00    -0.321 N 
HETATM    4  H   UNL     1      42.511 -11.655   1.486  1.00  0.00     0.169 HD
HETATM    5  O   UNL     1      41.227 -11.641  -0.313  1.00  0.00    -0.273 OA
BRANCH   3   6
HETATM    6  C   UNL     1      41.632 -12.153   3.185  1.00  0.00     0.129 C 
HETATM    7  C   UNL     1      41.046 -11.714   4.316  1.00  0.00     0.057 C 
HETATM    8  C   UNL     1      39.924 -10.749   4.515  1.00  0.00     0.072 C 
HETATM    9  N   UNL     1      41.589 -12.325   5.470  1.00  0.00    -0.289 N 
HETATM   10  C   UNL     1      41.756 -11.614   6.736  1.00  0.00     0.178 C 
HETATM   11  N   UNL     1      42.683 -13.141   5.049  1.00  0.00    -0.217 N 
HETATM   12  C   UNL     1      42.648 -13.164   3.656  1.00  0.00     0.295 C 
HETATM   13  O   UNL     1      43.292 -13.849   2.870  1.00  0.00    -0.264 OA
BRANCH  11  14
HETATM   14  C   UNL     1      43.000 -14.296   5.812  1.00  0.00     0.060 A 
HETATM   15  C   UNL     1      42.003 -15.241   6.085  1.00  0.00     0.031 A 
HETATM   16  C   UNL     1      42.278 -16.360   6.875  1.00  0.00     0.002 A 
HETATM   17  C   UNL     1      43.553 -16.545   7.404  1.00  0.00     0.000 A 
HETATM   18  C   UNL     1      44.549 -15.604   7.154  1.00  0.00     0.002 A 
HETATM   19  C   UNL     1      44.272 -14.479   6.371  1.00  0.00     0.031 A 
ENDBRANCH  11  14
ENDBRANCH   3   6
ENDBRANCH   1   2
BRANCH   1  20
HETATM   20  C   UNL     1      39.033 -13.883   0.468  1.00  0.00    -0.031 C 
HETATM   21  C   UNL     1      37.520 -14.120   0.640  1.00  0.00     0.016 C 
HETATM   22  C   UNL     1      39.369 -14.108  -1.025  1.00  0.00     0.016 C 
BRANCH  20  23
HETATM   23  C   UNL     1      39.872 -14.849   1.344  1.00  0.00     0.112 C 
BRANCH  23  24
HETATM   24  C   UNL     1      41.013 -15.582   0.644  1.00  0.00     0.220 C 
HETATM   25  N   UNL     1      41.845 -16.404   1.388  1.00  0.00    -0.349 N 
HETATM   26  C   UNL     1      42.967 -17.050   0.691  1.00  0.00     0.145 C 
HETATM   27  C   UNL     1      41.501 -17.035   2.673  1.00  0.00     0.145 C 
HETATM   28  C   UNL     1      44.197 -17.215   1.602  1.00  0.00     0.143 C 
HETATM   29  N   UNL     1      43.841 -17.918   2.857  1.00  0.00    -0.375 N 
HETATM   30  C   UNL     1      42.729 -17.268   3.576  1.00  0.00     0.143 C 
HETATM   31  O   UNL     1      41.211 -15.378  -0.556  1.00  0.00    -0.273 OA
BRANCH  29  32
HETATM   32  C   UNL     1      43.992 -19.309   2.868  1.00  0.00     0.069 A 
HETATM   33  C   UNL     1      44.652 -20.047   3.869  1.00  0.00     0.142 A 
HETATM   34  F   UNL     1      45.172 -19.438   4.948  1.00  0.00    -0.204 F 
HETATM   35  C   UNL     1      44.779 -21.439   3.812  1.00  0.00     0.044 A 
HETATM   36  C   UNL     1      44.263 -22.144   2.730  1.00  0.00     0.003 A 
HETATM   37  C   UNL     1      43.628 -21.450   1.708  1.00  0.00     0.002 A 
HETATM   38  C   UNL     1      43.502 -20.057   1.778  1.00  0.00     0.032 A 
ENDBRANCH  29  32
ENDBRANCH  23  24
ENDBRANCH  20  23
ENDBRANCH   1  20
TORSDOF 7
ENDMDL
MODEL 5
REMARK VINA RESULT:      -9.7      4.832      8.889
REMARK  7 active torsions:
REMARK  status: ('A' for Active; 'I' for Inactive)
REMARK    1  A    between atoms: N_5  and  C_6 
REMARK    2  A    between atoms: C_14  and  N_15 
REMARK       I    between atoms: N_15  and  C_16 
REMARK    3  A    between atoms: C_16  and  C_17 
REMARK    4  A    between atoms: C_17  and  C_18 
REMARK    5  A    between atoms: C_18  and  C_19 
REMARK    6  A    between atoms: C_19  and  C_20 
REMARK       I    between atoms: C_20  and  N_21 
REMARK    7  A    between atoms: N_24  and  C_25 
ROOT
HETATM    1  C   UNL     1      40.683 -11.997   4.246  1.00  0.00     0.112 C 
ENDROOT
BRANCH   1   2
HETATM    2  C   UNL     1      39.246 -12.163   3.833  1.00  0.00     0.223 C 
HETATM    3  N   UNL     1      38.823 -12.268   2.555  1.00  0.00    -0.321 N 
HETATM    4  H   UNL     1      37.804 -12.373   2.577  1.00  0.00     0.169 HD
HETATM    5  O   UNL     1      38.370 -12.203   4.706  1.00  0.00    -0.273 OA
BRANCH   3   6
HETATM    6  C   UNL     1      39.275 -12.217   1.265  1.00  0.00     0.129 C 
HETATM    7  C   UNL     1      40.188 -11.587   0.501  1.00  0.00     0.057 C 
HETATM    8  C   UNL     1      41.244 -10.597   0.869  1.00  0.00     0.072 C 
HETATM    9  N   UNL     1      40.121 -11.992  -0.852  1.00  0.00    -0.289 N 
HETATM   10  C   UNL     1      40.360 -11.074  -1.965  1.00  0.00     0.178 C 
HETATM   11  N   UNL     1      39.006 -12.873  -0.982  1.00  0.00    -0.217 N 
HETATM   12  C   UNL     1      38.555 -13.136   0.310  1.00  0.00     0.295 C 
HETATM   13  O   UNL     1      37.724 -13.949   0.697  1.00  0.00    -0.264 OA
BRANCH  11  14
HETATM   14  C   UNL     1      39.050 -13.880  -1.982  1.00  0.00     0.060 A 
HETATM   15  C   UNL     1      37.905 -14.151  -2.743  1.00  0.00     0.031 A 
HETATM   16  C   UNL     1      37.908 -15.170  -3.699  1.00  0.00     0.002 A 
HETATM   17  C   UNL     1      39.055 -15.934  -3.901  1.00  0.00     0.000 A 
HETATM   18  C   UNL     1      40.195 -15.687  -3.139  1.00  0.00     0.002 A 
HETATM   19  C   UNL     1      40.189 -14.671  -2.177  1.00  0.00     0.031 A 
ENDBRANCH  11  14
ENDBRANCH   3   6
ENDBRANCH   1   2
BRANCH   1  20
HETATM   20  C   UNL     1      41.502 -13.325   4.284  1.00  0.00    -0.031 C 
HETATM   21  C   UNL     1      42.352 -13.365   2.999  1.00  0.00     0.016 C 
HETATM   22  C   UNL     1      42.479 -13.300   5.483  1.00  0.00     0.016 C 
BRANCH  20  23
HETATM   23  C   UNL     1      40.567 -14.556   4.397  1.00  0.00     0.112 C 
BRANCH  23  24
HETATM   24  C   UNL     1      40.622 -15.557   3.248  1.00  0.00     0.220 C 
HETATM   25  N   UNL     1      41.704 -16.420   3.154  1.00  0.00    -0.349 N 
HETATM   26  C   UNL     1      41.751 -17.332   2.001  1.00  0.00     0.145 C 
HETATM   27  C   UNL     1      42.579 -16.822   4.267  1.00  0.00     0.145 C 
HETATM   28  C   UNL     1      43.193 -17.603   1.535  1.00  0.00     0.143 C 
HETATM   29  N   UNL     1      44.037 -18.078   2.658  1.00  0.00    -0.375 N 
HETATM   30  C   UNL     1      44.013 -17.159   3.813  1.00  0.00     0.143 C 
HETATM   31  O   UNL     1      39.736 -15.537   2.389  1.00  0.00    -0.273 OA
BRANCH  29  32
HETATM   32  C   UNL     1      44.130 -19.462   2.838  1.00  0.00     0.069 A 
HETATM   33  C   UNL     1      44.682 -20.099   3.967  1.00  0.00     0.142 A 
HETATM   34  F   UNL     1      45.142 -19.385   5.007  1.00  0.00    -0.204 F 
HETATM   35  C   UNL     1      44.755 -21.491   4.078  1.00  0.00     0.044 A 
HETATM   36  C   UNL     1      44.295 -22.300   3.046  1.00  0.00     0.003 A 
HETATM   37  C   UNL     1      43.768 -21.711   1.905  1.00  0.00     0.002 A 
HETATM   38  C   UNL     1      43.694 -20.315   1.805  1.00  0.00     0.032 A 
ENDBRANCH  29  32
ENDBRANCH  23  24
ENDBRANCH  20  23
ENDBRANCH   1  20
TORSDOF 7
ENDMDL
MODEL 6
REMARK VINA RESULT:      -9.5      5.635     10.145
REMARK  7 active torsions:
REMARK  status: ('A' for Active; 'I' for Inactive)
REMARK    1  A    between atoms: N_5  and  C_6 
REMARK    2  A    between atoms: C_14  and  N_15 
REMARK       I    between atoms: N_15  and  C_16 
REMARK    3  A    between atoms: C_16  and  C_17 
REMARK    4  A    between atoms: C_17  and  C_18 
REMARK    5  A    between atoms: C_18  and  C_19 
REMARK    6  A    between atoms: C_19  and  C_20 
REMARK       I    between atoms: C_20  and  N_21 
REMARK    7  A    between atoms: N_24  and  C_25 
ROOT
HETATM    1  C   UNL     1      40.421 -14.615   3.594  1.00  0.00     0.112 C 
ENDROOT
BRANCH   1   2
HETATM    2  C   UNL     1      41.828 -14.219   3.954  1.00  0.00     0.223 C 
HETATM    3  N   UNL     1      42.780 -15.075   4.379  1.00  0.00    -0.321 N 
HETATM    4  H   UNL     1      43.632 -14.530   4.545  1.00  0.00     0.169 HD
HETATM    5  O   UNL     1      42.158 -13.029   3.868  1.00  0.00    -0.273 OA
BRANCH   3   6
HETATM    6  C   UNL     1      42.973 -16.386   4.721  1.00  0.00     0.129 C 
HETATM    7  C   UNL     1      42.741 -17.249   5.728  1.00  0.00     0.057 C 
HETATM    8  C   UNL     1      42.019 -17.059   7.021  1.00  0.00     0.072 C 
HETATM    9  N   UNL     1      43.248 -18.540   5.451  1.00  0.00    -0.289 N 
HETATM   10  C   UNL     1      43.828 -19.400   6.482  1.00  0.00     0.178 C 
HETATM   11  N   UNL     1      43.953 -18.468   4.212  1.00  0.00    -0.217 N 
HETATM   12  C   UNL     1      43.689 -17.209   3.678  1.00  0.00     0.295 C 
HETATM   13  O   UNL     1      43.954 -16.759   2.569  1.00  0.00    -0.264 OA
BRANCH  11  14
HETATM   14  C   UNL     1      44.017 -19.630   3.399  1.00  0.00     0.060 A 
HETATM   15  C   UNL     1      43.121 -19.780   2.333  1.00  0.00     0.031 A 
HETATM   16  C   UNL     1      43.131 -20.936   1.549  1.00  0.00     0.002 A 
HETATM   17  C   UNL     1      44.035 -21.960   1.826  1.00  0.00     0.000 A 
HETATM   18  C   UNL     1      44.920 -21.831   2.893  1.00  0.00     0.002 A 
HETATM   19  C   UNL     1      44.905 -20.677   3.683  1.00  0.00     0.031 A 
ENDBRANCH  11  14
ENDBRANCH   3   6
ENDBRANCH   1   2
BRANCH   1  20
HETATM   20  C   UNL     1      40.266 -15.225   2.167  1.00  0.00    -0.031 C 
HETATM   21  C   UNL     1      40.276 -16.757   2.330  1.00  0.00     0.016 C 
HETATM   22  C   UNL     1      38.890 -14.833   1.579  1.00  0.00     0.016 C 
BRANCH  20  23
HETATM   23  C   UNL     1      41.395 -14.737   1.224  1.00  0.00     0.112 C 
BRANCH  23  24
HETATM   24  C   UNL     1      41.219 -15.041  -0.260  1.00  0.00     0.220 C 
HETATM   25  N   UNL     1      40.832 -14.023  -1.118  1.00  0.00    -0.349 N 
HETATM   26  C   UNL     1      40.618 -14.366  -2.532  1.00  0.00     0.145 C 
HETATM   27  C   UNL     1      41.019 -12.582  -0.877  1.00  0.00     0.145 C 
HETATM   28  C   UNL     1      39.498 -13.523  -3.169  1.00  0.00     0.143 C 
HETATM   29  N   UNL     1      39.746 -12.074  -2.978  1.00  0.00    -0.375 N 
HETATM   30  C   UNL     1      39.943 -11.715  -1.560  1.00  0.00     0.143 C 
HETATM   31  O   UNL     1      41.360 -16.201  -0.657  1.00  0.00    -0.273 OA
BRANCH  29  32
HETATM   32  C   UNL     1      40.443 -11.412  -3.994  1.00  0.00     0.069 A 
HETATM   33  C   UNL     1      41.840 -11.438  -4.171  1.00  0.00     0.142 A 
HETATM   34  F   UNL     1      42.626 -12.163  -3.359  1.00  0.00    -0.204 F 
HETATM   35  C   UNL     1      42.476 -10.742  -5.203  1.00  0.00     0.044 A 
HETATM   36  C   UNL     1      41.732  -9.972  -6.090  1.00  0.00     0.003 A 
HETATM   37  C   UNL     1      40.354  -9.898  -5.934  1.00  0.00     0.002 A 
HETATM   38  C   UNL     1      39.726 -10.604  -4.899  1.00  0.00     0.032 A 
ENDBRANCH  29  32
ENDBRANCH  23  24
ENDBRANCH  20  23
ENDBRANCH   1  20
TORSDOF 7
ENDMDL
MODEL 7
REMARK VINA RESULT:      -9.4      1.527      2.332
REMARK  7 active torsions:
REMARK  status: ('A' for Active; 'I' for Inactive)
REMARK    1  A    between atoms: N_5  and  C_6 
REMARK    2  A    between atoms: C_14  and  N_15 
REMARK       I    between atoms: N_15  and  C_16 
REMARK    3  A    between atoms: C_16  and  C_17 
REMARK    4  A    between atoms: C_17  and  C_18 
REMARK    5  A    between atoms: C_18  and  C_19 
REMARK    6  A    between atoms: C_19  and  C_20 
REMARK       I    between atoms: C_20  and  N_21 
REMARK    7  A    between atoms: N_24  and  C_25 
ROOT
HETATM    1  C   UNL     1      41.371 -12.274   6.125  1.00  0.00     0.112 C 
ENDROOT
BRANCH   1   2
HETATM    2  C   UNL     1      41.546 -10.824   6.489  1.00  0.00     0.223 C 
HETATM    3  N   UNL     1      42.147 -10.382   7.614  1.00  0.00    -0.321 N 
HETATM    4  H   UNL     1      42.123  -9.358   7.593  1.00  0.00     0.169 HD
HETATM    5  O   UNL     1      41.111  -9.955   5.721  1.00  0.00    -0.273 OA
BRANCH   3   6
HETATM    6  C   UNL     1      42.707 -10.828   8.780  1.00  0.00     0.129 C 
HETATM    7  C   UNL     1      43.765 -11.528   9.231  1.00  0.00     0.057 C 
HETATM    8  C   UNL     1      44.926 -12.113   8.496  1.00  0.00     0.072 C 
HETATM    9  N   UNL     1      43.749 -11.671  10.638  1.00  0.00    -0.289 N 
HETATM   10  C   UNL     1      44.216 -12.880  11.315  1.00  0.00     0.178 C 
HETATM   11  N   UNL     1      42.527 -11.108  11.113  1.00  0.00    -0.217 N 
HETATM   12  C   UNL     1      41.936 -10.467  10.026  1.00  0.00     0.295 C 
HETATM   13  O   UNL     1      40.961  -9.726   9.991  1.00  0.00    -0.264 OA
BRANCH  11  14
HETATM   14  C   UNL     1      42.498 -10.552  12.419  1.00  0.00     0.060 A 
HETATM   15  C   UNL     1      41.447 -10.875  13.287  1.00  0.00     0.031 A 
HETATM   16  C   UNL     1      41.370 -10.302  14.559  1.00  0.00     0.002 A 
HETATM   17  C   UNL     1      42.341  -9.395  14.976  1.00  0.00     0.000 A 
HETATM   18  C   UNL     1      43.383  -9.052  14.117  1.00  0.00     0.002 A 
HETATM   19  C   UNL     1      43.456  -9.620  12.840  1.00  0.00     0.031 A 
ENDBRANCH  11  14
ENDBRANCH   3   6
ENDBRANCH   1   2
BRANCH   1  20
HETATM   20  C   UNL     1      39.891 -12.767   6.126  1.00  0.00    -0.031 C 
HETATM   21  C   UNL     1      39.292 -12.390   7.495  1.00  0.00     0.016 C 
HETATM   22  C   UNL     1      39.088 -12.005   5.045  1.00  0.00     0.016 C 
BRANCH  20  23
HETATM   23  C   UNL     1      39.809 -14.292   5.860  1.00  0.00     0.112 C 
BRANCH  23  24
HETATM   24  C   UNL     1      40.901 -14.886   4.976  1.00  0.00     0.220 C 
HETATM   25  N   UNL     1      41.782 -15.810   5.519  1.00  0.00    -0.349 N 
HETATM   26  C   UNL     1      42.856 -16.319   4.653  1.00  0.00     0.145 C 
HETATM   27  C   UNL     1      41.524 -16.647   6.702  1.00  0.00     0.145 C 
HETATM   28  C   UNL     1      44.144 -16.617   5.442  1.00  0.00     0.143 C 
HETATM   29  N   UNL     1      43.872 -17.522   6.585  1.00  0.00    -0.375 N 
HETATM   30  C   UNL     1      42.810 -17.011   7.472  1.00  0.00     0.143 C 
HETATM   31  O   UNL     1      41.020 -14.485   3.816  1.00  0.00    -0.273 OA
BRANCH  29  32
HETATM   32  C   UNL     1      44.025 -18.893   6.356  1.00  0.00     0.069 A 
HETATM   33  C   UNL     1      44.526 -19.468   5.172  1.00  0.00     0.142 A 
HETATM   34  F   UNL     1      44.944 -18.700   4.153  1.00  0.00    -0.204 F 
HETATM   35  C   UNL     1      44.641 -20.851   5.003  1.00  0.00     0.044 A 
HETATM   36  C   UNL     1      44.236 -21.716   6.014  1.00  0.00     0.003 A 
HETATM   37  C   UNL     1      43.711 -21.189   7.187  1.00  0.00     0.002 A 
HETATM   38  C   UNL     1      43.605 -19.802   7.348  1.00  0.00     0.032 A 
ENDBRANCH  29  32
ENDBRANCH  23  24
ENDBRANCH  20  23
ENDBRANCH   1  20
TORSDOF 7
ENDMDL
MODEL 8
REMARK VINA RESULT:      -9.3      2.901     10.517
REMARK  7 active torsions:
REMARK  status: ('A' for Active; 'I' for Inactive)
REMARK    1  A    between atoms: N_5  and  C_6 
REMARK    2  A    between atoms: C_14  and  N_15 
REMARK       I    between atoms: N_15  and  C_16 
REMARK    3  A    between atoms: C_16  and  C_17 
REMARK    4  A    between atoms: C_17  and  C_18 
REMARK    5  A    between atoms: C_18  and  C_19 
REMARK    6  A    between atoms: C_19  and  C_20 
REMARK       I    between atoms: C_20  and  N_21 
REMARK    7  A    between atoms: N_24  and  C_25 
ROOT
HETATM    1  C   UNL     1      39.956 -13.447   4.142  1.00  0.00     0.112 C 
ENDROOT
BRANCH   1   2
HETATM    2  C   UNL     1      40.281 -14.403   5.257  1.00  0.00     0.223 C 
HETATM    3  N   UNL     1      41.217 -15.374   5.186  1.00  0.00    -0.321 N 
HETATM    4  H   UNL     1      41.221 -15.863   6.086  1.00  0.00     0.169 HD
HETATM    5  O   UNL     1      39.658 -14.318   6.323  1.00  0.00    -0.273 OA
BRANCH   3   6
HETATM    6  C   UNL     1      42.096 -15.958   4.316  1.00  0.00     0.129 C 
HETATM    7  C   UNL     1      43.110 -15.645   3.487  1.00  0.00     0.057 C 
HETATM    8  C   UNL     1      43.781 -14.337   3.226  1.00  0.00     0.072 C 
HETATM    9  N   UNL     1      43.612 -16.779   2.807  1.00  0.00    -0.289 N 
HETATM   10  C   UNL     1      44.090 -16.725   1.426  1.00  0.00     0.178 C 
HETATM   11  N   UNL     1      42.782 -17.888   3.150  1.00  0.00    -0.217 N 
HETATM   12  C   UNL     1      41.937 -17.451   4.169  1.00  0.00     0.295 C 
HETATM   13  O   UNL     1      41.166 -18.092   4.873  1.00  0.00    -0.264 OA
BRANCH  11  14
HETATM   14  C   UNL     1      43.353 -19.188   3.153  1.00  0.00     0.060 A 
HETATM   15  C   UNL     1      44.173 -19.581   4.218  1.00  0.00     0.031 A 
HETATM   16  C   UNL     1      44.787 -20.836   4.221  1.00  0.00     0.002 A 
HETATM   17  C   UNL     1      44.590 -21.712   3.155  1.00  0.00     0.000 A 
HETATM   18  C   UNL     1      43.790 -21.327   2.082  1.00  0.00     0.002 A 
HETATM   19  C   UNL     1      43.182 -20.067   2.076  1.00  0.00     0.031 A 
ENDBRANCH  11  14
ENDBRANCH   3   6
ENDBRANCH   1   2
BRANCH   1  20
HETATM   20  C   UNL     1      40.440 -11.983   4.382  1.00  0.00    -0.031 C 
HETATM   21  C   UNL     1      41.799 -12.073   5.103  1.00  0.00     0.016 C 
HETATM   22  C   UNL     1      40.683 -11.285   3.025  1.00  0.00     0.016 C 
BRANCH  20  23
HETATM   23  C   UNL     1      39.402 -11.178   5.206  1.00  0.00     0.112 C 
BRANCH  23  24
HETATM   24  C   UNL     1      39.939  -9.993   6.001  1.00  0.00     0.220 C 
HETATM   25  N   UNL     1      39.996 -10.076   7.384  1.00  0.00    -0.349 N 
HETATM   26  C   UNL     1      40.467  -8.894   8.120  1.00  0.00     0.145 C 
HETATM   27  C   UNL     1      40.046 -11.323   8.166  1.00  0.00     0.145 C 
HETATM   28  C   UNL     1      39.773  -8.748   9.487  1.00  0.00     0.143 C 
HETATM   29  N   UNL     1      39.900  -9.990  10.286  1.00  0.00    -0.375 N 
HETATM   30  C   UNL     1      39.412 -11.181   9.564  1.00  0.00     0.143 C 
HETATM   31  O   UNL     1      40.251  -8.960   5.403  1.00  0.00    -0.273 OA
BRANCH  29  32
HETATM   32  C   UNL     1      40.990 -10.072  11.159  1.00  0.00     0.069 A 
HETATM   33  C   UNL     1      41.095 -10.960  12.247  1.00  0.00     0.142 A 
HETATM   34  F   UNL     1      40.126 -11.853  12.506  1.00  0.00    -0.204 F 
HETATM   35  C   UNL     1      42.210 -10.980  13.091  1.00  0.00     0.044 A 
HETATM   36  C   UNL     1      43.259 -10.091  12.886  1.00  0.00     0.003 A 
HETATM   37  C   UNL     1      43.182  -9.181  11.840  1.00  0.00     0.002 A 
HETATM   38  C   UNL     1      42.063  -9.172  10.997  1.00  0.00     0.032 A 
ENDBRANCH  29  32
ENDBRANCH  23  24
ENDBRANCH  20  23
ENDBRANCH   1  20
TORSDOF 7
ENDMDL
MODEL 9
REMARK VINA RESULT:      -9.3      2.724     10.894
REMARK  7 active torsions:
REMARK  status: ('A' for Active; 'I' for Inactive)
REMARK    1  A    between atoms: N_5  and  C_6 
REMARK    2  A    between atoms: C_14  and  N_15 
REMARK       I    between atoms: N_15  and  C_16 
REMARK    3  A    between atoms: C_16  and  C_17 
REMARK    4  A    between atoms: C_17  and  C_18 
REMARK    5  A    between atoms: C_18  and  C_19 
REMARK    6  A    between atoms: C_19  and  C_20 
REMARK       I    between atoms: C_20  and  N_21 
REMARK    7  A    between atoms: N_24  and  C_25 
ROOT
HETATM    1  C   UNL     1      42.405 -12.877   4.715  1.00  0.00     0.112 C 
ENDROOT
BRANCH   1   2
HETATM    2  C   UNL     1      42.525 -13.460   3.333  1.00  0.00     0.223 C 
HETATM    3  N   UNL     1      42.575 -14.781   3.061  1.00  0.00    -0.321 N 
HETATM    4  H   UNL     1      42.654 -14.882   2.044  1.00  0.00     0.169 HD
HETATM    5  O   UNL     1      42.590 -12.696   2.362  1.00  0.00    -0.273 OA
BRANCH   3   6
HETATM    6  C   UNL     1      42.621 -16.005   3.672  1.00  0.00     0.129 C 
HETATM    7  C   UNL     1      42.082 -16.677   4.706  1.00  0.00     0.057 C 
HETATM    8  C   UNL     1      41.024 -16.275   5.679  1.00  0.00     0.072 C 
HETATM    9  N   UNL     1      42.609 -17.985   4.824  1.00  0.00    -0.289 N 
HETATM   10  C   UNL     1      42.840 -18.631   6.115  1.00  0.00     0.178 C 
HETATM   11  N   UNL     1      43.644 -18.120   3.850  1.00  0.00    -0.217 N 
HETATM   12  C   UNL     1      43.583 -16.984   3.046  1.00  0.00     0.295 C 
HETATM   13  O   UNL     1      44.171 -16.735   2.000  1.00  0.00    -0.264 OA
BRANCH  11  14
HETATM   14  C   UNL     1      43.906 -19.408   3.312  1.00  0.00     0.060 A 
HETATM   15  C   UNL     1      43.221 -19.832   2.166  1.00  0.00     0.031 A 
HETATM   16  C   UNL     1      43.423 -21.113   1.647  1.00  0.00     0.002 A 
HETATM   17  C   UNL     1      44.311 -21.987   2.270  1.00  0.00     0.000 A 
HETATM   18  C   UNL     1      44.987 -21.584   3.420  1.00  0.00     0.002 A 
HETATM   19  C   UNL     1      44.777 -20.304   3.945  1.00  0.00     0.031 A 
ENDBRANCH  11  14
ENDBRANCH   3   6
ENDBRANCH   1   2
BRANCH   1  20
HETATM   20  C   UNL     1      41.004 -12.273   5.043  1.00  0.00    -0.031 C 
HETATM   21  C   UNL     1      40.209 -12.240   3.723  1.00  0.00     0.016 C 
HETATM   22  C   UNL     1      40.247 -13.208   6.014  1.00  0.00     0.016 C 
BRANCH  20  23
HETATM   23  C   UNL     1      41.136 -10.862   5.672  1.00  0.00     0.112 C 
BRANCH  23  24
HETATM   24  C   UNL     1      40.279 -10.586   6.904  1.00  0.00     0.220 C 
HETATM   25  N   UNL     1      40.872 -10.605   8.158  1.00  0.00    -0.349 N 
HETATM   26  C   UNL     1      40.005 -10.390   9.325  1.00  0.00     0.145 C 
HETATM   27  C   UNL     1      42.303 -10.394   8.432  1.00  0.00     0.145 C 
HETATM   28  C   UNL     1      40.481 -11.185  10.554  1.00  0.00     0.143 C 
HETATM   29  N   UNL     1      41.905 -10.900  10.856  1.00  0.00    -0.375 N 
HETATM   30  C   UNL     1      42.787 -11.132   9.696  1.00  0.00     0.143 C 
HETATM   31  O   UNL     1      39.065 -10.416   6.766  1.00  0.00    -0.273 OA
BRANCH  29  32
HETATM   32  C   UNL     1      42.165  -9.871  11.767  1.00  0.00     0.069 A 
HETATM   33  C   UNL     1      41.995  -8.497  11.510  1.00  0.00     0.142 A 
HETATM   34  F   UNL     1      41.516  -8.068  10.331  1.00  0.00    -0.204 F 
HETATM   35  C   UNL     1      42.286  -7.516  12.464  1.00  0.00     0.044 A 
HETATM   36  C   UNL     1      42.781  -7.878  13.711  1.00  0.00     0.003 A 
HETATM   37  C   UNL     1      42.987  -9.222  13.995  1.00  0.00     0.002 A 
HETATM   38  C   UNL     1      42.687 -10.197  13.035  1.00  0.00     0.032 A 
ENDBRANCH  29  32
ENDBRANCH  23  24
ENDBRANCH  20  23
ENDBRANCH   1  20
TORSDOF 7
ENDMDL
MODEL 10
REMARK VINA RESULT:      -9.3      4.700      8.949
REMARK  7 active torsions:
REMARK  status: ('A' for Active; 'I' for Inactive)
REMARK    1  A    between atoms: N_5  and  C_6 
REMARK    2  A    between atoms: C_14  and  N_15 
REMARK       I    between atoms: N_15  and  C_16 
REMARK    3  A    between atoms: C_16  and  C_17 
REMARK    4  A    between atoms: C_17  and  C_18 
REMARK    5  A    between atoms: C_18  and  C_19 
REMARK    6  A    between atoms: C_19  and  C_20 
REMARK       I    between atoms: C_20  and  N_21 
REMARK    7  A    between atoms: N_24  and  C_25 
ROOT
HETATM    1  C   UNL     1      40.690 -11.794   4.158  1.00  0.00     0.112 C 
ENDROOT
BRANCH   1   2
HETATM    2  C   UNL     1      39.232 -11.995   3.842  1.00  0.00     0.223 C 
HETATM    3  N   UNL     1      38.729 -12.128   2.596  1.00  0.00    -0.321 N 
HETATM    4  H   UNL     1      37.716 -12.253   2.686  1.00  0.00     0.169 HD
HETATM    5  O   UNL     1      38.416 -12.039   4.772  1.00  0.00    -0.273 OA
BRANCH   3   6
HETATM    6  C   UNL     1      39.095 -12.088   1.279  1.00  0.00     0.129 C 
HETATM    7  C   UNL     1      39.820 -11.350   0.417  1.00  0.00     0.057 C 
HETATM    8  C   UNL     1      40.670 -10.144   0.650  1.00  0.00     0.072 C 
HETATM    9  N   UNL     1      39.769 -11.864  -0.899  1.00  0.00    -0.289 N 
HETATM   10  C   UNL     1      39.758 -11.006  -2.083  1.00  0.00     0.178 C 
HETATM   11  N   UNL     1      38.851 -12.957  -0.898  1.00  0.00    -0.217 N 
HETATM   12  C   UNL     1      38.530 -13.204   0.435  1.00  0.00     0.295 C 
HETATM   13  O   UNL     1      37.902 -14.134   0.928  1.00  0.00    -0.264 OA
BRANCH  11  14
HETATM   14  C   UNL     1      39.048 -14.010  -1.830  1.00  0.00     0.060 A 
HETATM   15  C   UNL     1      40.282 -14.671  -1.878  1.00  0.00     0.031 A 
HETATM   16  C   UNL     1      40.518 -15.676  -2.819  1.00  0.00     0.002 A 
HETATM   17  C   UNL     1      39.522 -16.029  -3.728  1.00  0.00     0.000 A 
HETATM   18  C   UNL     1      38.296 -15.368  -3.702  1.00  0.00     0.002 A 
HETATM   19  C   UNL     1      38.063 -14.356  -2.765  1.00  0.00     0.031 A 
ENDBRANCH  11  14
ENDBRANCH   3   6
ENDBRANCH   1   2
BRANCH   1  20
HETATM   20  C   UNL     1      41.482 -13.113   4.419  1.00  0.00    -0.031 C 
HETATM   21  C   UNL     1      42.483 -13.272   3.258  1.00  0.00     0.016 C 
HETATM   22  C   UNL     1      42.304 -12.978   5.722  1.00  0.00     0.016 C 
BRANCH  20  23
HETATM   23  C   UNL     1      40.526 -14.328   4.527  1.00  0.00     0.112 C 
BRANCH  23  24
HETATM   24  C   UNL     1      40.871 -15.541   3.669  1.00  0.00     0.220 C 
HETATM   25  N   UNL     1      41.925 -16.359   4.048  1.00  0.00    -0.349 N 
HETATM   26  C   UNL     1      42.263 -17.487   3.166  1.00  0.00     0.145 C 
HETATM   27  C   UNL     1      42.463 -16.487   5.412  1.00  0.00     0.145 C 
HETATM   28  C   UNL     1      43.773 -17.788   3.166  1.00  0.00     0.143 C 
HETATM   29  N   UNL     1      44.278 -17.987   4.546  1.00  0.00    -0.375 N 
HETATM   30  C   UNL     1      43.961 -16.852   5.434  1.00  0.00     0.143 C 
HETATM   31  O   UNL     1      40.247 -15.734   2.622  1.00  0.00    -0.273 OA
BRANCH  29  32
HETATM   32  C   UNL     1      44.298 -19.299   5.030  1.00  0.00     0.069 A 
HETATM   33  C   UNL     1      44.785 -20.417   4.326  1.00  0.00     0.142 A 
HETATM   34  F   UNL     1      45.321 -20.283   3.101  1.00  0.00    -0.204 F 
HETATM   35  C   UNL     1      44.763 -21.707   4.864  1.00  0.00     0.044 A 
HETATM   36  C   UNL     1      44.230 -21.929   6.128  1.00  0.00     0.003 A 
HETATM   37  C   UNL     1      43.715 -20.857   6.845  1.00  0.00     0.002 A 
HETATM   38  C   UNL     1      43.746 -19.567   6.299  1.00  0.00     0.032 A 
ENDBRANCH  29  32
ENDBRANCH  23  24
ENDBRANCH  20  23
ENDBRANCH   1  20
TORSDOF 7
ENDMDL
