MODEL 1
REMARK VINA RESULT:      -9.2      0.000      0.000
REMARK  3 active torsions:
REMARK  status: ('A' for Active; 'I' for Inactive)
REMARK    1  A    between atoms: C_3  and  N_4 
REMARK       I    between atoms: N_4  and  C_5 
REMARK    2  A    between atoms: C_5  and  C_6 
REMARK    3  A    between atoms: C_17  and  O_18 
ROOT
HETATM    1  C   UNL     1      40.927 -15.557   1.845  1.00  0.00     0.153 A 
HETATM    2  N   UNL     1      40.273 -15.438   3.023  1.00  0.00    -0.168 NA
HETATM    3  N   UNL     1      40.840 -16.374   3.813  1.00  0.00    -0.276 N 
HETATM    4  H   UNL     1      40.489 -16.485   4.757  1.00  0.00     0.189 HD
HETATM    5  C   UNL     1      41.849 -17.058   3.208  1.00  0.00     0.069 A 
HETATM    6  C   UNL     1      41.927 -16.558   1.928  1.00  0.00     0.007 A 
HETATM    7  C   UNL     1      42.958 -17.032   0.964  1.00  0.00     0.048 C 
HETATM    8  C   UNL     1      43.440 -18.459   1.317  1.00  0.00     0.044 C 
HETATM    9  C   UNL     1      43.549 -18.759   2.808  1.00  0.00    -0.043 A 
HETATM   10  C   UNL     1      42.711 -18.101   3.737  1.00  0.00    -0.001 A 
HETATM   11  C   UNL     1      44.416 -19.763   3.257  1.00  0.00     0.044 A 
HETATM   12  C   UNL     1      44.472 -20.109   4.611  1.00  0.00     0.068 A 
HETATM   13  C   UNL     1      43.645 -19.449   5.521  1.00  0.00     0.037 A 
HETATM   14  C   UNL     1      42.765 -18.448   5.088  1.00  0.00     0.017 A 
ENDROOT
BRANCH   1  15
HETATM   15  C   UNL     1      40.600 -14.697   0.688  1.00  0.00     0.277 C 
HETATM   16  N   UNL     1      41.725 -14.402  -0.062  1.00  0.00    -0.321 N 
HETATM   17  H   UNL     1      42.559 -14.860   0.292  1.00  0.00     0.169 HD
HETATM   18  O   UNL     1      39.451 -14.345   0.450  1.00  0.00    -0.266 OA
BRANCH  16  19
HETATM   19  C   UNL     1      41.820 -13.618  -1.229  1.00  0.00     0.043 A 
HETATM   20  C   UNL     1      41.428 -14.178  -2.466  1.00  0.00    -0.035 A 
HETATM   21  C   UNL     1      40.887 -15.579  -2.589  1.00  0.00     0.050 C 
HETATM   22  C   UNL     1      41.561 -13.420  -3.645  1.00  0.00     0.012 A 
HETATM   23  C   UNL     1      42.054 -12.118  -3.601  1.00  0.00     0.043 A 
HETATM   24  C   UNL     1      42.420 -11.575  -2.381  1.00  0.00     0.118 A 
HETATM   25  C   UNL     1      42.308 -12.306  -1.203  1.00  0.00     0.072 A 
HETATM   26  F   UNL     1      42.904 -10.326  -2.339  1.00  0.00    -0.206 F 
ENDBRANCH  16  19
ENDBRANCH   1  15
BRANCH  12  27
HETATM   27  O   UNL     1      45.367 -21.100   4.908  1.00  0.00    -0.356 OA
HETATM   28  C   UNL     1      44.861 -22.426   4.976  1.00  0.00     0.210 C 
ENDBRANCH  12  27
TORSDOF 3
ENDMDL
MODEL 2
REMARK VINA RESULT:      -9.1      1.677      1.999
REMARK  3 active torsions:
REMARK  status: ('A' for Active; 'I' for Inactive)
REMARK    1  A    between atoms: C_3  and  N_4 
REMARK       I    between atoms: N_4  and  C_5 
REMARK    2  A    between atoms: C_5  and  C_6 
REMARK    3  A    between atoms: C_17  and  O_18 
ROOT
HETATM    1  C   UNL     1      42.250 -15.119   2.574  1.00  0.00     0.153 A 
HETATM    2  N   UNL     1      41.905 -14.823   3.848  1.00  0.00    -0.168 NA
HETATM    3  N   UNL     1      42.305 -15.899   4.558  1.00  0.00    -0.276 N 
HETATM    4  H   UNL     1      42.127 -15.912   5.556  1.00  0.00     0.189 HD
HETATM    5  C   UNL     1      42.922 -16.850   3.805  1.00  0.00     0.069 A 
HETATM    6  C   UNL     1      42.897 -16.378   2.511  1.00  0.00     0.007 A 
HETATM    7  C   UNL     1      43.528 -17.130   1.392  1.00  0.00     0.048 C 
HETATM    8  C   UNL     1      43.616 -18.641   1.711  1.00  0.00     0.044 C 
HETATM    9  C   UNL     1      43.918 -18.982   3.167  1.00  0.00    -0.043 A 
HETATM   10  C   UNL     1      43.515 -18.113   4.208  1.00  0.00    -0.001 A 
HETATM   11  C   UNL     1      44.510 -20.209   3.489  1.00  0.00     0.044 A 
HETATM   12  C   UNL     1      44.722 -20.575   4.822  1.00  0.00     0.068 A 
HETATM   13  C   UNL     1      44.326 -19.708   5.841  1.00  0.00     0.037 A 
HETATM   14  C   UNL     1      43.723 -18.480   5.538  1.00  0.00     0.017 A 
ENDROOT
BRANCH   1  15
HETATM   15  C   UNL     1      41.979 -14.183   1.462  1.00  0.00     0.277 C 
HETATM   16  N   UNL     1      41.082 -14.717   0.554  1.00  0.00    -0.321 N 
HETATM   17  H   UNL     1      40.742 -15.632   0.835  1.00  0.00     0.169 HD
HETATM   18  O   UNL     1      42.488 -13.070   1.416  1.00  0.00    -0.266 OA
BRANCH  16  19
HETATM   19  C   UNL     1      40.579 -14.136  -0.628  1.00  0.00     0.043 A 
HETATM   20  C   UNL     1      39.216 -13.765  -0.683  1.00  0.00    -0.035 A 
HETATM   21  C   UNL     1      38.277 -13.944   0.482  1.00  0.00     0.050 C 
HETATM   22  C   UNL     1      38.692 -13.226  -1.873  1.00  0.00     0.012 A 
HETATM   23  C   UNL     1      39.506 -13.034  -2.986  1.00  0.00     0.043 A 
HETATM   24  C   UNL     1      40.843 -13.387  -2.914  1.00  0.00     0.118 A 
HETATM   25  C   UNL     1      41.384 -13.932  -1.754  1.00  0.00     0.072 A 
HETATM   26  F   UNL     1      41.626 -13.213  -3.988  1.00  0.00    -0.206 F 
ENDBRANCH  16  19
ENDBRANCH   1  15
BRANCH  12  27
HETATM   27  O   UNL     1      45.316 -21.796   4.989  1.00  0.00    -0.356 OA
HETATM   28  C   UNL     1      44.736 -22.895   4.297  1.00  0.00     0.210 C 
ENDBRANCH  12  27
TORSDOF 3
ENDMDL
MODEL 3
REMARK VINA RESULT:      -8.9      1.966      2.135
REMARK  3 active torsions:
REMARK  status: ('A' for Active; 'I' for Inactive)
REMARK    1  A    between atoms: C_3  and  N_4 
REMARK       I    between atoms: N_4  and  C_5 
REMARK    2  A    between atoms: C_5  and  C_6 
REMARK    3  A    between atoms: C_17  and  O_18 
ROOT
HETATM    1  C   UNL     1      41.279 -15.362   1.993  1.00  0.00     0.153 A 
HETATM    2  N   UNL     1      40.657 -15.252   3.191  1.00  0.00    -0.168 NA
HETATM    3  N   UNL     1      41.179 -16.255   3.929  1.00  0.00    -0.276 N 
HETATM    4  H   UNL     1      40.840 -16.383   4.875  1.00  0.00     0.189 HD
HETATM    5  C   UNL     1      42.129 -16.976   3.274  1.00  0.00     0.069 A 
HETATM    6  C   UNL     1      42.214 -16.428   2.013  1.00  0.00     0.007 A 
HETATM    7  C   UNL     1      43.193 -16.926   1.008  1.00  0.00     0.048 C 
HETATM    8  C   UNL     1      43.589 -18.394   1.291  1.00  0.00     0.044 C 
HETATM    9  C   UNL     1      43.708 -18.762   2.766  1.00  0.00    -0.043 A 
HETATM   10  C   UNL     1      42.932 -18.093   3.740  1.00  0.00    -0.001 A 
HETATM   11  C   UNL     1      44.517 -19.838   3.154  1.00  0.00     0.044 A 
HETATM   12  C   UNL     1      44.577 -20.243   4.491  1.00  0.00     0.068 A 
HETATM   13  C   UNL     1      43.812 -19.571   5.446  1.00  0.00     0.037 A 
HETATM   14  C   UNL     1      42.991 -18.499   5.074  1.00  0.00     0.017 A 
ENDROOT
BRANCH   1  15
HETATM   15  C   UNL     1      40.985 -14.436   0.880  1.00  0.00     0.277 C 
HETATM   16  N   UNL     1      39.945 -14.898   0.094  1.00  0.00    -0.321 N 
HETATM   17  H   UNL     1      39.547 -15.764   0.445  1.00  0.00     0.169 HD
HETATM   18  O   UNL     1      41.596 -13.384   0.738  1.00  0.00    -0.266 OA
BRANCH  16  19
HETATM   19  C   UNL     1      39.377 -14.301  -1.050  1.00  0.00     0.043 A 
HETATM   20  C   UNL     1      39.885 -14.643  -2.325  1.00  0.00    -0.035 A 
HETATM   21  C   UNL     1      40.997 -15.641  -2.517  1.00  0.00     0.050 C 
HETATM   22  C   UNL     1      39.355 -14.020  -3.471  1.00  0.00     0.012 A 
HETATM   23  C   UNL     1      38.325 -13.090  -3.364  1.00  0.00     0.043 A 
HETATM   24  C   UNL     1      37.827 -12.775  -2.110  1.00  0.00     0.118 A 
HETATM   25  C   UNL     1      38.338 -13.368  -0.961  1.00  0.00     0.072 A 
HETATM   26  F   UNL     1      36.842 -11.872  -2.005  1.00  0.00    -0.206 F 
ENDBRANCH  16  19
ENDBRANCH   1  15
BRANCH  12  27
HETATM   27  O   UNL     1      45.412 -21.301   4.727  1.00  0.00    -0.356 OA
HETATM   28  C   UNL     1      44.802 -22.549   5.027  1.00  0.00     0.210 C 
ENDBRANCH  12  27
TORSDOF 3
ENDMDL
MODEL 4
REMARK VINA RESULT:      -8.9      5.775      7.803
REMARK  3 active torsions:
REMARK  status: ('A' for Active; 'I' for Inactive)
REMARK    1  A    between atoms: C_3  and  N_4 
REMARK       I    between atoms: N_4  and  C_5 
REMARK    2  A    between atoms: C_5  and  C_6 
REMARK    3  A    between atoms: C_17  and  O_18 
ROOT
HETATM    1  C   UNL     1      43.130 -14.177   5.454  1.00  0.00     0.153 A 
HETATM    2  N   UNL     1      42.840 -13.975   4.148  1.00  0.00    -0.168 NA
HETATM    3  N   UNL     1      43.079 -15.170   3.567  1.00  0.00    -0.276 N 
HETATM    4  H   UNL     1      42.948 -15.253   2.565  1.00  0.00     0.189 HD
HETATM    5  C   UNL     1      43.473 -16.133   4.444  1.00  0.00     0.069 A 
HETATM    6  C   UNL     1      43.523 -15.521   5.676  1.00  0.00     0.007 A 
HETATM    7  C   UNL     1      43.872 -16.276   6.910  1.00  0.00     0.048 C 
HETATM    8  C   UNL     1      44.723 -17.526   6.582  1.00  0.00     0.044 C 
HETATM    9  C   UNL     1      44.349 -18.245   5.290  1.00  0.00    -0.043 A 
HETATM   10  C   UNL     1      43.783 -17.532   4.208  1.00  0.00    -0.001 A 
HETATM   11  C   UNL     1      44.656 -19.602   5.132  1.00  0.00     0.044 A 
HETATM   12  C   UNL     1      44.395 -20.260   3.927  1.00  0.00     0.068 A 
HETATM   13  C   UNL     1      43.830 -19.549   2.866  1.00  0.00     0.037 A 
HETATM   14  C   UNL     1      43.525 -18.189   3.004  1.00  0.00     0.017 A 
ENDROOT
BRANCH   1  15
HETATM   15  C   UNL     1      42.999 -13.095   6.452  1.00  0.00     0.277 C 
HETATM   16  N   UNL     1      44.047 -13.105   7.356  1.00  0.00    -0.321 N 
HETATM   17  H   UNL     1      44.734 -13.823   7.147  1.00  0.00     0.169 HD
HETATM   18  O   UNL     1      42.073 -12.294   6.418  1.00  0.00    -0.266 OA
BRANCH  16  19
HETATM   19  C   UNL     1      44.276 -12.240   8.445  1.00  0.00     0.043 A 
HETATM   20  C   UNL     1      45.601 -11.850   8.744  1.00  0.00    -0.035 A 
HETATM   21  C   UNL     1      46.785 -12.303   7.931  1.00  0.00     0.050 C 
HETATM   22  C   UNL     1      45.845 -11.022   9.857  1.00  0.00     0.012 A 
HETATM   23  C   UNL     1      44.795 -10.567  10.649  1.00  0.00     0.043 A 
HETATM   24  C   UNL     1      43.499 -10.943  10.336  1.00  0.00     0.118 A 
HETATM   25  C   UNL     1      43.231 -11.769   9.249  1.00  0.00     0.072 A 
HETATM   26  F   UNL     1      42.489 -10.515  11.104  1.00  0.00    -0.206 F 
ENDBRANCH  16  19
ENDBRANCH   1  15
BRANCH  12  27
HETATM   27  O   UNL     1      44.738 -21.584   3.916  1.00  0.00    -0.356 OA
HETATM   28  C   UNL     1      45.048 -22.180   5.169  1.00  0.00     0.210 C 
ENDBRANCH  12  27
TORSDOF 3
ENDMDL
MODEL 5
REMARK VINA RESULT:      -8.9      8.876     10.983
REMARK  3 active torsions:
REMARK  status: ('A' for Active; 'I' for Inactive)
REMARK    1  A    between atoms: C_3  and  N_4 
REMARK       I    between atoms: N_4  and  C_5 
REMARK    2  A    between atoms: C_5  and  C_6 
REMARK    3  A    between atoms: C_17  and  O_18 
ROOT
HETATM    1  C   UNL     1      44.954 -12.569   8.923  1.00  0.00     0.153 A 
HETATM    2  N   UNL     1      45.858 -12.656   9.927  1.00  0.00    -0.168 NA
HETATM    3  N   UNL     1      45.413 -11.779  10.852  1.00  0.00    -0.276 N 
HETATM    4  H   UNL     1      45.954 -11.657  11.700  1.00  0.00     0.189 HD
HETATM    5  C   UNL     1      44.250 -11.165  10.503  1.00  0.00     0.069 A 
HETATM    6  C   UNL     1      43.928 -11.649   9.255  1.00  0.00     0.007 A 
HETATM    7  C   UNL     1      42.680 -11.239   8.555  1.00  0.00     0.048 C 
HETATM    8  C   UNL     1      42.186  -9.860   9.051  1.00  0.00     0.044 C 
HETATM    9  C   UNL     1      42.386  -9.594  10.539  1.00  0.00    -0.043 A 
HETATM   10  C   UNL     1      43.453 -10.200  11.241  1.00  0.00    -0.001 A 
HETATM   11  C   UNL     1      41.570  -8.666  11.198  1.00  0.00     0.044 A 
HETATM   12  C   UNL     1      41.788  -8.348  12.542  1.00  0.00     0.068 A 
HETATM   13  C   UNL     1      42.839  -8.957  13.229  1.00  0.00     0.037 A 
HETATM   14  C   UNL     1      43.672  -9.881  12.582  1.00  0.00     0.017 A 
ENDROOT
BRANCH   1  15
HETATM   15  C   UNL     1      45.080 -13.382   7.696  1.00  0.00     0.277 C 
HETATM   16  N   UNL     1      44.122 -14.379   7.644  1.00  0.00    -0.321 N 
HETATM   17  H   UNL     1      43.484 -14.346   8.433  1.00  0.00     0.169 HD
HETATM   18  O   UNL     1      45.926 -13.139   6.844  1.00  0.00    -0.266 OA
BRANCH  16  19
HETATM   19  C   UNL     1      43.918 -15.349   6.643  1.00  0.00     0.043 A 
HETATM   20  C   UNL     1      43.094 -15.032   5.538  1.00  0.00    -0.035 A 
HETATM   21  C   UNL     1      42.440 -13.685   5.373  1.00  0.00     0.050 C 
HETATM   22  C   UNL     1      42.847 -16.008   4.554  1.00  0.00     0.012 A 
HETATM   23  C   UNL     1      43.422 -17.272   4.647  1.00  0.00     0.043 A 
HETATM   24  C   UNL     1      44.239 -17.566   5.726  1.00  0.00     0.118 A 
HETATM   25  C   UNL     1      44.492 -16.623   6.717  1.00  0.00     0.072 A 
HETATM   26  F   UNL     1      44.785 -18.786   5.822  1.00  0.00    -0.206 F 
ENDBRANCH  16  19
ENDBRANCH   1  15
BRANCH  12  27
HETATM   27  O   UNL     1      40.912  -7.434  13.060  1.00  0.00    -0.356 OA
HETATM   28  C   UNL     1      39.582  -7.877  13.296  1.00  0.00     0.210 C 
ENDBRANCH  12  27
TORSDOF 3
ENDMDL
MODEL 6
REMARK VINA RESULT:      -8.6      3.602      8.695
REMARK  3 active torsions:
REMARK  status: ('A' for Active; 'I' for Inactive)
REMARK    1  A    between atoms: C_3  and  N_4 
REMARK       I    between atoms: N_4  and  C_5 
REMARK    2  A    between atoms: C_5  and  C_6 
REMARK    3  A    between atoms: C_17  and  O_18 
ROOT
HETATM    1  C   UNL     1      41.252 -16.198   1.729  1.00  0.00     0.153 A 
HETATM    2  N   UNL     1      40.550 -16.030   2.874  1.00  0.00    -0.168 NA
HETATM    3  N   UNL     1      39.614 -15.110   2.557  1.00  0.00    -0.276 N 
HETATM    4  H   UNL     1      38.974 -14.805   3.281  1.00  0.00     0.189 HD
HETATM    5  C   UNL     1      39.662 -14.711   1.257  1.00  0.00     0.069 A 
HETATM    6  C   UNL     1      40.716 -15.392   0.692  1.00  0.00     0.007 A 
HETATM    7  C   UNL     1      41.056 -15.252  -0.750  1.00  0.00     0.048 C 
HETATM    8  C   UNL     1      40.559 -13.900  -1.314  1.00  0.00     0.044 C 
HETATM    9  C   UNL     1      39.221 -13.419  -0.763  1.00  0.00    -0.043 A 
HETATM   10  C   UNL     1      38.809 -13.777   0.541  1.00  0.00    -0.001 A 
HETATM   11  C   UNL     1      38.435 -12.534  -1.512  1.00  0.00     0.044 A 
HETATM   12  C   UNL     1      37.244 -12.018  -0.992  1.00  0.00     0.068 A 
HETATM   13  C   UNL     1      36.843 -12.382   0.295  1.00  0.00     0.037 A 
HETATM   14  C   UNL     1      37.622 -13.259   1.061  1.00  0.00     0.017 A 
ENDROOT
BRANCH   1  15
HETATM   15  C   UNL     1      42.389 -17.139   1.649  1.00  0.00     0.277 C 
HETATM   16  N   UNL     1      42.259 -18.173   2.559  1.00  0.00    -0.321 N 
HETATM   17  H   UNL     1      41.392 -18.122   3.085  1.00  0.00     0.169 HD
HETATM   18  O   UNL     1      43.293 -16.992   0.836  1.00  0.00    -0.266 OA
BRANCH  16  19
HETATM   19  C   UNL     1      43.131 -19.257   2.785  1.00  0.00     0.043 A 
HETATM   20  C   UNL     1      43.935 -19.260   3.948  1.00  0.00    -0.035 A 
HETATM   21  C   UNL     1      43.885 -18.157   4.974  1.00  0.00     0.050 C 
HETATM   22  C   UNL     1      44.841 -20.316   4.161  1.00  0.00     0.012 A 
HETATM   23  C   UNL     1      44.937 -21.366   3.252  1.00  0.00     0.043 A 
HETATM   24  C   UNL     1      44.132 -21.360   2.125  1.00  0.00     0.118 A 
HETATM   25  C   UNL     1      43.236 -20.324   1.885  1.00  0.00     0.072 A 
HETATM   26  F   UNL     1      44.230 -22.365   1.244  1.00  0.00    -0.206 F 
ENDBRANCH  16  19
ENDBRANCH   1  15
BRANCH  12  27
HETATM   27  O   UNL     1      36.575 -11.173  -1.834  1.00  0.00    -0.356 OA
HETATM   28  C   UNL     1      36.459 -11.575  -3.193  1.00  0.00     0.210 C 
ENDBRANCH  12  27
TORSDOF 3
ENDMDL
MODEL 7
REMARK VINA RESULT:      -8.6      3.681      8.435
REMARK  3 active torsions:
REMARK  status: ('A' for Active; 'I' for Inactive)
REMARK    1  A    between atoms: C_3  and  N_4 
REMARK       I    between atoms: N_4  and  C_5 
REMARK    2  A    between atoms: C_5  and  C_6 
REMARK    3  A    between atoms: C_17  and  O_18 
ROOT
HETATM    1  C   UNL     1      41.343 -15.420   3.653  1.00  0.00     0.153 A 
HETATM    2  N   UNL     1      40.450 -14.713   4.383  1.00  0.00    -0.168 NA
HETATM    3  N   UNL     1      39.648 -14.140   3.460  1.00  0.00    -0.276 N 
HETATM    4  H   UNL     1      38.902 -13.533   3.780  1.00  0.00     0.189 HD
HETATM    5  C   UNL     1      39.963 -14.477   2.180  1.00  0.00     0.069 A 
HETATM    6  C   UNL     1      41.063 -15.301   2.268  1.00  0.00     0.007 A 
HETATM    7  C   UNL     1      41.677 -15.918   1.061  1.00  0.00     0.048 C 
HETATM    8  C   UNL     1      41.377 -15.086  -0.208  1.00  0.00     0.044 C 
HETATM    9  C   UNL     1      39.991 -14.453  -0.258  1.00  0.00    -0.043 A 
HETATM   10  C   UNL     1      39.319 -14.096   0.935  1.00  0.00    -0.001 A 
HETATM   11  C   UNL     1      39.415 -14.129  -1.492  1.00  0.00     0.044 A 
HETATM   12  C   UNL     1      38.181 -13.475  -1.557  1.00  0.00     0.068 A 
HETATM   13  C   UNL     1      37.523 -13.133  -0.375  1.00  0.00     0.037 A 
HETATM   14  C   UNL     1      38.089 -13.441   0.869  1.00  0.00     0.017 A 
ENDROOT
BRANCH   1  15
HETATM   15  C   UNL     1      42.417 -16.207   4.295  1.00  0.00     0.277 C 
HETATM   16  N   UNL     1      42.272 -17.561   4.050  1.00  0.00    -0.321 N 
HETATM   17  H   UNL     1      41.484 -17.764   3.442  1.00  0.00     0.169 HD
HETATM   18  O   UNL     1      43.318 -15.673   4.929  1.00  0.00    -0.266 OA
BRANCH  16  19
HETATM   19  C   UNL     1      43.087 -18.625   4.487  1.00  0.00     0.043 A 
HETATM   20  C   UNL     1      43.868 -19.324   3.539  1.00  0.00    -0.035 A 
HETATM   21  C   UNL     1      43.886 -18.966   2.076  1.00  0.00     0.050 C 
HETATM   22  C   UNL     1      44.652 -20.417   3.957  1.00  0.00     0.012 A 
HETATM   23  C   UNL     1      44.682 -20.800   5.296  1.00  0.00     0.043 A 
HETATM   24  C   UNL     1      43.924 -20.096   6.217  1.00  0.00     0.118 A 
HETATM   25  C   UNL     1      43.133 -19.020   5.828  1.00  0.00     0.072 A 
HETATM   26  F   UNL     1      43.943 -20.470   7.503  1.00  0.00    -0.206 F 
ENDBRANCH  16  19
ENDBRANCH   1  15
BRANCH  12  27
HETATM   27  O   UNL     1      37.735 -13.227  -2.827  1.00  0.00    -0.356 OA
HETATM   28  C   UNL     1      37.488 -14.356  -3.655  1.00  0.00     0.210 C 
ENDBRANCH  12  27
TORSDOF 3
ENDMDL
MODEL 8
REMARK VINA RESULT:      -8.5      4.813      6.290
REMARK  3 active torsions:
REMARK  status: ('A' for Active; 'I' for Inactive)
REMARK    1  A    between atoms: C_3  and  N_4 
REMARK       I    between atoms: N_4  and  C_5 
REMARK    2  A    between atoms: C_5  and  C_6 
REMARK    3  A    between atoms: C_17  and  O_18 
ROOT
HETATM    1  C   UNL     1      43.186 -14.813   5.582  1.00  0.00     0.153 A 
HETATM    2  N   UNL     1      43.668 -15.203   6.785  1.00  0.00    -0.168 NA
HETATM    3  N   UNL     1      43.998 -16.499   6.606  1.00  0.00    -0.276 N 
HETATM    4  H   UNL     1      44.368 -17.016   7.395  1.00  0.00     0.189 HD
HETATM    5  C   UNL     1      43.785 -16.945   5.338  1.00  0.00     0.069 A 
HETATM    6  C   UNL     1      43.253 -15.879   4.649  1.00  0.00     0.007 A 
HETATM    7  C   UNL     1      42.928 -15.968   3.199  1.00  0.00     0.048 C 
HETATM    8  C   UNL     1      42.666 -17.432   2.772  1.00  0.00     0.044 C 
HETATM    9  C   UNL     1      43.545 -18.474   3.454  1.00  0.00    -0.043 A 
HETATM   10  C   UNL     1      44.048 -18.251   4.757  1.00  0.00    -0.001 A 
HETATM   11  C   UNL     1      43.778 -19.707   2.832  1.00  0.00     0.044 A 
HETATM   12  C   UNL     1      44.513 -20.707   3.475  1.00  0.00     0.068 A 
HETATM   13  C   UNL     1      45.011 -20.474   4.758  1.00  0.00     0.037 A 
HETATM   14  C   UNL     1      44.780 -19.250   5.400  1.00  0.00     0.017 A 
ENDROOT
BRANCH   1  15
HETATM   15  C   UNL     1      42.704 -13.435   5.350  1.00  0.00     0.277 C 
HETATM   16  N   UNL     1      41.973 -12.964   6.426  1.00  0.00    -0.321 N 
HETATM   17  H   UNL     1      41.934 -13.630   7.192  1.00  0.00     0.169 HD
HETATM   18  O   UNL     1      42.977 -12.820   4.327  1.00  0.00    -0.266 OA
BRANCH  16  19
HETATM   19  C   UNL     1      41.353 -11.708   6.583  1.00  0.00     0.043 A 
HETATM   20  C   UNL     1      41.827 -10.830   7.584  1.00  0.00    -0.035 A 
HETATM   21  C   UNL     1      42.988 -11.171   8.482  1.00  0.00     0.050 C 
HETATM   22  C   UNL     1      41.186  -9.591   7.779  1.00  0.00     0.012 A 
HETATM   23  C   UNL     1      40.108  -9.214   6.983  1.00  0.00     0.043 A 
HETATM   24  C   UNL     1      39.664 -10.077   5.995  1.00  0.00     0.118 A 
HETATM   25  C   UNL     1      40.272 -11.310   5.788  1.00  0.00     0.072 A 
HETATM   26  F   UNL     1      38.619  -9.720   5.235  1.00  0.00    -0.206 F 
ENDBRANCH  16  19
ENDBRANCH   1  15
BRANCH  12  27
HETATM   27  O   UNL     1      44.669 -21.856   2.748  1.00  0.00    -0.356 OA
HETATM   28  C   UNL     1      44.014 -21.914   1.487  1.00  0.00     0.210 C 
ENDBRANCH  12  27
TORSDOF 3
ENDMDL
MODEL 9
REMARK VINA RESULT:      -8.4      3.545      8.672
REMARK  3 active torsions:
REMARK  status: ('A' for Active; 'I' for Inactive)
REMARK    1  A    between atoms: C_3  and  N_4 
REMARK       I    between atoms: N_4  and  C_5 
REMARK    2  A    between atoms: C_5  and  C_6 
REMARK    3  A    between atoms: C_17  and  O_18 
ROOT
HETATM    1  C   UNL     1      42.321 -16.087   3.425  1.00  0.00     0.153 A 
HETATM    2  N   UNL     1      42.826 -14.957   3.972  1.00  0.00    -0.168 NA
HETATM    3  N   UNL     1      42.729 -14.039   2.987  1.00  0.00    -0.276 N 
HETATM    4  H   UNL     1      43.074 -13.103   3.165  1.00  0.00     0.189 HD
HETATM    5  C   UNL     1      42.153 -14.518   1.851  1.00  0.00     0.069 A 
HETATM    6  C   UNL     1      41.882 -15.846   2.099  1.00  0.00     0.007 A 
HETATM    7  C   UNL     1      41.198 -16.705   1.094  1.00  0.00     0.048 C 
HETATM    8  C   UNL     1      41.408 -16.165  -0.341  1.00  0.00     0.044 C 
HETATM    9  C   UNL     1      41.416 -14.646  -0.469  1.00  0.00    -0.043 A 
HETATM   10  C   UNL     1      41.846 -13.835   0.606  1.00  0.00    -0.001 A 
HETATM   11  C   UNL     1      41.090 -14.046  -1.692  1.00  0.00     0.044 A 
HETATM   12  C   UNL     1      41.169 -12.660  -1.854  1.00  0.00     0.068 A 
HETATM   13  C   UNL     1      41.589 -11.868  -0.784  1.00  0.00     0.037 A 
HETATM   14  C   UNL     1      41.928 -12.451   0.444  1.00  0.00     0.017 A 
ENDROOT
BRANCH   1  15
HETATM   15  C   UNL     1      42.246 -17.350   4.188  1.00  0.00     0.277 C 
HETATM   16  N   UNL     1      43.471 -17.992   4.233  1.00  0.00    -0.321 N 
HETATM   17  H   UNL     1      44.205 -17.462   3.771  1.00  0.00     0.169 HD
HETATM   18  O   UNL     1      41.209 -17.720   4.725  1.00  0.00    -0.266 OA
BRANCH  16  19
HETATM   19  C   UNL     1      43.802 -19.210   4.859  1.00  0.00     0.043 A 
HETATM   20  C   UNL     1      44.406 -20.233   4.094  1.00  0.00    -0.035 A 
HETATM   21  C   UNL     1      44.736 -20.069   2.633  1.00  0.00     0.050 C 
HETATM   22  C   UNL     1      44.700 -21.470   4.699  1.00  0.00     0.012 A 
HETATM   23  C   UNL     1      44.422 -21.687   6.046  1.00  0.00     0.043 A 
HETATM   24  C   UNL     1      43.844 -20.671   6.789  1.00  0.00     0.118 A 
HETATM   25  C   UNL     1      43.534 -19.443   6.213  1.00  0.00     0.072 A 
HETATM   26  F   UNL     1      43.566 -20.882   8.082  1.00  0.00    -0.206 F 
ENDBRANCH  16  19
ENDBRANCH   1  15
BRANCH  12  27
HETATM   27  O   UNL     1      40.815 -12.212  -3.097  1.00  0.00    -0.356 OA
HETATM   28  C   UNL     1      41.835 -11.605  -3.879  1.00  0.00     0.210 C 
ENDBRANCH  12  27
TORSDOF 3
ENDMDL
MODEL 10
REMARK VINA RESULT:      -8.4      5.070      8.668
REMARK  3 active torsions:
REMARK  status: ('A' for Active; 'I' for Inactive)
REMARK    1  A    between atoms: C_3  and  N_4 
REMARK       I    between atoms: N_4  and  C_5 
REMARK    2  A    between atoms: C_5  and  C_6 
REMARK    3  A    between atoms: C_17  and  O_18 
ROOT
HETATM    1  C   UNL     1      42.410 -15.911   5.463  1.00  0.00     0.153 A 
HETATM    2  N   UNL     1      43.412 -15.456   6.253  1.00  0.00    -0.168 NA
HETATM    3  N   UNL     1      43.119 -14.152   6.441  1.00  0.00    -0.276 N 
HETATM    4  H   UNL     1      43.755 -13.590   6.995  1.00  0.00     0.189 HD
HETATM    5  C   UNL     1      41.961 -13.762   5.842  1.00  0.00     0.069 A 
HETATM    6  C   UNL     1      41.479 -14.876   5.194  1.00  0.00     0.007 A 
HETATM    7  C   UNL     1      40.187 -14.854   4.455  1.00  0.00     0.048 C 
HETATM    8  C   UNL     1      39.827 -13.421   3.997  1.00  0.00     0.044 C 
HETATM    9  C   UNL     1      40.202 -12.313   4.975  1.00  0.00    -0.043 A 
HETATM   10  C   UNL     1      41.304 -12.466   5.849  1.00  0.00    -0.001 A 
HETATM   11  C   UNL     1      39.515 -11.093   4.945  1.00  0.00     0.044 A 
HETATM   12  C   UNL     1      39.896 -10.036   5.777  1.00  0.00     0.068 A 
HETATM   13  C   UNL     1      40.980 -10.199   6.641  1.00  0.00     0.037 A 
HETATM   14  C   UNL     1      41.685 -11.410   6.678  1.00  0.00     0.017 A 
ENDROOT
BRANCH   1  15
HETATM   15  C   UNL     1      42.357 -17.318   5.015  1.00  0.00     0.277 C 
HETATM   16  N   UNL     1      43.565 -17.729   4.481  1.00  0.00    -0.321 N 
HETATM   17  H   UNL     1      44.278 -17.008   4.532  1.00  0.00     0.169 HD
HETATM   18  O   UNL     1      41.350 -18.002   5.154  1.00  0.00    -0.266 OA
BRANCH  16  19
HETATM   19  C   UNL     1      43.907 -18.990   3.952  1.00  0.00     0.043 A 
HETATM   20  C   UNL     1      43.617 -19.265   2.596  1.00  0.00    -0.035 A 
HETATM   21  C   UNL     1      42.975 -18.256   1.680  1.00  0.00     0.050 C 
HETATM   22  C   UNL     1      43.914 -20.536   2.068  1.00  0.00     0.012 A 
HETATM   23  C   UNL     1      44.508 -21.514   2.860  1.00  0.00     0.043 A 
HETATM   24  C   UNL     1      44.801 -21.227   4.183  1.00  0.00     0.118 A 
HETATM   25  C   UNL     1      44.510 -19.983   4.732  1.00  0.00     0.072 A 
HETATM   26  F   UNL     1      45.364 -22.171   4.950  1.00  0.00    -0.206 F 
ENDBRANCH  16  19
ENDBRANCH   1  15
BRANCH  12  27
HETATM   27  O   UNL     1      39.133  -8.907   5.648  1.00  0.00    -0.356 OA
HETATM   28  C   UNL     1      38.244  -8.854   4.540  1.00  0.00     0.210 C 
ENDBRANCH  12  27
TORSDOF 3
ENDMDL
