MODEL 1
REMARK VINA RESULT:      -8.5      0.000      0.000
REMARK  9 active torsions:
REMARK  status: ('A' for Active; 'I' for Inactive)
REMARK    1  A    between atoms: C_6  and  C_7 
REMARK    2  A    between atoms: C_7  and  C_8 
REMARK       I    between atoms: C_8  and  N_9 
REMARK    3  A    between atoms: N_9  and  C_10 
REMARK    4  A    between atoms: C_10  and  C_11 
REMARK    5  A    between atoms: C_11  and  N_12 
REMARK    6  A    between atoms: C_17  and  C_18 
REMARK    7  A    between atoms: C_21  and  C_22 
REMARK    8  A    between atoms: C_29  and  C_30 
REMARK       I    between atoms: C_30  and  N_31 
REMARK    9  A    between atoms: N_31  and  C_32 
ROOT
HETATM    1  C   UNL     1      43.999 -16.142   2.193  1.00  0.00     0.071 C 
HETATM    2  C   UNL     1      43.105 -15.335   3.107  1.00  0.00     0.047 C 
HETATM    3  N   UNL     1      42.826 -14.072   2.606  1.00  0.00    -0.229 NA
HETATM    4  C   UNL     1      41.895 -13.398   3.188  1.00  0.00     0.170 C 
HETATM    5  N   UNL     1      41.218 -13.803   4.525  1.00  0.00    -0.319 N 
HETATM    6  C   UNL     1      40.136 -13.131   4.740  1.00  0.00     0.011 C 
HETATM    7  C   UNL     1      42.057 -14.752   5.291  1.00  0.00     0.165 C 
HETATM    8  S   UNL     1      41.166 -11.980   2.517  1.00  0.00    -0.086 SA
HETATM    9  C   UNL     1      39.749 -12.158   3.647  1.00  0.00     0.135 C 
HETATM   10  C   UNL     1      42.605 -15.762   4.292  1.00  0.00     0.062 C 
ENDROOT
BRANCH   6  11
HETATM   11  C   UNL     1      39.342 -13.259   6.007  1.00  0.00     0.156 C 
BRANCH  11  12
HETATM   12  C   UNL     1      39.338 -12.028   6.890  1.00  0.00     0.223 C 
HETATM   13  N   UNL     1      39.530 -12.289   8.223  1.00  0.00    -0.359 N 
HETATM   14  H   UNL     1      39.577 -13.265   8.507  1.00  0.00     0.162 HD
HETATM   15  O   UNL     1      39.142 -10.905   6.436  1.00  0.00    -0.273 OA
BRANCH  13  16
HETATM   16  C   UNL     1      39.322 -11.369   9.346  1.00  0.00     0.150 C 
BRANCH  16  17
HETATM   17  C   UNL     1      40.549 -10.708  10.009  1.00  0.00     0.253 C 
BRANCH  17  18
HETATM   18  N   UNL     1      41.103 -11.495  11.179  1.00  0.00    -0.077 N 
HETATM   19  H   UNL     1      41.173 -12.479  10.852  1.00  0.00     0.279 HD
HETATM   20  C   UNL     1      42.471 -11.063  11.631  1.00  0.00     0.269 C 
HETATM   21  C   UNL     1      40.138 -11.504  12.338  1.00  0.00     0.269 C 
ENDBRANCH  17  18
ENDBRANCH  16  17
ENDBRANCH  13  16
ENDBRANCH  11  12
ENDBRANCH   6  11
BRANCH   7  22
HETATM   22  C   UNL     1      43.124 -13.935   6.053  1.00  0.00    -0.030 A 
HETATM   23  C   UNL     1      44.468 -14.358   6.068  1.00  0.00     0.010 A 
HETATM   24  C   UNL     1      45.409 -13.779   6.928  1.00  0.00     0.008 A 
HETATM   25  C   UNL     1      45.051 -12.733   7.781  1.00  0.00    -0.055 A 
HETATM   26  C   UNL     1      43.750 -12.228   7.693  1.00  0.00     0.008 A 
HETATM   27  C   UNL     1      42.806 -12.814   6.842  1.00  0.00     0.010 A 
BRANCH  25  28
HETATM   28  C   UNL     1      46.057 -12.181   8.778  1.00  0.00     0.010 C 
HETATM   29  C   UNL     1      47.329 -11.684   8.090  1.00  0.00     0.015 C 
HETATM   30  C   UNL     1      45.438 -11.078   9.644  1.00  0.00     0.015 C 
ENDBRANCH  25  28
ENDBRANCH   7  22
BRANCH  10  31
HETATM   31  C   UNL     1      42.357 -17.187   4.699  1.00  0.00     0.256 C 
HETATM   32  N   UNL     1      43.431 -17.790   5.317  1.00  0.00    -0.323 N 
HETATM   33  H   UNL     1      44.145 -17.215   5.735  1.00  0.00     0.169 HD
HETATM   34  O   UNL     1      41.359 -17.743   4.260  1.00  0.00    -0.267 OA
BRANCH  32  35
HETATM   35  C   UNL     1      43.749 -19.164   5.365  1.00  0.00     0.035 A 
HETATM   36  C   UNL     1      44.394 -19.855   4.341  1.00  0.00     0.029 A 
HETATM   37  C   UNL     1      44.783 -21.187   4.532  1.00  0.00     0.002 A 
HETATM   38  C   UNL     1      44.514 -21.836   5.737  1.00  0.00     0.000 A 
HETATM   39  C   UNL     1      43.847 -21.161   6.753  1.00  0.00     0.002 A 
HETATM   40  C   UNL     1      43.471 -19.830   6.569  1.00  0.00     0.029 A 
ENDBRANCH  32  35
ENDBRANCH  10  31
TORSDOF 9
ENDMDL
MODEL 2
REMARK VINA RESULT:      -8.2      5.091      9.270
REMARK  9 active torsions:
REMARK  status: ('A' for Active; 'I' for Inactive)
REMARK    1  A    between atoms: C_6  and  C_7 
REMARK    2  A    between atoms: C_7  and  C_8 
REMARK       I    between atoms: C_8  and  N_9 
REMARK    3  A    between atoms: N_9  and  C_10 
REMARK    4  A    between atoms: C_10  and  C_11 
REMARK    5  A    between atoms: C_11  and  N_12 
REMARK    6  A    between atoms: C_17  and  C_18 
REMARK    7  A    between atoms: C_21  and  C_22 
REMARK    8  A    between atoms: C_29  and  C_30 
REMARK       I    between atoms: C_30  and  N_31 
REMARK    9  A    between atoms: N_31  and  C_32 
ROOT
HETATM    1  C   UNL     1      42.053 -12.569   3.702  1.00  0.00     0.071 C 
HETATM    2  C   UNL     1      41.793 -12.894   2.249  1.00  0.00     0.047 C 
HETATM    3  N   UNL     1      42.112 -11.845   1.399  1.00  0.00    -0.229 NA
HETATM    4  C   UNL     1      42.149 -12.098   0.137  1.00  0.00     0.170 C 
HETATM    5  N   UNL     1      41.660 -13.420  -0.512  1.00  0.00    -0.319 N 
HETATM    6  C   UNL     1      42.068 -13.538  -1.733  1.00  0.00     0.011 C 
HETATM    7  C   UNL     1      40.727 -14.148   0.378  1.00  0.00     0.165 C 
HETATM    8  S   UNL     1      42.854 -11.042  -1.040  1.00  0.00    -0.086 SA
HETATM    9  C   UNL     1      42.951 -12.415  -2.232  1.00  0.00     0.135 C 
HETATM   10  C   UNL     1      41.309 -14.071   1.783  1.00  0.00     0.062 C 
ENDROOT
BRANCH   6  11
HETATM   11  C   UNL     1      41.654 -14.678  -2.618  1.00  0.00     0.156 C 
BRANCH  11  12
HETATM   12  C   UNL     1      40.308 -14.511  -3.292  1.00  0.00     0.223 C 
HETATM   13  N   UNL     1      39.520 -15.633  -3.262  1.00  0.00    -0.359 N 
HETATM   14  H   UNL     1      39.925 -16.480  -2.870  1.00  0.00     0.162 HD
HETATM   15  O   UNL     1      39.984 -13.464  -3.845  1.00  0.00    -0.273 OA
BRANCH  13  16
HETATM   16  C   UNL     1      38.297 -15.880  -4.035  1.00  0.00     0.150 C 
BRANCH  16  17
HETATM   17  C   UNL     1      37.030 -15.060  -3.715  1.00  0.00     0.253 C 
BRANCH  17  18
HETATM   18  N   UNL     1      36.849 -13.851  -4.609  1.00  0.00    -0.077 N 
HETATM   19  H   UNL     1      37.724 -13.775  -5.166  1.00  0.00     0.279 HD
HETATM   20  C   UNL     1      35.699 -13.953  -5.574  1.00  0.00     0.269 C 
HETATM   21  C   UNL     1      36.752 -12.582  -3.801  1.00  0.00     0.269 C 
ENDBRANCH  17  18
ENDBRANCH  16  17
ENDBRANCH  13  16
ENDBRANCH  11  12
ENDBRANCH   6  11
BRANCH   7  22
HETATM   22  C   UNL     1      39.325 -13.521   0.210  1.00  0.00    -0.030 A 
HETATM   23  C   UNL     1      39.176 -12.268  -0.418  1.00  0.00     0.010 A 
HETATM   24  C   UNL     1      37.962 -11.571  -0.382  1.00  0.00     0.008 A 
HETATM   25  C   UNL     1      36.843 -12.114   0.253  1.00  0.00    -0.055 A 
HETATM   26  C   UNL     1      36.947 -13.405   0.779  1.00  0.00     0.008 A 
HETATM   27  C   UNL     1      38.163 -14.098   0.754  1.00  0.00     0.010 A 
BRANCH  25  28
HETATM   28  C   UNL     1      35.562 -11.303   0.370  1.00  0.00     0.010 C 
HETATM   29  C   UNL     1      35.668 -10.218   1.441  1.00  0.00     0.015 C 
HETATM   30  C   UNL     1      35.159 -10.700  -0.981  1.00  0.00     0.015 C 
ENDBRANCH  25  28
ENDBRANCH   7  22
BRANCH  10  31
HETATM   31  C   UNL     1      41.427 -15.414   2.446  1.00  0.00     0.256 C 
HETATM   32  N   UNL     1      42.719 -15.880   2.546  1.00  0.00    -0.323 N 
HETATM   33  H   UNL     1      43.485 -15.226   2.488  1.00  0.00     0.169 HD
HETATM   34  O   UNL     1      40.401 -16.059   2.620  1.00  0.00    -0.267 OA
BRANCH  32  35
HETATM   35  C   UNL     1      43.160 -17.218   2.619  1.00  0.00     0.035 A 
HETATM   36  C   UNL     1      43.327 -18.050   1.514  1.00  0.00     0.029 A 
HETATM   37  C   UNL     1      43.891 -19.322   1.673  1.00  0.00     0.002 A 
HETATM   38  C   UNL     1      44.273 -19.773   2.937  1.00  0.00     0.000 A 
HETATM   39  C   UNL     1      44.083 -18.959   4.048  1.00  0.00     0.002 A 
HETATM   40  C   UNL     1      43.534 -17.686   3.889  1.00  0.00     0.029 A 
ENDBRANCH  32  35
ENDBRANCH  10  31
TORSDOF 9
ENDMDL
MODEL 3
REMARK VINA RESULT:      -8.1      3.406      7.863
REMARK  9 active torsions:
REMARK  status: ('A' for Active; 'I' for Inactive)
REMARK    1  A    between atoms: C_6  and  C_7 
REMARK    2  A    between atoms: C_7  and  C_8 
REMARK       I    between atoms: C_8  and  N_9 
REMARK    3  A    between atoms: N_9  and  C_10 
REMARK    4  A    between atoms: C_10  and  C_11 
REMARK    5  A    between atoms: C_11  and  N_12 
REMARK    6  A    between atoms: C_17  and  C_18 
REMARK    7  A    between atoms: C_21  and  C_22 
REMARK    8  A    between atoms: C_29  and  C_30 
REMARK       I    between atoms: C_30  and  N_31 
REMARK    9  A    between atoms: N_31  and  C_32 
ROOT
HETATM    1  C   UNL     1      40.518 -14.696   6.186  1.00  0.00     0.071 C 
HETATM    2  C   UNL     1      40.871 -14.726   4.717  1.00  0.00     0.047 C 
HETATM    3  N   UNL     1      39.809 -15.127   3.918  1.00  0.00    -0.229 NA
HETATM    4  C   UNL     1      39.932 -14.963   2.647  1.00  0.00     0.170 C 
HETATM    5  N   UNL     1      41.249 -14.553   1.934  1.00  0.00    -0.319 N 
HETATM    6  C   UNL     1      41.040 -14.178   0.715  1.00  0.00     0.011 C 
HETATM    7  C   UNL     1      42.431 -14.834   2.778  1.00  0.00     0.165 C 
HETATM    8  S   UNL     1      38.616 -15.067   1.528  1.00  0.00    -0.086 SA
HETATM    9  C   UNL     1      39.591 -14.172   0.278  1.00  0.00     0.135 C 
HETATM   10  C   UNL     1      42.077 -14.398   4.193  1.00  0.00     0.062 C 
ENDROOT
BRANCH   6  11
HETATM   11  C   UNL     1      42.155 -13.823  -0.225  1.00  0.00     0.156 C 
BRANCH  11  12
HETATM   12  C   UNL     1      42.310 -12.342  -0.507  1.00  0.00     0.223 C 
HETATM   13  N   UNL     1      42.033 -11.983  -1.800  1.00  0.00    -0.359 N 
HETATM   14  H   UNL     1      41.831 -12.729  -2.462  1.00  0.00     0.162 HD
HETATM   15  O   UNL     1      42.688 -11.554   0.355  1.00  0.00    -0.273 OA
BRANCH  13  16
HETATM   16  C   UNL     1      42.335 -10.702  -2.450  1.00  0.00     0.150 C 
BRANCH  16  17
HETATM   17  C   UNL     1      41.442  -9.481  -2.147  1.00  0.00     0.253 C 
BRANCH  17  18
HETATM   18  N   UNL     1      41.740  -8.827  -0.813  1.00  0.00    -0.077 N 
HETATM   19  H   UNL     1      41.710  -9.592  -0.109  1.00  0.00     0.279 HD
HETATM   20  C   UNL     1      43.094  -8.176  -0.725  1.00  0.00     0.269 C 
HETATM   21  C   UNL     1      40.656  -7.854  -0.427  1.00  0.00     0.269 C 
ENDBRANCH  17  18
ENDBRANCH  16  17
ENDBRANCH  13  16
ENDBRANCH  11  12
ENDBRANCH   6  11
BRANCH   7  22
HETATM   22  C   UNL     1      42.785 -16.330   2.618  1.00  0.00    -0.030 A 
HETATM   23  C   UNL     1      42.705 -17.201   3.723  1.00  0.00     0.010 A 
HETATM   24  C   UNL     1      43.232 -18.497   3.673  1.00  0.00     0.008 A 
HETATM   25  C   UNL     1      43.829 -18.983   2.507  1.00  0.00    -0.055 A 
HETATM   26  C   UNL     1      43.810 -18.169   1.370  1.00  0.00     0.008 A 
HETATM   27  C   UNL     1      43.294 -16.869   1.423  1.00  0.00     0.010 A 
BRANCH  25  28
HETATM   28  C   UNL     1      44.484 -20.355   2.498  1.00  0.00     0.010 C 
HETATM   29  C   UNL     1      44.841 -20.826   3.907  1.00  0.00     0.015 C 
HETATM   30  C   UNL     1      43.607 -21.388   1.782  1.00  0.00     0.015 C 
ENDBRANCH  25  28
ENDBRANCH   7  22
BRANCH  10  31
HETATM   31  C   UNL     1      43.096 -13.474   4.798  1.00  0.00     0.256 C 
HETATM   32  N   UNL     1      44.030 -14.107   5.587  1.00  0.00    -0.323 N 
HETATM   33  H   UNL     1      44.187 -15.096   5.469  1.00  0.00     0.169 HD
HETATM   34  O   UNL     1      42.884 -12.270   4.737  1.00  0.00    -0.267 OA
BRANCH  32  35
HETATM   35  C   UNL     1      44.768 -13.571   6.664  1.00  0.00     0.035 A 
HETATM   36  C   UNL     1      46.129 -13.277   6.612  1.00  0.00     0.029 A 
HETATM   37  C   UNL     1      46.747 -12.629   7.688  1.00  0.00     0.002 A 
HETATM   38  C   UNL     1      46.013 -12.288   8.824  1.00  0.00     0.000 A 
HETATM   39  C   UNL     1      44.661 -12.602   8.894  1.00  0.00     0.002 A 
HETATM   40  C   UNL     1      44.041 -13.237   7.817  1.00  0.00     0.029 A 
ENDBRANCH  32  35
ENDBRANCH  10  31
TORSDOF 9
ENDMDL
MODEL 4
REMARK VINA RESULT:      -8.0      3.639      8.445
REMARK  9 active torsions:
REMARK  status: ('A' for Active; 'I' for Inactive)
REMARK    1  A    between atoms: C_6  and  C_7 
REMARK    2  A    between atoms: C_7  and  C_8 
REMARK       I    between atoms: C_8  and  N_9 
REMARK    3  A    between atoms: N_9  and  C_10 
REMARK    4  A    between atoms: C_10  and  C_11 
REMARK    5  A    between atoms: C_11  and  N_12 
REMARK    6  A    between atoms: C_17  and  C_18 
REMARK    7  A    between atoms: C_21  and  C_22 
REMARK    8  A    between atoms: C_29  and  C_30 
REMARK       I    between atoms: C_30  and  N_31 
REMARK    9  A    between atoms: N_31  and  C_32 
ROOT
HETATM    1  C   UNL     1      40.705 -14.811   6.250  1.00  0.00     0.071 C 
HETATM    2  C   UNL     1      40.988 -14.844   4.766  1.00  0.00     0.047 C 
HETATM    3  N   UNL     1      39.885 -15.230   4.018  1.00  0.00    -0.229 NA
HETATM    4  C   UNL     1      39.950 -15.065   2.742  1.00  0.00     0.170 C 
HETATM    5  N   UNL     1      41.237 -14.673   1.968  1.00  0.00    -0.319 N 
HETATM    6  C   UNL     1      40.976 -14.293   0.761  1.00  0.00     0.011 C 
HETATM    7  C   UNL     1      42.454 -14.970   2.755  1.00  0.00     0.165 C 
HETATM    8  S   UNL     1      38.581 -15.151   1.686  1.00  0.00    -0.086 SA
HETATM    9  C   UNL     1      39.508 -14.267   0.392  1.00  0.00     0.135 C 
HETATM   10  C   UNL     1      42.173 -14.532   4.186  1.00  0.00     0.062 C 
ENDROOT
BRANCH   6  11
HETATM   11  C   UNL     1      42.051 -13.952  -0.230  1.00  0.00     0.156 C 
BRANCH  11  12
HETATM   12  C   UNL     1      41.621 -13.995  -1.683  1.00  0.00     0.223 C 
HETATM   13  N   UNL     1      41.612 -12.772  -2.304  1.00  0.00    -0.359 N 
HETATM   14  H   UNL     1      41.811 -11.954  -1.732  1.00  0.00     0.162 HD
HETATM   15  O   UNL     1      41.280 -15.040  -2.228  1.00  0.00    -0.273 OA
BRANCH  13  16
HETATM   16  C   UNL     1      41.007 -12.439  -3.599  1.00  0.00     0.150 C 
BRANCH  16  17
HETATM   17  C   UNL     1      39.510 -12.070  -3.653  1.00  0.00     0.253 C 
BRANCH  17  18
HETATM   18  N   UNL     1      38.637 -12.949  -2.782  1.00  0.00    -0.077 N 
HETATM   19  H   UNL     1      39.259 -13.317  -2.035  1.00  0.00     0.279 HD
HETATM   20  C   UNL     1      37.494 -12.233  -2.115  1.00  0.00     0.269 C 
HETATM   21  C   UNL     1      38.138 -14.151  -3.544  1.00  0.00     0.269 C 
ENDBRANCH  17  18
ENDBRANCH  16  17
ENDBRANCH  13  16
ENDBRANCH  11  12
ENDBRANCH   6  11
BRANCH   7  22
HETATM   22  C   UNL     1      42.780 -16.471   2.578  1.00  0.00    -0.030 A 
HETATM   23  C   UNL     1      42.760 -17.339   3.688  1.00  0.00     0.010 A 
HETATM   24  C   UNL     1      43.268 -18.641   3.609  1.00  0.00     0.008 A 
HETATM   25  C   UNL     1      43.784 -19.136   2.409  1.00  0.00    -0.055 A 
HETATM   26  C   UNL     1      43.703 -18.325   1.274  1.00  0.00     0.008 A 
HETATM   27  C   UNL     1      43.206 -17.019   1.355  1.00  0.00     0.010 A 
BRANCH  25  28
HETATM   28  C   UNL     1      44.422 -20.516   2.363  1.00  0.00     0.010 C 
HETATM   29  C   UNL     1      44.772 -21.029   3.759  1.00  0.00     0.015 C 
HETATM   30  C   UNL     1      43.531 -21.517   1.619  1.00  0.00     0.015 C 
ENDBRANCH  25  28
ENDBRANCH   7  22
BRANCH  10  31
HETATM   31  C   UNL     1      43.231 -13.623   4.743  1.00  0.00     0.256 C 
HETATM   32  N   UNL     1      44.081 -14.232   5.640  1.00  0.00    -0.323 N 
HETATM   33  H   UNL     1      44.167 -15.236   5.633  1.00  0.00     0.169 HD
HETATM   34  O   UNL     1      43.114 -12.420   4.547  1.00  0.00    -0.267 OA
BRANCH  32  35
HETATM   35  C   UNL     1      44.810 -13.637   6.691  1.00  0.00     0.035 A 
HETATM   36  C   UNL     1      46.154 -13.279   6.609  1.00  0.00     0.029 A 
HETATM   37  C   UNL     1      46.758 -12.578   7.659  1.00  0.00     0.002 A 
HETATM   38  C   UNL     1      46.028 -12.247   8.801  1.00  0.00     0.000 A 
HETATM   39  C   UNL     1      44.694 -12.625   8.901  1.00  0.00     0.002 A 
HETATM   40  C   UNL     1      44.087 -13.312   7.850  1.00  0.00     0.029 A 
ENDBRANCH  32  35
ENDBRANCH  10  31
TORSDOF 9
ENDMDL
MODEL 5
REMARK VINA RESULT:      -8.0      4.187      8.532
REMARK  9 active torsions:
REMARK  status: ('A' for Active; 'I' for Inactive)
REMARK    1  A    between atoms: C_6  and  C_7 
REMARK    2  A    between atoms: C_7  and  C_8 
REMARK       I    between atoms: C_8  and  N_9 
REMARK    3  A    between atoms: N_9  and  C_10 
REMARK    4  A    between atoms: C_10  and  C_11 
REMARK    5  A    between atoms: C_11  and  N_12 
REMARK    6  A    between atoms: C_17  and  C_18 
REMARK    7  A    between atoms: C_21  and  C_22 
REMARK    8  A    between atoms: C_29  and  C_30 
REMARK       I    between atoms: C_30  and  N_31 
REMARK    9  A    between atoms: N_31  and  C_32 
ROOT
HETATM    1  C   UNL     1      37.925 -14.506  -2.909  1.00  0.00     0.071 C 
HETATM    2  C   UNL     1      38.956 -14.064  -1.896  1.00  0.00     0.047 C 
HETATM    3  N   UNL     1      40.221 -13.917  -2.448  1.00  0.00    -0.229 NA
HETATM    4  C   UNL     1      41.112 -13.324  -1.732  1.00  0.00     0.170 C 
HETATM    5  N   UNL     1      40.939 -12.958  -0.233  1.00  0.00    -0.319 N 
HETATM    6  C   UNL     1      41.842 -12.126   0.167  1.00  0.00     0.011 C 
HETATM    7  C   UNL     1      39.873 -13.765   0.401  1.00  0.00     0.165 C 
HETATM    8  S   UNL     1      42.617 -12.737  -2.353  1.00  0.00    -0.086 SA
HETATM    9  C   UNL     1      42.815 -11.663  -0.896  1.00  0.00     0.135 C 
HETATM   10  C   UNL     1      38.714 -13.820  -0.585  1.00  0.00     0.062 C 
ENDROOT
BRANCH   6  11
HETATM   11  C   UNL     1      41.959 -11.685   1.598  1.00  0.00     0.156 C 
BRANCH  11  12
HETATM   12  C   UNL     1      42.247 -12.794   2.590  1.00  0.00     0.223 C 
HETATM   13  N   UNL     1      41.366 -12.853   3.639  1.00  0.00    -0.359 N 
HETATM   14  H   UNL     1      40.663 -12.120   3.703  1.00  0.00     0.162 HD
HETATM   15  O   UNL     1      43.212 -13.541   2.465  1.00  0.00    -0.273 OA
BRANCH  13  16
HETATM   16  C   UNL     1      41.515 -13.623   4.880  1.00  0.00     0.150 C 
BRANCH  16  17
HETATM   17  C   UNL     1      42.519 -13.136   5.946  1.00  0.00     0.253 C 
BRANCH  17  18
HETATM   18  N   UNL     1      43.278 -14.260   6.621  1.00  0.00    -0.077 N 
HETATM   19  H   UNL     1      42.659 -14.602   7.384  1.00  0.00     0.279 HD
HETATM   20  C   UNL     1      43.592 -15.428   5.727  1.00  0.00     0.269 C 
HETATM   21  C   UNL     1      44.529 -13.750   7.290  1.00  0.00     0.269 C 
ENDBRANCH  17  18
ENDBRANCH  16  17
ENDBRANCH  13  16
ENDBRANCH  11  12
ENDBRANCH   6  11
BRANCH   7  22
HETATM   22  C   UNL     1      40.477 -15.135   0.783  1.00  0.00    -0.030 A 
HETATM   23  C   UNL     1      39.965 -15.858   1.879  1.00  0.00     0.010 A 
HETATM   24  C   UNL     1      40.629 -16.980   2.391  1.00  0.00     0.008 A 
HETATM   25  C   UNL     1      41.811 -17.440   1.807  1.00  0.00    -0.055 A 
HETATM   26  C   UNL     1      42.266 -16.801   0.651  1.00  0.00     0.008 A 
HETATM   27  C   UNL     1      41.610 -15.673   0.144  1.00  0.00     0.010 A 
BRANCH  25  28
HETATM   28  C   UNL     1      42.572 -18.598   2.434  1.00  0.00     0.010 C 
HETATM   29  C   UNL     1      43.970 -18.752   1.836  1.00  0.00     0.015 C 
HETATM   30  C   UNL     1      42.641 -18.460   3.959  1.00  0.00     0.015 C 
ENDBRANCH  25  28
ENDBRANCH   7  22
BRANCH  10  31
HETATM   31  C   UNL     1      37.402 -13.413   0.023  1.00  0.00     0.256 C 
HETATM   32  N   UNL     1      37.084 -12.086  -0.161  1.00  0.00    -0.323 N 
HETATM   33  H   UNL     1      37.527 -11.572  -0.908  1.00  0.00     0.169 HD
HETATM   34  O   UNL     1      36.863 -14.194   0.796  1.00  0.00    -0.267 OA
BRANCH  32  35
HETATM   35  C   UNL     1      36.265 -11.266   0.643  1.00  0.00     0.035 A 
HETATM   36  C   UNL     1      36.742 -10.421   1.643  1.00  0.00     0.029 A 
HETATM   37  C   UNL     1      35.865  -9.551   2.302  1.00  0.00     0.002 A 
HETATM   38  C   UNL     1      34.509  -9.534   1.977  1.00  0.00     0.000 A 
HETATM   39  C   UNL     1      34.021 -10.393   1.000  1.00  0.00     0.002 A 
HETATM   40  C   UNL     1      34.896 -11.252   0.333  1.00  0.00     0.029 A 
ENDBRANCH  32  35
ENDBRANCH  10  31
TORSDOF 9
ENDMDL
MODEL 6
REMARK VINA RESULT:      -7.5      5.359      9.384
REMARK  9 active torsions:
REMARK  status: ('A' for Active; 'I' for Inactive)
REMARK    1  A    between atoms: C_6  and  C_7 
REMARK    2  A    between atoms: C_7  and  C_8 
REMARK       I    between atoms: C_8  and  N_9 
REMARK    3  A    between atoms: N_9  and  C_10 
REMARK    4  A    between atoms: C_10  and  C_11 
REMARK    5  A    between atoms: C_11  and  N_12 
REMARK    6  A    between atoms: C_17  and  C_18 
REMARK    7  A    between atoms: C_21  and  C_22 
REMARK    8  A    between atoms: C_29  and  C_30 
REMARK       I    between atoms: C_30  and  N_31 
REMARK    9  A    between atoms: N_31  and  C_32 
ROOT
HETATM    1  C   UNL     1      40.139 -14.333   4.097  1.00  0.00     0.071 C 
HETATM    2  C   UNL     1      40.646 -13.586   2.885  1.00  0.00     0.047 C 
HETATM    3  N   UNL     1      39.924 -12.429   2.627  1.00  0.00    -0.229 NA
HETATM    4  C   UNL     1      40.416 -11.606   1.767  1.00  0.00     0.170 C 
HETATM    5  N   UNL     1      41.631 -11.911   0.850  1.00  0.00    -0.319 N 
HETATM    6  C   UNL     1      42.098 -10.840   0.298  1.00  0.00     0.011 C 
HETATM    7  C   UNL     1      41.860 -13.367   0.720  1.00  0.00     0.165 C 
HETATM    8  S   UNL     1      39.867  -9.978   1.565  1.00  0.00    -0.086 SA
HETATM    9  C   UNL     1      41.409  -9.552   0.695  1.00  0.00     0.135 C 
HETATM   10  C   UNL     1      41.691 -13.966   2.110  1.00  0.00     0.062 C 
ENDROOT
BRANCH   6  11
HETATM   11  C   UNL     1      43.211 -10.868  -0.709  1.00  0.00     0.156 C 
BRANCH  11  12
HETATM   12  C   UNL     1      42.838 -10.372  -2.092  1.00  0.00     0.223 C 
HETATM   13  N   UNL     1      42.114 -11.268  -2.836  1.00  0.00    -0.359 N 
HETATM   14  H   UNL     1      41.962 -12.192  -2.439  1.00  0.00     0.162 HD
HETATM   15  O   UNL     1      43.194  -9.272  -2.504  1.00  0.00    -0.273 OA
BRANCH  13  16
HETATM   16  C   UNL     1      41.831 -11.202  -4.274  1.00  0.00     0.150 C 
BRANCH  16  17
HETATM   17  C   UNL     1      40.832 -10.146  -4.793  1.00  0.00     0.253 C 
BRANCH  17  18
HETATM   18  N   UNL     1      39.554 -10.741  -5.346  1.00  0.00    -0.077 N 
HETATM   19  H   UNL     1      39.823 -11.652  -5.769  1.00  0.00     0.279 HD
HETATM   20  C   UNL     1      38.492 -11.012  -4.314  1.00  0.00     0.269 C 
HETATM   21  C   UNL     1      39.001  -9.901  -6.469  1.00  0.00     0.269 C 
ENDBRANCH  17  18
ENDBRANCH  16  17
ENDBRANCH  13  16
ENDBRANCH  11  12
ENDBRANCH   6  11
BRANCH   7  22
HETATM   22  C   UNL     1      40.888 -13.908  -0.352  1.00  0.00    -0.030 A 
HETATM   23  C   UNL     1      41.253 -15.007  -1.155  1.00  0.00     0.010 A 
HETATM   24  C   UNL     1      40.504 -15.375  -2.279  1.00  0.00     0.008 A 
HETATM   25  C   UNL     1      39.343 -14.679  -2.624  1.00  0.00    -0.055 A 
HETATM   26  C   UNL     1      38.908 -13.661  -1.771  1.00  0.00     0.008 A 
HETATM   27  C   UNL     1      39.662 -13.285  -0.653  1.00  0.00     0.010 A 
BRANCH  25  28
HETATM   28  C   UNL     1      38.595 -15.027  -3.901  1.00  0.00     0.010 C 
HETATM   29  C   UNL     1      38.867 -16.462  -4.349  1.00  0.00     0.015 C 
HETATM   30  C   UNL     1      37.090 -14.777  -3.752  1.00  0.00     0.015 C 
ENDBRANCH  25  28
ENDBRANCH   7  22
BRANCH  10  31
HETATM   31  C   UNL     1      42.853 -14.820   2.529  1.00  0.00     0.256 C 
HETATM   32  N   UNL     1      42.710 -16.155   2.221  1.00  0.00    -0.323 N 
HETATM   33  H   UNL     1      42.059 -16.428   1.501  1.00  0.00     0.169 HD
HETATM   34  O   UNL     1      43.684 -14.328   3.282  1.00  0.00    -0.267 OA
BRANCH  32  35
HETATM   35  C   UNL     1      43.294 -17.265   2.867  1.00  0.00     0.035 A 
HETATM   36  C   UNL     1      43.274 -17.471   4.245  1.00  0.00     0.029 A 
HETATM   37  C   UNL     1      43.768 -18.666   4.782  1.00  0.00     0.002 A 
HETATM   38  C   UNL     1      44.298 -19.650   3.948  1.00  0.00     0.000 A 
HETATM   39  C   UNL     1      44.346 -19.440   2.575  1.00  0.00     0.002 A 
HETATM   40  C   UNL     1      43.843 -18.256   2.037  1.00  0.00     0.029 A 
ENDBRANCH  32  35
ENDBRANCH  10  31
TORSDOF 9
ENDMDL
MODEL 7
REMARK VINA RESULT:      -7.3      1.589      2.445
REMARK  9 active torsions:
REMARK  status: ('A' for Active; 'I' for Inactive)
REMARK    1  A    between atoms: C_6  and  C_7 
REMARK    2  A    between atoms: C_7  and  C_8 
REMARK       I    between atoms: C_8  and  N_9 
REMARK    3  A    between atoms: N_9  and  C_10 
REMARK    4  A    between atoms: C_10  and  C_11 
REMARK    5  A    between atoms: C_11  and  N_12 
REMARK    6  A    between atoms: C_17  and  C_18 
REMARK    7  A    between atoms: C_21  and  C_22 
REMARK    8  A    between atoms: C_29  and  C_30 
REMARK       I    between atoms: C_30  and  N_31 
REMARK    9  A    between atoms: N_31  and  C_32 
ROOT
HETATM    1  C   UNL     1      43.996 -16.167   2.280  1.00  0.00     0.071 C 
HETATM    2  C   UNL     1      43.095 -15.385   3.209  1.00  0.00     0.047 C 
HETATM    3  N   UNL     1      42.769 -14.132   2.711  1.00  0.00    -0.229 NA
HETATM    4  C   UNL     1      41.828 -13.486   3.309  1.00  0.00     0.170 C 
HETATM    5  N   UNL     1      41.188 -13.909   4.659  1.00  0.00    -0.319 N 
HETATM    6  C   UNL     1      40.090 -13.269   4.892  1.00  0.00     0.011 C 
HETATM    7  C   UNL     1      42.069 -14.830   5.410  1.00  0.00     0.165 C 
HETATM    8  S   UNL     1      41.044 -12.092   2.649  1.00  0.00    -0.086 SA
HETATM    9  C   UNL     1      39.654 -12.311   3.805  1.00  0.00     0.135 C 
HETATM   10  C   UNL     1      42.629 -15.825   4.404  1.00  0.00     0.062 C 
ENDROOT
BRANCH   6  11
HETATM   11  C   UNL     1      39.322 -13.420   6.173  1.00  0.00     0.156 C 
BRANCH  11  12
HETATM   12  C   UNL     1      39.322 -12.197   7.069  1.00  0.00     0.223 C 
HETATM   13  N   UNL     1      39.851 -11.073   6.488  1.00  0.00    -0.359 N 
HETATM   14  H   UNL     1      40.259 -11.172   5.561  1.00  0.00     0.162 HD
HETATM   15  O   UNL     1      38.912 -12.240   8.225  1.00  0.00    -0.273 OA
BRANCH  13  16
HETATM   16  C   UNL     1      40.231  -9.823   7.157  1.00  0.00     0.150 C 
BRANCH  16  17
HETATM   17  C   UNL     1      39.177  -8.706   7.309  1.00  0.00     0.253 C 
BRANCH  17  18
HETATM   18  N   UNL     1      39.032  -7.838   6.076  1.00  0.00    -0.077 N 
HETATM   19  H   UNL     1      38.734  -6.903   6.420  1.00  0.00     0.279 HD
HETATM   20  C   UNL     1      40.300  -7.654   5.287  1.00  0.00     0.269 C 
HETATM   21  C   UNL     1      37.920  -8.334   5.187  1.00  0.00     0.269 C 
ENDBRANCH  17  18
ENDBRANCH  16  17
ENDBRANCH  13  16
ENDBRANCH  11  12
ENDBRANCH   6  11
BRANCH   7  22
HETATM   22  C   UNL     1      43.124 -13.980   6.153  1.00  0.00    -0.030 A 
HETATM   23  C   UNL     1      44.467 -14.401   6.207  1.00  0.00     0.010 A 
HETATM   24  C   UNL     1      45.395 -13.784   7.055  1.00  0.00     0.008 A 
HETATM   25  C   UNL     1      45.023 -12.701   7.855  1.00  0.00    -0.055 A 
HETATM   26  C   UNL     1      43.724 -12.202   7.725  1.00  0.00     0.008 A 
HETATM   27  C   UNL     1      42.793 -12.825   6.886  1.00  0.00     0.010 A 
BRANCH  25  28
HETATM   28  C   UNL     1      46.014 -12.105   8.843  1.00  0.00     0.010 C 
HETATM   29  C   UNL     1      47.271 -11.586   8.146  1.00  0.00     0.015 C 
HETATM   30  C   UNL     1      45.364 -11.006   9.690  1.00  0.00     0.015 C 
ENDBRANCH  25  28
ENDBRANCH   7  22
BRANCH  10  31
HETATM   31  C   UNL     1      42.432 -17.256   4.817  1.00  0.00     0.256 C 
HETATM   32  N   UNL     1      43.481 -17.783   5.537  1.00  0.00    -0.323 N 
HETATM   33  H   UNL     1      44.121 -17.159   6.005  1.00  0.00     0.169 HD
HETATM   34  O   UNL     1      41.512 -17.879   4.304  1.00  0.00    -0.267 OA
BRANCH  32  35
HETATM   35  C   UNL     1      43.876 -19.133   5.641  1.00  0.00     0.035 A 
HETATM   36  C   UNL     1      43.565 -19.960   6.719  1.00  0.00     0.029 A 
HETATM   37  C   UNL     1      43.891 -21.321   6.675  1.00  0.00     0.002 A 
HETATM   38  C   UNL     1      44.542 -21.856   5.563  1.00  0.00     0.000 A 
HETATM   39  C   UNL     1      44.880 -21.032   4.496  1.00  0.00     0.002 A 
HETATM   40  C   UNL     1      44.544 -19.678   4.533  1.00  0.00     0.029 A 
ENDBRANCH  32  35
ENDBRANCH  10  31
TORSDOF 9
ENDMDL
MODEL 8
REMARK VINA RESULT:      -7.2      2.974      8.262
REMARK  9 active torsions:
REMARK  status: ('A' for Active; 'I' for Inactive)
REMARK    1  A    between atoms: C_6  and  C_7 
REMARK    2  A    between atoms: C_7  and  C_8 
REMARK       I    between atoms: C_8  and  N_9 
REMARK    3  A    between atoms: N_9  and  C_10 
REMARK    4  A    between atoms: C_10  and  C_11 
REMARK    5  A    between atoms: C_11  and  N_12 
REMARK    6  A    between atoms: C_17  and  C_18 
REMARK    7  A    between atoms: C_21  and  C_22 
REMARK    8  A    between atoms: C_29  and  C_30 
REMARK       I    between atoms: C_30  and  N_31 
REMARK    9  A    between atoms: N_31  and  C_32 
ROOT
HETATM    1  C   UNL     1      39.179 -12.038   7.500  1.00  0.00     0.071 C 
HETATM    2  C   UNL     1      39.758 -11.846   6.117  1.00  0.00     0.047 C 
HETATM    3  N   UNL     1      38.831 -12.075   5.111  1.00  0.00    -0.229 NA
HETATM    4  C   UNL     1      39.154 -11.714   3.917  1.00  0.00     0.170 C 
HETATM    5  N   UNL     1      40.571 -11.245   3.491  1.00  0.00    -0.319 N 
HETATM    6  C   UNL     1      40.560 -10.672   2.333  1.00  0.00     0.011 C 
HETATM    7  C   UNL     1      41.603 -11.700   4.449  1.00  0.00     0.165 C 
HETATM    8  S   UNL     1      38.028 -11.590   2.608  1.00  0.00    -0.086 SA
HETATM    9  C   UNL     1      39.198 -10.543   1.686  1.00  0.00     0.135 C 
HETATM   10  C   UNL     1      41.036 -11.484   5.845  1.00  0.00     0.062 C 
ENDROOT
BRANCH   6  11
HETATM   11  C   UNL     1      41.813 -10.214   1.645  1.00  0.00     0.156 C 
BRANCH  11  12
HETATM   12  C   UNL     1      42.185 -10.993   0.400  1.00  0.00     0.223 C 
HETATM   13  N   UNL     1      41.342 -12.036   0.116  1.00  0.00    -0.359 N 
HETATM   14  H   UNL     1      40.606 -12.242   0.789  1.00  0.00     0.162 HD
HETATM   15  O   UNL     1      43.181 -10.720  -0.263  1.00  0.00    -0.273 OA
BRANCH  13  16
HETATM   16  C   UNL     1      41.566 -13.122  -0.845  1.00  0.00     0.150 C 
BRANCH  16  17
HETATM   17  C   UNL     1      41.041 -14.535  -0.513  1.00  0.00     0.253 C 
BRANCH  17  18
HETATM   18  N   UNL     1      40.060 -15.072  -1.535  1.00  0.00    -0.077 N 
HETATM   19  H   UNL     1      39.547 -15.842  -1.060  1.00  0.00     0.279 HD
HETATM   20  C   UNL     1      39.043 -14.071  -2.012  1.00  0.00     0.269 C 
HETATM   21  C   UNL     1      40.776 -15.700  -2.703  1.00  0.00     0.269 C 
ENDBRANCH  17  18
ENDBRANCH  16  17
ENDBRANCH  13  16
ENDBRANCH  11  12
ENDBRANCH   6  11
BRANCH   7  22
HETATM   22  C   UNL     1      41.960 -13.164   4.103  1.00  0.00    -0.030 A 
HETATM   23  C   UNL     1      41.666 -14.201   5.010  1.00  0.00     0.010 A 
HETATM   24  C   UNL     1      42.176 -15.493   4.835  1.00  0.00     0.008 A 
HETATM   25  C   UNL     1      42.971 -15.806   3.730  1.00  0.00    -0.055 A 
HETATM   26  C   UNL     1      43.173 -14.816   2.764  1.00  0.00     0.008 A 
HETATM   27  C   UNL     1      42.673 -13.520   2.944  1.00  0.00     0.010 A 
BRANCH  25  28
HETATM   28  C   UNL     1      43.598 -17.185   3.605  1.00  0.00     0.010 C 
HETATM   29  C   UNL     1      43.607 -17.931   4.940  1.00  0.00     0.015 C 
HETATM   30  C   UNL     1      42.906 -18.017   2.519  1.00  0.00     0.015 C 
ENDBRANCH  25  28
ENDBRANCH   7  22
BRANCH  10  31
HETATM   31  C   UNL     1      41.957 -10.707   6.741  1.00  0.00     0.256 C 
HETATM   32  N   UNL     1      42.559 -11.464   7.722  1.00  0.00    -0.323 N 
HETATM   33  H   UNL     1      42.620 -12.464   7.604  1.00  0.00     0.169 HD
HETATM   34  O   UNL     1      41.919  -9.485   6.682  1.00  0.00    -0.267 OA
BRANCH  32  35
HETATM   35  C   UNL     1      43.038 -11.040   8.980  1.00  0.00     0.035 A 
HETATM   36  C   UNL     1      42.244 -10.452   9.963  1.00  0.00     0.029 A 
HETATM   37  C   UNL     1      42.781 -10.182  11.227  1.00  0.00     0.002 A 
HETATM   38  C   UNL     1      44.114 -10.482  11.508  1.00  0.00     0.000 A 
HETATM   39  C   UNL     1      44.919 -11.044  10.524  1.00  0.00     0.002 A 
HETATM   40  C   UNL     1      44.382 -11.326   9.267  1.00  0.00     0.029 A 
ENDBRANCH  32  35
ENDBRANCH  10  31
TORSDOF 9
ENDMDL
MODEL 9
REMARK VINA RESULT:      -7.2      3.620      6.935
REMARK  9 active torsions:
REMARK  status: ('A' for Active; 'I' for Inactive)
REMARK    1  A    between atoms: C_6  and  C_7 
REMARK    2  A    between atoms: C_7  and  C_8 
REMARK       I    between atoms: C_8  and  N_9 
REMARK    3  A    between atoms: N_9  and  C_10 
REMARK    4  A    between atoms: C_10  and  C_11 
REMARK    5  A    between atoms: C_11  and  N_12 
REMARK    6  A    between atoms: C_17  and  C_18 
REMARK    7  A    between atoms: C_21  and  C_22 
REMARK    8  A    between atoms: C_29  and  C_30 
REMARK       I    between atoms: C_30  and  N_31 
REMARK    9  A    between atoms: N_31  and  C_32 
ROOT
HETATM    1  C   UNL     1      44.243 -14.604   3.366  1.00  0.00     0.071 C 
HETATM    2  C   UNL     1      42.868 -14.146   2.936  1.00  0.00     0.047 C 
HETATM    3  N   UNL     1      42.882 -12.893   2.341  1.00  0.00    -0.229 NA
HETATM    4  C   UNL     1      41.810 -12.516   1.735  1.00  0.00     0.170 C 
HETATM    5  N   UNL     1      40.450 -13.260   1.803  1.00  0.00    -0.319 N 
HETATM    6  C   UNL     1      39.630 -12.851   0.892  1.00  0.00     0.011 C 
HETATM    7  C   UNL     1      40.377 -14.148   2.985  1.00  0.00     0.165 C 
HETATM    8  S   UNL     1      41.737 -11.168   0.651  1.00  0.00    -0.086 SA
HETATM    9  C   UNL     1      40.179 -11.799  -0.049  1.00  0.00     0.135 C 
HETATM   10  C   UNL     1      41.722 -14.854   3.090  1.00  0.00     0.062 C 
ENDROOT
BRANCH   6  11
HETATM   11  C   UNL     1      38.214 -13.339   0.799  1.00  0.00     0.156 C 
BRANCH  11  12
HETATM   12  C   UNL     1      37.621 -13.328  -0.596  1.00  0.00     0.223 C 
HETATM   13  N   UNL     1      37.978 -14.402  -1.369  1.00  0.00    -0.359 N 
HETATM   14  H   UNL     1      38.655 -15.055  -0.980  1.00  0.00     0.162 HD
HETATM   15  O   UNL     1      36.913 -12.407  -0.992  1.00  0.00    -0.273 OA
BRANCH  13  16
HETATM   16  C   UNL     1      37.794 -14.554  -2.817  1.00  0.00     0.150 C 
BRANCH  16  17
HETATM   17  C   UNL     1      38.980 -15.044  -3.674  1.00  0.00     0.253 C 
BRANCH  17  18
HETATM   18  N   UNL     1      40.065 -14.003  -3.857  1.00  0.00    -0.077 N 
HETATM   19  H   UNL     1      40.380 -14.091  -4.844  1.00  0.00     0.279 HD
HETATM   20  C   UNL     1      39.613 -12.583  -3.646  1.00  0.00     0.269 C 
HETATM   21  C   UNL     1      41.268 -14.311  -3.002  1.00  0.00     0.269 C 
ENDBRANCH  17  18
ENDBRANCH  16  17
ENDBRANCH  13  16
ENDBRANCH  11  12
ENDBRANCH   6  11
BRANCH   7  22
HETATM   22  C   UNL     1      39.990 -13.284   4.205  1.00  0.00    -0.030 A 
HETATM   23  C   UNL     1      39.606 -11.939   4.032  1.00  0.00     0.010 A 
HETATM   24  C   UNL     1      39.473 -11.069   5.120  1.00  0.00     0.008 A 
HETATM   25  C   UNL     1      39.685 -11.518   6.426  1.00  0.00    -0.055 A 
HETATM   26  C   UNL     1      39.953 -12.876   6.619  1.00  0.00     0.008 A 
HETATM   27  C   UNL     1      40.097 -13.744   5.530  1.00  0.00     0.010 A 
BRANCH  25  28
HETATM   28  C   UNL     1      39.633 -10.539   7.589  1.00  0.00     0.010 C 
HETATM   29  C   UNL     1      38.874  -9.263   7.227  1.00  0.00     0.015 C 
HETATM   30  C   UNL     1      39.039 -11.192   8.841  1.00  0.00     0.015 C 
ENDBRANCH  25  28
ENDBRANCH   7  22
BRANCH  10  31
HETATM   31  C   UNL     1      41.598 -16.347   3.192  1.00  0.00     0.256 C 
HETATM   32  N   UNL     1      42.757 -16.983   3.578  1.00  0.00    -0.323 N 
HETATM   33  H   UNL     1      43.472 -16.456   4.057  1.00  0.00     0.169 HD
HETATM   34  O   UNL     1      40.598 -16.872   2.720  1.00  0.00    -0.267 OA
BRANCH  32  35
HETATM   35  C   UNL     1      43.160 -18.306   3.300  1.00  0.00     0.035 A 
HETATM   36  C   UNL     1      42.897 -18.970   2.103  1.00  0.00     0.029 A 
HETATM   37  C   UNL     1      43.447 -20.236   1.869  1.00  0.00     0.002 A 
HETATM   38  C   UNL     1      44.246 -20.849   2.835  1.00  0.00     0.000 A 
HETATM   39  C   UNL     1      44.490 -20.204   4.042  1.00  0.00     0.002 A 
HETATM   40  C   UNL     1      43.953 -18.937   4.271  1.00  0.00     0.029 A 
ENDBRANCH  32  35
ENDBRANCH  10  31
TORSDOF 9
ENDMDL
MODEL 10
REMARK VINA RESULT:      -7.1      6.290      9.679
REMARK  9 active torsions:
REMARK  status: ('A' for Active; 'I' for Inactive)
REMARK    1  A    between atoms: C_6  and  C_7 
REMARK    2  A    between atoms: C_7  and  C_8 
REMARK       I    between atoms: C_8  and  N_9 
REMARK    3  A    between atoms: N_9  and  C_10 
REMARK    4  A    between atoms: C_10  and  C_11 
REMARK    5  A    between atoms: C_11  and  N_12 
REMARK    6  A    between atoms: C_17  and  C_18 
REMARK    7  A    between atoms: C_21  and  C_22 
REMARK    8  A    between atoms: C_29  and  C_30 
REMARK       I    between atoms: C_30  and  N_31 
REMARK    9  A    between atoms: N_31  and  C_32 
ROOT
HETATM    1  C   UNL     1      41.732 -12.745  -3.723  1.00  0.00     0.071 C 
HETATM    2  C   UNL     1      40.997 -12.622  -2.407  1.00  0.00     0.047 C 
HETATM    3  N   UNL     1      41.628 -11.764  -1.519  1.00  0.00    -0.229 NA
HETATM    4  C   UNL     1      40.968 -11.411  -0.470  1.00  0.00     0.170 C 
HETATM    5  N   UNL     1      39.620 -12.037  -0.024  1.00  0.00    -0.319 N 
HETATM    6  C   UNL     1      39.032 -11.323   0.877  1.00  0.00     0.011 C 
HETATM    7  C   UNL     1      39.413 -13.369  -0.635  1.00  0.00     0.165 C 
HETATM    8  S   UNL     1      41.426 -10.099   0.562  1.00  0.00    -0.086 SA
HETATM    9  C   UNL     1      39.743 -10.041   1.255  1.00  0.00     0.135 C 
HETATM   10  C   UNL     1      39.842 -13.259  -2.091  1.00  0.00     0.062 C 
ENDROOT
BRANCH   6  11
HETATM   11  C   UNL     1      37.760 -11.753   1.548  1.00  0.00     0.156 C 
BRANCH  11  12
HETATM   12  C   UNL     1      36.498 -11.121   0.997  1.00  0.00     0.223 C 
HETATM   13  N   UNL     1      35.886 -10.244   1.856  1.00  0.00    -0.359 N 
HETATM   14  H   UNL     1      36.275 -10.155   2.792  1.00  0.00     0.162 HD
HETATM   15  O   UNL     1      36.058 -11.410  -0.111  1.00  0.00    -0.273 OA
BRANCH  13  16
HETATM   16  C   UNL     1      34.537  -9.679   1.734  1.00  0.00     0.150 C 
BRANCH  16  17
HETATM   17  C   UNL     1      33.324 -10.633   1.722  1.00  0.00     0.253 C 
BRANCH  17  18
HETATM   18  N   UNL     1      32.766 -10.921   3.100  1.00  0.00    -0.077 N 
HETATM   19  H   UNL     1      33.459 -11.542   3.564  1.00  0.00     0.279 HD
HETATM   20  C   UNL     1      32.586  -9.706   3.969  1.00  0.00     0.269 C 
HETATM   21  C   UNL     1      31.484 -11.709   3.017  1.00  0.00     0.269 C 
ENDBRANCH  17  18
ENDBRANCH  16  17
ENDBRANCH  13  16
ENDBRANCH  11  12
ENDBRANCH   6  11
BRANCH   7  22
HETATM   22  C   UNL     1      40.196 -14.403   0.206  1.00  0.00    -0.030 A 
HETATM   23  C   UNL     1      41.231 -15.159  -0.380  1.00  0.00     0.010 A 
HETATM   24  C   UNL     1      41.801 -16.255   0.279  1.00  0.00     0.008 A 
HETATM   25  C   UNL     1      41.381 -16.617   1.561  1.00  0.00    -0.055 A 
HETATM   26  C   UNL     1      40.438 -15.806   2.197  1.00  0.00     0.008 A 
HETATM   27  C   UNL     1      39.859 -14.716   1.535  1.00  0.00     0.010 A 
BRANCH  25  28
HETATM   28  C   UNL     1      41.939 -17.867   2.224  1.00  0.00     0.010 C 
HETATM   29  C   UNL     1      43.287 -18.274   1.630  1.00  0.00     0.015 C 
HETATM   30  C   UNL     1      42.039 -17.695   3.743  1.00  0.00     0.015 C 
ENDBRANCH  25  28
ENDBRANCH   7  22
BRANCH  10  31
HETATM   31  C   UNL     1      38.798 -13.750  -3.053  1.00  0.00     0.256 C 
HETATM   32  N   UNL     1      38.037 -12.749  -3.615  1.00  0.00    -0.323 N 
HETATM   33  H   UNL     1      38.391 -11.805  -3.623  1.00  0.00     0.169 HD
HETATM   34  O   UNL     1      38.562 -14.950  -3.078  1.00  0.00    -0.267 OA
BRANCH  32  35
HETATM   35  C   UNL     1      36.720 -12.833  -4.116  1.00  0.00     0.035 A 
HETATM   36  C   UNL     1      36.194 -13.954  -4.754  1.00  0.00     0.029 A 
HETATM   37  C   UNL     1      34.839 -13.990  -5.103  1.00  0.00     0.002 A 
HETATM   38  C   UNL     1      34.009 -12.902  -4.831  1.00  0.00     0.000 A 
HETATM   39  C   UNL     1      34.534 -11.769  -4.219  1.00  0.00     0.002 A 
HETATM   40  C   UNL     1      35.881 -11.737  -3.859  1.00  0.00     0.029 A 
ENDBRANCH  32  35
ENDBRANCH  10  31
TORSDOF 9
ENDMDL
