MODEL 1
REMARK VINA RESULT:      -7.8      0.000      0.000
REMARK  4 active torsions:
REMARK  status: ('A' for Active; 'I' for Inactive)
REMARK    1  A    between atoms: C_6  and  C_7 
REMARK    2  A    between atoms: C_7  and  N_8 
REMARK    3  A    between atoms: C_12  and  C_13 
REMARK    4  A    between atoms: C_15  and  C_16 
ROOT
HETATM    1  N   UNL     1      43.699 -14.849   7.159  1.00  0.00    -0.067 N 
HETATM    2  H   UNL     1      43.145 -14.414   7.904  1.00  0.00     0.280 HD
HETATM    3  C   UNL     1      42.869 -14.820   5.895  1.00  0.00     0.236 C 
HETATM    4  C   UNL     1      41.618 -15.676   6.062  1.00  0.00     0.040 C 
HETATM    5  C   UNL     1      41.926 -17.114   6.491  1.00  0.00     0.058 C 
HETATM    6  C   UNL     1      42.811 -17.106   7.742  1.00  0.00     0.040 C 
HETATM    7  C   UNL     1      44.062 -16.251   7.585  1.00  0.00     0.236 C 
ENDROOT
BRANCH   5   8
HETATM    8  C   UNL     1      42.573 -17.875   5.373  1.00  0.00     0.108 A 
HETATM    9  N   UNL     1      42.163 -17.894   4.123  1.00  0.00    -0.229 NA
HETATM   10  C   UNL     1      43.025 -18.745   3.438  1.00  0.00     0.157 A 
HETATM   11  C   UNL     1      43.973 -19.228   4.322  1.00  0.00     0.126 A 
HETATM   12  N   UNL     1      43.679 -18.671   5.537  1.00  0.00    -0.352 N 
HETATM   13  H   UNL     1      44.185 -18.830   6.400  1.00  0.00     0.166 HD
BRANCH  10  14
HETATM   14  C   UNL     1      42.874 -19.043   1.969  1.00  0.00     0.436 C 
HETATM   15  F   UNL     1      43.940 -18.600   1.247  1.00  0.00    -0.165 F 
HETATM   16  F   UNL     1      42.765 -20.376   1.733  1.00  0.00    -0.165 F 
HETATM   17  F   UNL     1      41.771 -18.451   1.446  1.00  0.00    -0.165 F 
ENDBRANCH  10  14
ENDBRANCH   5   8
BRANCH   1  18
HETATM   18  C   UNL     1      44.958 -14.008   7.026  1.00  0.00     0.275 C 
BRANCH  18  19
HETATM   19  C   UNL     1      45.028 -12.898   8.006  1.00  0.00    -0.001 A 
HETATM   20  C   UNL     1      46.118 -12.082   8.264  1.00  0.00     0.057 A 
HETATM   21  O   UNL     1      45.803 -11.158   9.208  1.00  0.00    -0.320 OA
HETATM   22  C   UNL     1      47.499 -12.019   7.733  1.00  0.00     0.077 C 
HETATM   23  C   UNL     1      44.519 -11.383   9.590  1.00  0.00     0.050 A 
HETATM   24  C   UNL     1      43.975 -10.490  10.635  1.00  0.00     0.076 C 
HETATM   25  C   UNL     1      43.998 -12.445   8.883  1.00  0.00     0.043 A 
ENDBRANCH  18  19
ENDBRANCH   1  18
TORSDOF 4
ENDMDL
MODEL 2
REMARK VINA RESULT:      -7.7      2.956      4.757
REMARK  4 active torsions:
REMARK  status: ('A' for Active; 'I' for Inactive)
REMARK    1  A    between atoms: C_6  and  C_7 
REMARK    2  A    between atoms: C_7  and  N_8 
REMARK    3  A    between atoms: C_12  and  C_13 
REMARK    4  A    between atoms: C_15  and  C_16 
ROOT
HETATM    1  N   UNL     1      42.144 -15.965   2.797  1.00  0.00    -0.067 N 
HETATM    2  H   UNL     1      41.879 -15.499   1.922  1.00  0.00     0.280 HD
HETATM    3  C   UNL     1      43.652 -16.071   2.821  1.00  0.00     0.236 C 
HETATM    4  C   UNL     1      44.138 -16.969   1.688  1.00  0.00     0.040 C 
HETATM    5  C   UNL     1      43.483 -18.353   1.694  1.00  0.00     0.058 C 
HETATM    6  C   UNL     1      41.958 -18.209   1.723  1.00  0.00     0.040 C 
HETATM    7  C   UNL     1      41.463 -17.311   2.851  1.00  0.00     0.236 C 
ENDROOT
BRANCH   5   8
HETATM    8  C   UNL     1      43.973 -19.168   2.853  1.00  0.00     0.108 A 
HETATM    9  N   UNL     1      44.088 -20.479   2.872  1.00  0.00    -0.229 NA
HETATM   10  C   UNL     1      44.544 -20.817   4.143  1.00  0.00     0.157 A 
HETATM   11  C   UNL     1      44.708 -19.659   4.882  1.00  0.00     0.126 A 
HETATM   12  N   UNL     1      44.347 -18.627   4.058  1.00  0.00    -0.352 N 
HETATM   13  H   UNL     1      44.349 -17.645   4.303  1.00  0.00     0.166 HD
BRANCH  10  14
HETATM   14  C   UNL     1      44.788 -22.242   4.566  1.00  0.00     0.436 C 
HETATM   15  F   UNL     1      43.852 -22.677   5.454  1.00  0.00    -0.165 F 
HETATM   16  F   UNL     1      44.758 -23.094   3.510  1.00  0.00    -0.165 F 
HETATM   17  F   UNL     1      45.997 -22.388   5.166  1.00  0.00    -0.165 F 
ENDBRANCH  10  14
ENDBRANCH   5   8
BRANCH   1  18
HETATM   18  C   UNL     1      41.623 -15.079   3.917  1.00  0.00     0.275 C 
BRANCH  18  19
HETATM   19  C   UNL     1      42.554 -14.980   5.068  1.00  0.00    -0.001 A 
HETATM   20  C   UNL     1      42.677 -15.874   6.120  1.00  0.00     0.057 A 
HETATM   21  O   UNL     1      43.652 -15.466   6.973  1.00  0.00    -0.320 OA
HETATM   22  C   UNL     1      41.985 -17.132   6.481  1.00  0.00     0.077 C 
HETATM   23  C   UNL     1      44.151 -14.296   6.498  1.00  0.00     0.050 A 
HETATM   24  C   UNL     1      45.224 -13.665   7.295  1.00  0.00     0.076 C 
HETATM   25  C   UNL     1      43.507 -13.951   5.330  1.00  0.00     0.043 A 
ENDBRANCH  18  19
ENDBRANCH   1  18
TORSDOF 4
ENDMDL
MODEL 3
REMARK VINA RESULT:      -7.7      3.502      5.350
REMARK  4 active torsions:
REMARK  status: ('A' for Active; 'I' for Inactive)
REMARK    1  A    between atoms: C_6  and  C_7 
REMARK    2  A    between atoms: C_7  and  N_8 
REMARK    3  A    between atoms: C_12  and  C_13 
REMARK    4  A    between atoms: C_15  and  C_16 
ROOT
HETATM    1  N   UNL     1      41.881 -15.604   6.459  1.00  0.00    -0.067 N 
HETATM    2  H   UNL     1      41.955 -14.928   7.227  1.00  0.00     0.280 HD
HETATM    3  C   UNL     1      41.741 -16.979   7.072  1.00  0.00     0.236 C 
HETATM    4  C   UNL     1      43.002 -17.343   7.850  1.00  0.00     0.040 C 
HETATM    5  C   UNL     1      44.279 -17.236   7.010  1.00  0.00     0.058 C 
HETATM    6  C   UNL     1      44.361 -15.850   6.362  1.00  0.00     0.040 C 
HETATM    7  C   UNL     1      43.105 -15.477   5.585  1.00  0.00     0.236 C 
ENDROOT
BRANCH   5   8
HETATM    8  C   UNL     1      44.329 -18.322   5.978  1.00  0.00     0.108 A 
HETATM    9  N   UNL     1      44.229 -18.146   4.678  1.00  0.00    -0.229 NA
HETATM   10  C   UNL     1      44.294 -19.411   4.102  1.00  0.00     0.157 A 
HETATM   11  C   UNL     1      44.448 -20.351   5.105  1.00  0.00     0.126 A 
HETATM   12  N   UNL     1      44.470 -19.653   6.281  1.00  0.00    -0.352 N 
HETATM   13  H   UNL     1      44.565 -20.053   7.206  1.00  0.00     0.166 HD
BRANCH  10  14
HETATM   14  C   UNL     1      44.199 -19.633   2.615  1.00  0.00     0.436 C 
HETATM   15  F   UNL     1      45.067 -20.590   2.186  1.00  0.00    -0.165 F 
HETATM   16  F   UNL     1      42.956 -20.032   2.243  1.00  0.00    -0.165 F 
HETATM   17  F   UNL     1      44.483 -18.503   1.918  1.00  0.00    -0.165 F 
ENDBRANCH  10  14
ENDBRANCH   5   8
BRANCH   1  18
HETATM   18  C   UNL     1      40.642 -15.210   5.672  1.00  0.00     0.275 C 
BRANCH  18  19
HETATM   19  C   UNL     1      40.739 -15.528   4.227  1.00  0.00    -0.001 A 
HETATM   20  C   UNL     1      40.604 -14.644   3.168  1.00  0.00     0.057 A 
HETATM   21  O   UNL     1      40.781 -15.292   1.987  1.00  0.00    -0.320 OA
HETATM   22  C   UNL     1      40.319 -13.194   3.074  1.00  0.00     0.077 C 
HETATM   23  C   UNL     1      41.005 -16.602   2.267  1.00  0.00     0.050 A 
HETATM   24  C   UNL     1      41.209 -17.498   1.109  1.00  0.00     0.076 C 
HETATM   25  C   UNL     1      40.985 -16.801   3.630  1.00  0.00     0.043 A 
ENDBRANCH  18  19
ENDBRANCH   1  18
TORSDOF 4
ENDMDL
MODEL 4
REMARK VINA RESULT:      -7.6      4.425      7.286
REMARK  4 active torsions:
REMARK  status: ('A' for Active; 'I' for Inactive)
REMARK    1  A    between atoms: C_6  and  C_7 
REMARK    2  A    between atoms: C_7  and  N_8 
REMARK    3  A    between atoms: C_12  and  C_13 
REMARK    4  A    between atoms: C_15  and  C_16 
ROOT
HETATM    1  N   UNL     1      42.745 -17.313   1.332  1.00  0.00    -0.067 N 
HETATM    2  H   UNL     1      42.481 -16.979   0.399  1.00  0.00     0.280 HD
HETATM    3  C   UNL     1      41.477 -17.718   2.050  1.00  0.00     0.236 C 
HETATM    4  C   UNL     1      40.578 -16.504   2.263  1.00  0.00     0.040 C 
HETATM    5  C   UNL     1      41.284 -15.354   2.987  1.00  0.00     0.058 C 
HETATM    6  C   UNL     1      42.589 -15.005   2.265  1.00  0.00     0.040 C 
HETATM    7  C   UNL     1      43.492 -16.212   2.045  1.00  0.00     0.236 C 
ENDROOT
BRANCH   5   8
HETATM    8  C   UNL     1      41.535 -15.703   4.423  1.00  0.00     0.108 A 
HETATM    9  N   UNL     1      42.709 -15.702   5.016  1.00  0.00    -0.229 NA
HETATM   10  C   UNL     1      42.491 -16.116   6.327  1.00  0.00     0.157 A 
HETATM   11  C   UNL     1      41.139 -16.355   6.500  1.00  0.00     0.126 A 
HETATM   12  N   UNL     1      40.548 -16.089   5.295  1.00  0.00    -0.352 N 
HETATM   13  H   UNL     1      39.560 -16.174   5.088  1.00  0.00     0.166 HD
BRANCH  10  14
HETATM   14  C   UNL     1      43.605 -16.261   7.330  1.00  0.00     0.436 C 
HETATM   15  F   UNL     1      44.683 -16.903   6.805  1.00  0.00    -0.165 F 
HETATM   16  F   UNL     1      44.041 -15.056   7.776  1.00  0.00    -0.165 F 
HETATM   17  F   UNL     1      43.213 -16.974   8.417  1.00  0.00    -0.165 F 
ENDBRANCH  10  14
ENDBRANCH   5   8
BRANCH   1  18
HETATM   18  C   UNL     1      43.667 -18.500   1.106  1.00  0.00     0.275 C 
BRANCH  18  19
HETATM   19  C   UNL     1      43.913 -19.295   2.334  1.00  0.00    -0.001 A 
HETATM   20  C   UNL     1      44.090 -20.666   2.418  1.00  0.00     0.057 A 
HETATM   21  O   UNL     1      44.318 -21.035   3.705  1.00  0.00    -0.320 OA
HETATM   22  C   UNL     1      44.081 -21.763   1.422  1.00  0.00     0.077 C 
HETATM   23  C   UNL     1      44.266 -19.914   4.469  1.00  0.00     0.050 A 
HETATM   24  C   UNL     1      44.473 -20.094   5.921  1.00  0.00     0.076 C 
HETATM   25  C   UNL     1      44.015 -18.816   3.675  1.00  0.00     0.043 A 
ENDBRANCH  18  19
ENDBRANCH   1  18
TORSDOF 4
ENDMDL
MODEL 5
REMARK VINA RESULT:      -7.5      3.265      5.026
REMARK  4 active torsions:
REMARK  status: ('A' for Active; 'I' for Inactive)
REMARK    1  A    between atoms: C_6  and  C_7 
REMARK    2  A    between atoms: C_7  and  N_8 
REMARK    3  A    between atoms: C_12  and  C_13 
REMARK    4  A    between atoms: C_15  and  C_16 
ROOT
HETATM    1  N   UNL     1      42.307 -15.972   2.190  1.00  0.00    -0.067 N 
HETATM    2  H   UNL     1      42.082 -15.736   1.217  1.00  0.00     0.280 HD
HETATM    3  C   UNL     1      43.799 -16.198   2.273  1.00  0.00     0.236 C 
HETATM    4  C   UNL     1      44.200 -17.405   1.430  1.00  0.00     0.040 C 
HETATM    5  C   UNL     1      43.425 -18.675   1.792  1.00  0.00     0.058 C 
HETATM    6  C   UNL     1      41.919 -18.396   1.749  1.00  0.00     0.040 C 
HETATM    7  C   UNL     1      41.509 -17.191   2.586  1.00  0.00     0.236 C 
ENDROOT
BRANCH   5   8
HETATM    8  C   UNL     1      43.843 -19.190   3.136  1.00  0.00     0.108 A 
HETATM    9  N   UNL     1      43.440 -18.717   4.295  1.00  0.00    -0.229 NA
HETATM   10  C   UNL     1      44.094 -19.459   5.274  1.00  0.00     0.157 A 
HETATM   11  C   UNL     1      44.896 -20.403   4.658  1.00  0.00     0.126 A 
HETATM   12  N   UNL     1      44.728 -20.225   3.311  1.00  0.00    -0.352 N 
HETATM   13  H   UNL     1      45.185 -20.757   2.581  1.00  0.00     0.166 HD
BRANCH  10  14
HETATM   14  C   UNL     1      43.906 -19.206   6.747  1.00  0.00     0.436 C 
HETATM   15  F   UNL     1      43.676 -20.357   7.436  1.00  0.00    -0.165 F 
HETATM   16  F   UNL     1      45.000 -18.625   7.303  1.00  0.00    -0.165 F 
HETATM   17  F   UNL     1      42.850 -18.387   6.986  1.00  0.00    -0.165 F 
ENDBRANCH  10  14
ENDBRANCH   5   8
BRANCH   1  18
HETATM   18  C   UNL     1      41.871 -14.778   3.022  1.00  0.00     0.275 C 
BRANCH  18  19
HETATM   19  C   UNL     1      42.525 -14.719   4.352  1.00  0.00    -0.001 A 
HETATM   20  C   UNL     1      42.054 -15.262   5.537  1.00  0.00     0.057 A 
HETATM   21  O   UNL     1      42.935 -15.031   6.545  1.00  0.00    -0.320 OA
HETATM   22  C   UNL     1      40.833 -16.015   5.904  1.00  0.00     0.077 C 
HETATM   23  C   UNL     1      43.968 -14.316   6.031  1.00  0.00     0.050 A 
HETATM   24  C   UNL     1      45.043 -13.938   6.974  1.00  0.00     0.076 C 
HETATM   25  C   UNL     1      43.763 -14.094   4.686  1.00  0.00     0.043 A 
ENDBRANCH  18  19
ENDBRANCH   1  18
TORSDOF 4
ENDMDL
MODEL 6
REMARK VINA RESULT:      -7.5      5.422      7.720
REMARK  4 active torsions:
REMARK  status: ('A' for Active; 'I' for Inactive)
REMARK    1  A    between atoms: C_6  and  C_7 
REMARK    2  A    between atoms: C_7  and  N_8 
REMARK    3  A    between atoms: C_12  and  C_13 
REMARK    4  A    between atoms: C_15  and  C_16 
ROOT
HETATM    1  N   UNL     1      42.773 -17.344   2.508  1.00  0.00    -0.067 N 
HETATM    2  H   UNL     1      42.479 -17.584   3.461  1.00  0.00     0.280 HD
HETATM    3  C   UNL     1      43.108 -15.869   2.490  1.00  0.00     0.236 C 
HETATM    4  C   UNL     1      41.861 -15.040   2.781  1.00  0.00     0.040 C 
HETATM    5  C   UNL     1      40.695 -15.356   1.840  1.00  0.00     0.058 C 
HETATM    6  C   UNL     1      40.418 -16.863   1.843  1.00  0.00     0.040 C 
HETATM    7  C   UNL     1      41.658 -17.701   1.556  1.00  0.00     0.236 C 
ENDROOT
BRANCH   5   8
HETATM    8  C   UNL     1      40.978 -14.859   0.455  1.00  0.00     0.108 A 
HETATM    9  N   UNL     1      41.776 -13.859   0.150  1.00  0.00    -0.229 NA
HETATM   10  C   UNL     1      41.722 -13.718  -1.234  1.00  0.00     0.157 A 
HETATM   11  C   UNL     1      40.870 -14.679  -1.748  1.00  0.00     0.126 A 
HETATM   12  N   UNL     1      40.409 -15.393  -0.675  1.00  0.00    -0.352 N 
HETATM   13  H   UNL     1      39.758 -16.167  -0.713  1.00  0.00     0.166 HD
BRANCH  10  14
HETATM   14  C   UNL     1      42.496 -12.658  -1.974  1.00  0.00     0.436 C 
HETATM   15  F   UNL     1      43.407 -13.197  -2.829  1.00  0.00    -0.165 F 
HETATM   16  F   UNL     1      41.681 -11.864  -2.714  1.00  0.00    -0.165 F 
HETATM   17  F   UNL     1      43.181 -11.851  -1.125  1.00  0.00    -0.165 F 
ENDBRANCH  10  14
ENDBRANCH   5   8
BRANCH   1  18
HETATM   18  C   UNL     1      43.994 -18.202   2.217  1.00  0.00     0.275 C 
BRANCH  18  19
HETATM   19  C   UNL     1      44.273 -19.203   3.275  1.00  0.00    -0.001 A 
HETATM   20  C   UNL     1      44.331 -18.978   4.641  1.00  0.00     0.057 A 
HETATM   21  O   UNL     1      44.585 -20.139   5.299  1.00  0.00    -0.320 OA
HETATM   22  C   UNL     1      44.175 -17.774   5.488  1.00  0.00     0.077 C 
HETATM   23  C   UNL     1      44.721 -21.118   4.368  1.00  0.00     0.050 A 
HETATM   24  C   UNL     1      45.021 -22.473   4.876  1.00  0.00     0.076 C 
HETATM   25  C   UNL     1      44.542 -20.594   3.106  1.00  0.00     0.043 A 
ENDBRANCH  18  19
ENDBRANCH   1  18
TORSDOF 4
ENDMDL
MODEL 7
REMARK VINA RESULT:      -7.4      5.341      7.699
REMARK  4 active torsions:
REMARK  status: ('A' for Active; 'I' for Inactive)
REMARK    1  A    between atoms: C_6  and  C_7 
REMARK    2  A    between atoms: C_7  and  N_8 
REMARK    3  A    between atoms: C_12  and  C_13 
REMARK    4  A    between atoms: C_15  and  C_16 
ROOT
HETATM    1  N   UNL     1      41.620 -16.577   2.275  1.00  0.00    -0.067 N 
HETATM    2  H   UNL     1      41.815 -16.367   3.260  1.00  0.00     0.280 HD
HETATM    3  C   UNL     1      42.286 -15.508   1.439  1.00  0.00     0.236 C 
HETATM    4  C   UNL     1      41.661 -14.146   1.723  1.00  0.00     0.040 C 
HETATM    5  C   UNL     1      40.141 -14.131   1.537  1.00  0.00     0.058 C 
HETATM    6  C   UNL     1      39.504 -15.259   2.356  1.00  0.00     0.040 C 
HETATM    7  C   UNL     1      40.124 -16.623   2.080  1.00  0.00     0.236 C 
ENDROOT
BRANCH   5   8
HETATM    8  C   UNL     1      39.781 -14.245   0.086  1.00  0.00     0.108 A 
HETATM    9  N   UNL     1      40.623 -14.500  -0.892  1.00  0.00    -0.229 NA
HETATM   10  C   UNL     1      39.878 -14.484  -2.068  1.00  0.00     0.157 A 
HETATM   11  C   UNL     1      38.556 -14.222  -1.756  1.00  0.00     0.126 A 
HETATM   12  N   UNL     1      38.508 -14.075  -0.397  1.00  0.00    -0.352 N 
HETATM   13  H   UNL     1      37.679 -13.869   0.148  1.00  0.00     0.166 HD
BRANCH  10  14
HETATM   14  C   UNL     1      40.493 -14.720  -3.423  1.00  0.00     0.436 C 
HETATM   15  F   UNL     1      39.603 -15.259  -4.300  1.00  0.00    -0.165 F 
HETATM   16  F   UNL     1      40.947 -13.567  -3.979  1.00  0.00    -0.165 F 
HETATM   17  F   UNL     1      41.546 -15.575  -3.356  1.00  0.00    -0.165 F 
ENDBRANCH  10  14
ENDBRANCH   5   8
BRANCH   1  18
HETATM   18  C   UNL     1      42.217 -17.950   2.014  1.00  0.00     0.275 C 
BRANCH  18  19
HETATM   19  C   UNL     1      43.145 -18.400   3.079  1.00  0.00    -0.001 A 
HETATM   20  C   UNL     1      43.867 -19.583   3.111  1.00  0.00     0.057 A 
HETATM   21  O   UNL     1      44.631 -19.638   4.232  1.00  0.00    -0.320 OA
HETATM   22  C   UNL     1      43.966 -20.747   2.201  1.00  0.00     0.077 C 
HETATM   23  C   UNL     1      44.394 -18.509   4.948  1.00  0.00     0.050 A 
HETATM   24  C   UNL     1      45.121 -18.374   6.228  1.00  0.00     0.076 C 
HETATM   25  C   UNL     1      43.484 -17.715   4.284  1.00  0.00     0.043 A 
ENDBRANCH  18  19
ENDBRANCH   1  18
TORSDOF 4
ENDMDL
MODEL 8
REMARK VINA RESULT:      -7.4      2.841      4.083
REMARK  4 active torsions:
REMARK  status: ('A' for Active; 'I' for Inactive)
REMARK    1  A    between atoms: C_6  and  C_7 
REMARK    2  A    between atoms: C_7  and  N_8 
REMARK    3  A    between atoms: C_12  and  C_13 
REMARK    4  A    between atoms: C_15  and  C_16 
ROOT
HETATM    1  N   UNL     1      42.901 -14.887   6.531  1.00  0.00    -0.067 N 
HETATM    2  H   UNL     1      42.298 -14.514   7.272  1.00  0.00     0.280 HD
HETATM    3  C   UNL     1      42.025 -15.670   5.579  1.00  0.00     0.236 C 
HETATM    4  C   UNL     1      41.416 -16.875   6.289  1.00  0.00     0.040 C 
HETATM    5  C   UNL     1      42.463 -17.776   6.949  1.00  0.00     0.058 C 
HETATM    6  C   UNL     1      43.365 -16.943   7.865  1.00  0.00     0.040 C 
HETATM    7  C   UNL     1      43.976 -15.735   7.166  1.00  0.00     0.236 C 
ENDROOT
BRANCH   5   8
HETATM    8  C   UNL     1      43.266 -18.506   5.915  1.00  0.00     0.108 A 
HETATM    9  N   UNL     1      42.991 -18.557   4.629  1.00  0.00    -0.229 NA
HETATM   10  C   UNL     1      43.968 -19.361   4.048  1.00  0.00     0.157 A 
HETATM   11  C   UNL     1      44.844 -19.781   5.033  1.00  0.00     0.126 A 
HETATM   12  N   UNL     1      44.393 -19.235   6.203  1.00  0.00    -0.352 N 
HETATM   13  H   UNL     1      44.814 -19.358   7.116  1.00  0.00     0.166 HD
BRANCH  10  14
HETATM   14  C   UNL     1      43.989 -19.677   2.576  1.00  0.00     0.436 C 
HETATM   15  F   UNL     1      44.789 -20.743   2.296  1.00  0.00    -0.165 F 
HETATM   16  F   UNL     1      42.752 -19.978   2.106  1.00  0.00    -0.165 F 
HETATM   17  F   UNL     1      44.455 -18.633   1.844  1.00  0.00    -0.165 F 
ENDBRANCH  10  14
ENDBRANCH   5   8
BRANCH   1  18
HETATM   18  C   UNL     1      43.529 -13.679   5.855  1.00  0.00     0.275 C 
BRANCH  18  19
HETATM   19  C   UNL     1      42.829 -13.272   4.612  1.00  0.00    -0.001 A 
HETATM   20  C   UNL     1      41.725 -12.440   4.512  1.00  0.00     0.057 A 
HETATM   21  O   UNL     1      41.377 -12.274   3.210  1.00  0.00    -0.320 OA
HETATM   22  C   UNL     1      40.889 -11.724   5.502  1.00  0.00     0.077 C 
HETATM   23  C   UNL     1      42.231 -13.015   2.458  1.00  0.00     0.050 A 
HETATM   24  C   UNL     1      42.015 -12.990   0.996  1.00  0.00     0.076 C 
HETATM   25  C   UNL     1      43.141 -13.653   3.273  1.00  0.00     0.043 A 
ENDBRANCH  18  19
ENDBRANCH   1  18
TORSDOF 4
ENDMDL
MODEL 9
REMARK VINA RESULT:      -7.4      3.507      5.760
REMARK  4 active torsions:
REMARK  status: ('A' for Active; 'I' for Inactive)
REMARK    1  A    between atoms: C_6  and  C_7 
REMARK    2  A    between atoms: C_7  and  N_8 
REMARK    3  A    between atoms: C_12  and  C_13 
REMARK    4  A    between atoms: C_15  and  C_16 
ROOT
HETATM    1  N   UNL     1      41.934 -15.745   6.588  1.00  0.00    -0.067 N 
HETATM    2  H   UNL     1      41.769 -15.290   7.492  1.00  0.00     0.280 HD
HETATM    3  C   UNL     1      43.053 -14.999   5.897  1.00  0.00     0.236 C 
HETATM    4  C   UNL     1      42.623 -13.568   5.588  1.00  0.00     0.040 C 
HETATM    5  C   UNL     1      41.323 -13.491   4.783  1.00  0.00     0.058 C 
HETATM    6  C   UNL     1      40.227 -14.301   5.483  1.00  0.00     0.040 C 
HETATM    7  C   UNL     1      40.648 -15.731   5.798  1.00  0.00     0.236 C 
ENDROOT
BRANCH   5   8
HETATM    8  C   UNL     1      41.538 -13.970   3.379  1.00  0.00     0.108 A 
HETATM    9  N   UNL     1      41.340 -15.198   2.951  1.00  0.00    -0.229 NA
HETATM   10  C   UNL     1      41.690 -15.209   1.604  1.00  0.00     0.157 A 
HETATM   11  C   UNL     1      42.095 -13.937   1.237  1.00  0.00     0.126 A 
HETATM   12  N   UNL     1      41.993 -13.166   2.363  1.00  0.00    -0.352 N 
HETATM   13  H   UNL     1      42.223 -12.182   2.430  1.00  0.00     0.166 HD
BRANCH  10  14
HETATM   14  C   UNL     1      41.615 -16.450   0.754  1.00  0.00     0.436 C 
HETATM   15  F   UNL     1      40.809 -17.397   1.306  1.00  0.00    -0.165 F 
HETATM   16  F   UNL     1      41.125 -16.186  -0.484  1.00  0.00    -0.165 F 
HETATM   17  F   UNL     1      42.836 -17.020   0.589  1.00  0.00    -0.165 F 
ENDBRANCH  10  14
ENDBRANCH   5   8
BRANCH   1  18
HETATM   18  C   UNL     1      42.327 -17.179   6.907  1.00  0.00     0.275 C 
BRANCH  18  19
HETATM   19  C   UNL     1      42.987 -17.873   5.775  1.00  0.00    -0.001 A 
HETATM   20  C   UNL     1      44.313 -18.270   5.700  1.00  0.00     0.057 A 
HETATM   21  O   UNL     1      44.550 -18.900   4.519  1.00  0.00    -0.320 OA
HETATM   22  C   UNL     1      45.471 -18.152   6.614  1.00  0.00     0.077 C 
HETATM   23  C   UNL     1      43.392 -18.893   3.810  1.00  0.00     0.050 A 
HETATM   24  C   UNL     1      43.434 -19.520   2.472  1.00  0.00     0.076 C 
HETATM   25  C   UNL     1      42.400 -18.269   4.536  1.00  0.00     0.043 A 
ENDBRANCH  18  19
ENDBRANCH   1  18
TORSDOF 4
ENDMDL
MODEL 10
REMARK VINA RESULT:      -7.3      3.311      4.897
REMARK  4 active torsions:
REMARK  status: ('A' for Active; 'I' for Inactive)
REMARK    1  A    between atoms: C_6  and  C_7 
REMARK    2  A    between atoms: C_7  and  N_8 
REMARK    3  A    between atoms: C_12  and  C_13 
REMARK    4  A    between atoms: C_15  and  C_16 
ROOT
HETATM    1  N   UNL     1      41.466 -15.761   2.949  1.00  0.00    -0.067 N 
HETATM    2  H   UNL     1      41.142 -15.085   2.248  1.00  0.00     0.280 HD
HETATM    3  C   UNL     1      42.974 -15.817   2.869  1.00  0.00     0.236 C 
HETATM    4  C   UNL     1      43.413 -16.358   1.512  1.00  0.00     0.040 C 
HETATM    5  C   UNL     1      42.787 -17.715   1.175  1.00  0.00     0.058 C 
HETATM    6  C   UNL     1      41.264 -17.636   1.317  1.00  0.00     0.040 C 
HETATM    7  C   UNL     1      40.816 -17.094   2.669  1.00  0.00     0.236 C 
ENDROOT
BRANCH   5   8
HETATM    8  C   UNL     1      43.358 -18.795   2.044  1.00  0.00     0.108 A 
HETATM    9  N   UNL     1      43.678 -18.666   3.313  1.00  0.00    -0.229 NA
HETATM   10  C   UNL     1      44.197 -19.893   3.717  1.00  0.00     0.157 A 
HETATM   11  C   UNL     1      44.167 -20.765   2.643  1.00  0.00     0.126 A 
HETATM   12  N   UNL     1      43.635 -20.063   1.596  1.00  0.00    -0.352 N 
HETATM   13  H   UNL     1      43.484 -20.418   0.660  1.00  0.00     0.166 HD
BRANCH  10  14
HETATM   14  C   UNL     1      44.696 -20.144   5.116  1.00  0.00     0.436 C 
HETATM   15  F   UNL     1      45.499 -19.138   5.558  1.00  0.00    -0.165 F 
HETATM   16  F   UNL     1      43.675 -20.255   6.003  1.00  0.00    -0.165 F 
HETATM   17  F   UNL     1      45.421 -21.289   5.192  1.00  0.00    -0.165 F 
ENDBRANCH  10  14
ENDBRANCH   5   8
BRANCH   1  18
HETATM   18  C   UNL     1      40.992 -15.229   4.292  1.00  0.00     0.275 C 
BRANCH  18  19
HETATM   19  C   UNL     1      41.871 -15.620   5.421  1.00  0.00    -0.001 A 
HETATM   20  C   UNL     1      42.832 -14.836   6.039  1.00  0.00     0.057 A 
HETATM   21  O   UNL     1      43.420 -15.524   7.053  1.00  0.00    -0.320 OA
HETATM   22  C   UNL     1      43.321 -13.455   5.824  1.00  0.00     0.077 C 
HETATM   23  C   UNL     1      42.868 -16.763   7.083  1.00  0.00     0.050 A 
HETATM   24  C   UNL     1      43.383 -17.690   8.113  1.00  0.00     0.076 C 
HETATM   25  C   UNL     1      41.911 -16.876   6.097  1.00  0.00     0.043 A 
ENDBRANCH  18  19
ENDBRANCH   1  18
TORSDOF 4
ENDMDL
